ACT
                    3D
 Structure written by MMmdl.
  8  7  0  0  1  0            999 V2000
   50.5970   -7.0800   41.5830 C   0  0  0  0  0  0
   50.9910   -7.2180   42.8610 O   0  0  0  0  0  0
   51.3930   -7.3340   40.4830 O   0  0  0  0  0  0
   49.2150   -6.8840   41.1360 C   0  0  0  0  0  0
   48.5735   -6.6810   42.0062 H   0  0  0  0  0  0
   48.8628   -7.7920   40.6246 H   0  0  0  0  0  0
   49.1716   -6.0319   40.4417 H   0  0  0  0  0  0
   52.4711   -7.5096   40.6130 H   0  0  0  0  0  0
  1  2  2  0  0  0
  1  3  1  0  0  0
  1  4  1  0  0  0
  3  8  1  0  0  0
  4  5  1  0  0  0
  4  6  1  0  0  0
  4  7  1  0  0  0
M  END
> <s_m_source_file>
/cbio/jclab/home/rustenburg/PFK/Epik-Ligands/Results/InProgress/ACETATE ION/pH_4.0/ACETATE ION_pH_4.0-before_epik.mol2

> <i_m_source_file_index>
1

> <r_epik_Ionization_Penalty>
  0.0817

> <r_epik_Ionization_Penalty_Charging>
  0.0000

> <r_epik_Ionization_Penalty_Neutral>
  0.0817

> <r_epik_State_Penalty>
  0.0725

> <r_epik_Charging_Adjusted_Penalty>
0.072471867636728

> <i_epik_Tot_Q>
0

> <i_epik_Tot_abs_Q>
0

$$$$
ACT
                    3D
 Structure written by MMmdl.
  7  6  0  0  1  0            999 V2000
   50.5970   -7.0800   41.5830 C   0  0  0  0  0  0
   50.9910   -7.2180   42.8610 O   0  0  0  0  0  0
   51.3930   -7.3340   40.4830 O   0  5  0  0  0  0
   49.2150   -6.8840   41.1360 C   0  0  0  0  0  0
   48.5735   -6.6810   42.0062 H   0  0  0  0  0  0
   48.8628   -7.7920   40.6246 H   0  0  0  0  0  0
   49.1716   -6.0319   40.4417 H   0  0  0  0  0  0
  1  2  2  0  0  0
  1  3  1  0  0  0
  1  4  1  0  0  0
  4  5  1  0  0  0
  4  6  1  0  0  0
  4  7  1  0  0  0
M  CHG  1   3  -1
M  END
> <s_m_source_file>
/cbio/jclab/home/rustenburg/PFK/Epik-Ligands/Results/InProgress/ACETATE ION/pH_4.0/ACETATE ION_pH_4.0-before_epik.mol2

> <i_m_source_file_index>
1

> <r_epik_Ionization_Penalty>
  1.2141

> <r_epik_Ionization_Penalty_Charging>
  1.2141

> <r_epik_Ionization_Penalty_Neutral>
  0.0000

> <r_epik_State_Penalty>
  1.2808

> <r_epik_Charging_Adjusted_Penalty>
2.49481150918777

> <i_epik_Tot_Q>
-1

> <i_epik_Tot_abs_Q>
1

$$$$
