DTT
  CCTOOLS-0326171102

 18 17  0  0  1  0  0  0  0  0999 V2000
    3.6130   21.8750   25.3710 S   0  0  0  0  0
    2.1140   21.6520   24.3500 C   0  0  0  0  0
    1.3170   22.8990   24.0120 C   0  0  0  0  0
    0.5700   23.1840   25.1820 O   0  0  0  0  0
    0.3130   22.7130   22.8140 C   0  0  0  0  0
   -0.9220   23.3320   23.2010 O   0  0  0  0  0
    0.7400   23.4630   21.5380 C   0  0  0  0  0
    2.3950   23.1260   20.7570 S   0  0  0  0  0
    4.1110   21.0940   25.5820 H   0  0  0  0  0
    2.3810   21.1150   23.4090 H   0  0  0  0  0
    1.4440   20.9020   24.8320 H   0  0  0  0  0
    2.0170   23.7070   23.6970 H   0  0  0  0  0
    0.0710   23.9640   24.9700 H   0  0  0  0  0
    0.2550   21.6200   22.6000 H   0  0  0  0  0
   -1.5270   23.2190   22.4780 H   0  0  0  0  0
   -0.0480   23.3140   20.7640 H   0  0  0  0  0
    0.6610   24.5580   21.7320 H   0  0  0  0  0
    2.6580   23.5880   19.9700 H   0  0  0  0  0
  1  2  1  0  0  0
  1  9  1  0  0  0
  2  3  1  0  0  0
  2 10  1  0  0  0
  2 11  1  0  0  0
  3  4  1  0  0  0
  3  5  1  0  0  0
  3 12  1  0  0  0
  4 13  1  0  0  0
  5  6  1  0  0  0
  5  7  1  0  0  0
  5 14  1  0  0  0
  6 15  1  0  0  0
  7  8  1  0  0  0
  7 16  1  0  0  0
  7 17  1  0  0  0
  8 18  1  0  0  0
M  END
$$$$
