@<TRIPOS>MOLECULE
DTT
   18    17     1     0     0
SMALL
NO_CHARGES

@<TRIPOS>ATOM
      1  S1         3.6130   21.8750   25.3710 S.3       1 DTT         0.0000
      2  C1         2.1140   21.6520   24.3500 C.3       1 DTT         0.0000
      3  C2         1.3170   22.8990   24.0120 C.3       1 DTT         0.0000
      4  O2         0.5700   23.1840   25.1820 O.3       1 DTT         0.0000
      5  C3         0.3130   22.7130   22.8140 C.3       1 DTT         0.0000
      6  O3        -0.9220   23.3320   23.2010 O.3       1 DTT         0.0000
      7  C4         0.7400   23.4630   21.5380 C.3       1 DTT         0.0000
      8  S4         2.3950   23.1260   20.7570 S.3       1 DTT         0.0000
      9  HS1        4.1110   21.0940   25.5820 H         1 DTT         0.0000
     10  H11        2.3810   21.1150   23.4090 H         1 DTT         0.0000
     11  H12        1.4440   20.9020   24.8320 H         1 DTT         0.0000
     12  H2         2.0170   23.7070   23.6970 H         1 DTT         0.0000
     13  HO2        0.0710   23.9640   24.9700 H         1 DTT         0.0000
     14  H3         0.2550   21.6200   22.6000 H         1 DTT         0.0000
     15  HO3       -1.5270   23.2190   22.4780 H         1 DTT         0.0000
     16  H41       -0.0480   23.3140   20.7640 H         1 DTT         0.0000
     17  H42        0.6610   24.5580   21.7320 H         1 DTT         0.0000
     18  HS2        2.6580   23.5880   19.9700 H         1 DTT         0.0000
@<TRIPOS>BOND
     1    1    2 1
     2    1    9 1
     3    2    3 1
     4    2   10 1
     5    2   11 1
     6    3    4 1
     7    3    5 1
     8    3   12 1
     9    4   13 1
    10    5    6 1
    11    5    7 1
    12    5   14 1
    13    6   15 1
    14    7    8 1
    15    7   16 1
    16    7   17 1
    17    8   18 1
@<TRIPOS>SUBSTRUCTURE
     1 DTT         1 GROUP 0 A     ****
