NO3
  CCTOOLS-0326171110

  4  3  0  0  0  0  0  0  0  0999 V2000
   -7.5290    9.8780   13.8730 N   0  3  0  0  0
   -7.7300   10.1330   12.6950 O   0  0  0  0  0
   -6.6050    9.2020   14.2010 O   0  5  0  0  0
   -8.3380   10.3090   14.6660 O   0  5  0  0  0
  1  2  2  0  0  0
  1  3  1  0  0  0
  1  4  1  0  0  0
M  CHG  1   1   1
M  CHG  1   3  -1
M  CHG  1   4  -1
M  END
$$$$
