NAD
                    3D
 Structure written by MMmdl.
 70 74  0  0  1  0            999 V2000
   19.2220   51.6360  -19.1860 P   0  0  0  0  0  0
   18.3400   51.7970  -20.3580 O   0  0  0  0  0  0
   18.8850   52.5330  -18.0510 O   0  5  0  0  0  0
   20.6820   52.1340  -19.5960 O   0  0  0  0  0  0
   21.4290   51.5430  -20.6790 C   0  0  0  0  0  0
   22.5290   52.5590  -20.8420 C   0  0  1  0  0  0
   23.4790   52.1310  -21.8670 O   0  0  0  0  0  0
   22.0160   53.9110  -21.3390 C   0  0  1  0  0  0
   22.6830   54.9990  -20.6450 O   0  0  0  0  0  0
   22.3910   53.7990  -22.8110 C   0  0  1  0  0  0
   22.4990   55.1030  -23.3910 O   0  0  0  0  0  0
   23.7870   53.1930  -22.6500 C   0  0  2  0  0  0
   24.2320   52.6270  -23.8880 N   0  0  0  0  0  0
   23.4560   52.0620  -24.8440 C   0  0  0  0  0  0
   24.1630   51.5750  -25.8700 N   0  0  0  0  0  0
   25.4680   51.8990  -25.5240 C   0  0  0  0  0  0
   26.6910   51.6480  -26.1780 C   0  0  0  0  0  0
   26.8140   51.0280  -27.3490 N   0  0  0  0  0  0
   27.8150   52.0740  -25.5590 N   0  0  0  0  0  0
   27.6880   52.6870  -24.3510 C   0  0  0  0  0  0
   26.5990   52.9420  -23.6710 N   0  0  0  0  0  0
   25.5200   52.5410  -24.3140 C   0  0  0  0  0  0
   19.2770   50.0880  -18.7990 O   0  0  0  0  0  0
   19.6010   49.4760  -17.3370 P   0  0  2  0  0  0
   18.4110   49.2370  -16.4750 O   0  0  0  0  0  0
   20.6660   50.3020  -16.6790 O   0  0  0  0  0  0
   20.1090   48.0460  -17.8670 O   0  0  0  0  0  0
   21.4660   47.9040  -18.3990 C   0  0  0  0  0  0
   21.6630   46.4390  -18.7180 C   0  0  1  0  0  0
   21.5490   45.6870  -17.4900 O   0  0  0  0  0  0
   20.6660   45.8280  -19.7060 C   0  0  1  0  0  0
   21.2600   44.6920  -20.3570 O   0  0  0  0  0  0
   19.6420   45.2510  -18.7410 C   0  0  1  0  0  0
   18.8840   44.1960  -19.3620 O   0  0  0  0  0  0
   20.5610   44.6890  -17.6800 C   0  0  2  0  0  0
   19.8780   44.3750  -16.4350 N   0  0  0  0  0  0
   19.0560   45.3180  -15.8240 C   0  0  0  0  0  0
   18.4130   45.0640  -14.5440 C   0  0  0  0  0  0
   17.7320   46.2170  -13.8990 C   0  0  0  0  0  0
   17.2370   45.9260  -12.7980 O   0  0  0  0  0  0
   17.6580   47.4710  -14.4380 N   0  0  0  0  0  0
   18.5660   43.7530  -13.9120 C   0  0  0  0  0  0
   19.4710   42.7970  -14.6370 C   0  0  0  0  0  0
   20.0370   43.1270  -15.7860 C   0  0  0  0  0  0
   21.7870   50.5476  -20.3772 H   0  0  0  0  0  0
   20.7805   51.4471  -21.5623 H   0  0  0  0  0  0
   23.0104   52.6258  -19.8552 H   0  0  0  0  0  0
   20.9629   54.1656  -21.1487 H   0  0  0  0  0  0
   22.4862   55.1726  -19.5768 H   0  0  0  0  0  0
   21.6787   53.2879  -23.4754 H   0  0  0  0  0  0
   21.5928   55.6962  -23.5832 H   0  0  0  0  0  0
   24.5854   53.8411  -22.2594 H   0  0  0  0  0  0
   22.3550   52.0040  -24.7920 H   0  0  0  0  0  0
   25.9188   50.6693  -27.8781 H   0  0  0  0  0  0
   27.8109   50.8742  -27.7879 H   0  0  0  0  0  0
   28.6070   53.0290  -23.8460 H   0  0  0  0  0  0
   21.5702   48.5174  -19.3062 H   0  0  0  0  0  0
   22.1927   48.2392  -17.6443 H   0  0  0  0  0  0
   22.6719   46.3603  -19.1492 H   0  0  0  0  0  0
   20.3190   46.5024  -20.5028 H   0  0  0  0  0  0
   22.0441   44.8398  -21.1142 H   0  0  0  0  0  0
   18.8576   45.9394  -18.3935 H   0  0  0  0  0  0
   18.1638   44.4321  -20.1593 H   0  0  0  0  0  0
   21.0305   43.7362  -17.9660 H   0  0  0  0  0  0
   18.8987   46.2779  -16.3376 H   0  0  0  0  0  0
   18.1138   47.6763  -15.4178 H   0  0  0  0  0  0
   17.1426   48.2748  -13.8919 H   0  0  0  0  0  0
   18.0440   43.5070  -12.9710 H   0  0  0  0  0  0
   19.6594   41.8074  -14.1953 H   0  0  0  0  0  0
   20.6855   42.4069  -16.3065 H   0  0  0  0  0  0
  1  2  2  0  0  0
  1  3  1  0  0  0
  1  4  1  0  0  0
  1 23  1  0  0  0
  4  5  1  0  0  0
  5  6  1  0  0  0
  5 45  1  0  0  0
  5 46  1  0  0  0
  6  7  1  0  0  0
  6  8  1  0  0  0
  6 47  1  0  0  0
  7 12  1  0  0  0
  8  9  1  0  0  0
  8 10  1  0  0  0
  8 48  1  0  0  0
  9 49  1  0  0  0
 10 11  1  0  0  0
 10 12  1  0  0  0
 10 50  1  0  0  0
 11 51  1  0  0  0
 12 13  1  0  0  0
 12 52  1  0  0  0
 13 14  1  0  0  0
 13 22  1  0  0  0
 14 15  2  0  0  0
 14 53  1  0  0  0
 15 16  1  0  0  0
 16 17  1  0  0  0
 16 22  2  0  0  0
 17 18  1  0  0  0
 17 19  2  0  0  0
 18 54  1  0  0  0
 18 55  1  0  0  0
 19 20  1  0  0  0
 20 21  2  0  0  0
 20 56  1  0  0  0
 21 22  1  0  0  0
 23 24  1  0  0  0
 24 25  2  0  0  0
 24 26  1  0  0  0
 24 27  1  0  0  0
 27 28  1  0  0  0
 28 29  1  0  0  0
 28 57  1  0  0  0
 28 58  1  0  0  0
 29 30  1  0  0  0
 29 31  1  0  0  0
 29 59  1  0  0  0
 30 35  1  0  0  0
 31 32  1  0  0  0
 31 33  1  0  0  0
 31 60  1  0  0  0
 32 61  1  0  0  0
 33 34  1  0  0  0
 33 35  1  0  0  0
 33 62  1  0  0  0
 34 63  1  0  0  0
 35 36  1  0  0  0
 35 64  1  0  0  0
 36 37  1  0  0  0
 36 44  1  0  0  0
 37 38  2  0  0  0
 37 65  1  0  0  0
 38 39  1  0  0  0
 38 42  1  0  0  0
 39 40  2  0  0  0
 39 41  1  0  0  0
 41 66  1  0  0  0
 41 67  1  0  0  0
 42 43  1  0  0  0
 42 68  1  0  0  0
 43 44  2  0  0  0
 43 69  1  0  0  0
 44 70  1  0  0  0
M  CHG  1   3  -1
M  END
> <s_m_source_file>
/cbio/jclab/home/rustenburg/PFK/Epik-Ligands/Results/InProgress/NICOTINAMIDE-ADENINE-DINUCLEOTIDE/pH_7.4/NICOTINAMIDE-ADENINE-DINUCLEOTIDE_pH_7.4-before_epik.mol2

> <i_m_source_file_index>
1

> <r_epik_Ionization_Penalty>
  0.0003

> <r_epik_Ionization_Penalty_Charging>
  0.0000

> <r_epik_Ionization_Penalty_Neutral>
  0.0003

> <r_epik_State_Penalty>
  0.0065

> <r_epik_Charging_Adjusted_Penalty>
0.00649943997431082

> <i_epik_Tot_Q>
-1

> <i_epik_Tot_abs_Q>
1

> <s_epik_Chemistry_Notes>
This compound has an imine and may undergo hydrolysis. This compound contains an acetal/aminal-like group ( X-CH(R)-Y where X, Y are N, S, or O) that may be acid/base labile, releasing an aldehyde.

$$$$
NAD
                    3D
 Structure written by MMmdl.
 70 74  0  0  1  0            999 V2000
   19.2220   51.6360  -19.1860 P   0  0  0  0  0  0
   18.3400   51.7970  -20.3580 O   0  0  0  0  0  0
   18.8850   52.5330  -18.0510 O   0  5  0  0  0  0
   20.6820   52.1340  -19.5960 O   0  0  0  0  0  0
   21.4290   51.5430  -20.6790 C   0  0  0  0  0  0
   22.5290   52.5590  -20.8420 C   0  0  1  0  0  0
   23.4790   52.1310  -21.8670 O   0  0  0  0  0  0
   22.0160   53.9110  -21.3390 C   0  0  1  0  0  0
   22.6830   54.9990  -20.6450 O   0  0  0  0  0  0
   22.3910   53.7990  -22.8110 C   0  0  1  0  0  0
   22.4990   55.1030  -23.3910 O   0  0  0  0  0  0
   23.7870   53.1930  -22.6500 C   0  0  2  0  0  0
   24.2320   52.6270  -23.8880 N   0  0  0  0  0  0
   23.4560   52.0620  -24.8440 C   0  0  0  0  0  0
   24.1630   51.5750  -25.8700 N   0  0  0  0  0  0
   25.4680   51.8990  -25.5240 C   0  0  0  0  0  0
   26.6910   51.6480  -26.1780 C   0  0  0  0  0  0
   26.8140   51.0280  -27.3490 N   0  0  0  0  0  0
   27.8150   52.0740  -25.5590 N   0  0  0  0  0  0
   27.6880   52.6870  -24.3510 C   0  0  0  0  0  0
   26.5990   52.9420  -23.6710 N   0  0  0  0  0  0
   25.5200   52.5410  -24.3140 C   0  0  0  0  0  0
   19.2770   50.0880  -18.7990 O   0  0  0  0  0  0
   19.6010   49.4760  -17.3370 P   0  0  2  0  0  0
   18.4110   49.2370  -16.4750 O   0  0  0  0  0  0
   20.6660   50.3020  -16.6790 O   0  0  0  0  0  0
   20.1090   48.0460  -17.8670 O   0  0  0  0  0  0
   21.4660   47.9040  -18.3990 C   0  0  0  0  0  0
   21.6630   46.4390  -18.7180 C   0  0  1  0  0  0
   21.5490   45.6870  -17.4900 O   0  0  0  0  0  0
   20.6660   45.8280  -19.7060 C   0  0  1  0  0  0
   21.2600   44.6920  -20.3570 O   0  0  0  0  0  0
   19.6420   45.2510  -18.7410 C   0  0  1  0  0  0
   18.8840   44.1960  -19.3620 O   0  0  0  0  0  0
   20.5610   44.6890  -17.6800 C   0  0  2  0  0  0
   19.8780   44.3750  -16.4350 N   0  0  0  0  0  0
   19.0560   45.3180  -15.8240 C   0  0  0  0  0  0
   18.4130   45.0640  -14.5440 C   0  0  0  0  0  0
   17.7320   46.2170  -13.8990 C   0  0  0  0  0  0
   17.2370   45.9260  -12.7980 O   0  0  0  0  0  0
   17.6580   47.4710  -14.4380 N   0  0  0  0  0  0
   18.5660   43.7530  -13.9120 C   0  0  0  0  0  0
   19.4710   42.7970  -14.6370 C   0  0  0  0  0  0
   20.0370   43.1270  -15.7860 C   0  0  0  0  0  0
   21.7870   50.5476  -20.3772 H   0  0  0  0  0  0
   20.7805   51.4471  -21.5623 H   0  0  0  0  0  0
   23.0104   52.6258  -19.8552 H   0  0  0  0  0  0
   20.9629   54.1656  -21.1487 H   0  0  0  0  0  0
   22.4862   55.1726  -19.5768 H   0  0  0  0  0  0
   21.6787   53.2879  -23.4754 H   0  0  0  0  0  0
   21.5928   55.6962  -23.5832 H   0  0  0  0  0  0
   24.5854   53.8411  -22.2594 H   0  0  0  0  0  0
   22.3550   52.0040  -24.7920 H   0  0  0  0  0  0
   26.2230   51.5300  -28.0110 H   0  0  0  0  0  0
   28.6070   53.0290  -23.8460 H   0  0  0  0  0  0
   21.5702   48.5174  -19.3062 H   0  0  0  0  0  0
   22.1927   48.2392  -17.6443 H   0  0  0  0  0  0
   22.6719   46.3603  -19.1492 H   0  0  0  0  0  0
   20.3190   46.5024  -20.5028 H   0  0  0  0  0  0
   22.0441   44.8398  -21.1142 H   0  0  0  0  0  0
   18.8576   45.9394  -18.3935 H   0  0  0  0  0  0
   18.1638   44.4321  -20.1593 H   0  0  0  0  0  0
   21.0305   43.7362  -17.9660 H   0  0  0  0  0  0
   18.8987   46.2779  -16.3376 H   0  0  0  0  0  0
   18.1138   47.6763  -15.4178 H   0  0  0  0  0  0
   17.1426   48.2748  -13.8919 H   0  0  0  0  0  0
   18.0440   43.5070  -12.9710 H   0  0  0  0  0  0
   19.6594   41.8074  -14.1953 H   0  0  0  0  0  0
   20.6855   42.4069  -16.3065 H   0  0  0  0  0  0
   28.7957   51.9210  -26.0331 H   0  0  0  0  0  0
  1  2  2  0  0  0
  1  3  1  0  0  0
  1  4  1  0  0  0
  1 23  1  0  0  0
  4  5  1  0  0  0
  5  6  1  0  0  0
  5 45  1  0  0  0
  5 46  1  0  0  0
  6  7  1  0  0  0
  6  8  1  0  0  0
  6 47  1  0  0  0
  7 12  1  0  0  0
  8  9  1  0  0  0
  8 10  1  0  0  0
  8 48  1  0  0  0
  9 49  1  0  0  0
 10 11  1  0  0  0
 10 12  1  0  0  0
 10 50  1  0  0  0
 11 51  1  0  0  0
 12 13  1  0  0  0
 12 52  1  0  0  0
 13 14  1  0  0  0
 13 22  1  0  0  0
 14 15  2  0  0  0
 14 53  1  0  0  0
 15 16  1  0  0  0
 16 17  1  0  0  0
 16 22  2  0  0  0
 17 18  2  0  0  0
 17 19  1  0  0  0
 18 54  1  0  0  0
 19 20  1  0  0  0
 19 70  1  0  0  0
 20 21  2  0  0  0
 20 55  1  0  0  0
 21 22  1  0  0  0
 23 24  1  0  0  0
 24 25  2  0  0  0
 24 26  1  0  0  0
 24 27  1  0  0  0
 27 28  1  0  0  0
 28 29  1  0  0  0
 28 56  1  0  0  0
 28 57  1  0  0  0
 29 30  1  0  0  0
 29 31  1  0  0  0
 29 58  1  0  0  0
 30 35  1  0  0  0
 31 32  1  0  0  0
 31 33  1  0  0  0
 31 59  1  0  0  0
 32 60  1  0  0  0
 33 34  1  0  0  0
 33 35  1  0  0  0
 33 61  1  0  0  0
 34 62  1  0  0  0
 35 36  1  0  0  0
 35 63  1  0  0  0
 36 37  1  0  0  0
 36 44  1  0  0  0
 37 38  2  0  0  0
 37 64  1  0  0  0
 38 39  1  0  0  0
 38 42  1  0  0  0
 39 40  2  0  0  0
 39 41  1  0  0  0
 41 65  1  0  0  0
 41 66  1  0  0  0
 42 43  1  0  0  0
 42 67  1  0  0  0
 43 44  2  0  0  0
 43 68  1  0  0  0
 44 69  1  0  0  0
M  CHG  1   3  -1
M  END
> <s_m_source_file>
/cbio/jclab/home/rustenburg/PFK/Epik-Ligands/Results/InProgress/NICOTINAMIDE-ADENINE-DINUCLEOTIDE/pH_7.4/NICOTINAMIDE-ADENINE-DINUCLEOTIDE_pH_7.4-before_epik.mol2

> <i_m_source_file_index>
1

> <r_epik_Ionization_Penalty>
  1.9329

> <r_epik_Ionization_Penalty_Charging>
  1.9328

> <r_epik_Ionization_Penalty_Neutral>
  0.0001

> <r_epik_State_Penalty>
  3.1069

> <r_epik_Charging_Adjusted_Penalty>
5.03966356901087

> <i_epik_Tot_Q>
-1

> <i_epik_Tot_abs_Q>
1

> <s_epik_Chemistry_Notes>
This compound has an imine and may undergo hydrolysis. This compound contains an acetal/aminal-like group ( X-CH(R)-Y where X, Y are N, S, or O) that may be acid/base labile, releasing an aldehyde.

$$$$
NAD
                    3D
 Structure written by MMmdl.
 70 74  0  0  1  0            999 V2000
   19.2220   51.6360  -19.1860 P   0  0  0  0  0  0
   18.3400   51.7970  -20.3580 O   0  0  0  0  0  0
   18.8850   52.5330  -18.0510 O   0  5  0  0  0  0
   20.6820   52.1340  -19.5960 O   0  0  0  0  0  0
   21.4290   51.5430  -20.6790 C   0  0  0  0  0  0
   22.5290   52.5590  -20.8420 C   0  0  1  0  0  0
   23.4790   52.1310  -21.8670 O   0  0  0  0  0  0
   22.0160   53.9110  -21.3390 C   0  0  1  0  0  0
   22.6830   54.9990  -20.6450 O   0  0  0  0  0  0
   22.3910   53.7990  -22.8110 C   0  0  1  0  0  0
   22.4990   55.1030  -23.3910 O   0  0  0  0  0  0
   23.7870   53.1930  -22.6500 C   0  0  2  0  0  0
   24.2320   52.6270  -23.8880 N   0  0  0  0  0  0
   23.4560   52.0620  -24.8440 C   0  0  0  0  0  0
   24.1630   51.5750  -25.8700 N   0  0  0  0  0  0
   25.4680   51.8990  -25.5240 C   0  0  0  0  0  0
   26.6910   51.6480  -26.1780 C   0  0  0  0  0  0
   26.8140   51.0280  -27.3490 N   0  0  0  0  0  0
   27.8150   52.0740  -25.5590 N   0  0  0  0  0  0
   27.6880   52.6870  -24.3510 C   0  0  0  0  0  0
   26.5990   52.9420  -23.6710 N   0  0  0  0  0  0
   25.5200   52.5410  -24.3140 C   0  0  0  0  0  0
   19.2770   50.0880  -18.7990 O   0  0  0  0  0  0
   19.6010   49.4760  -17.3370 P   0  0  2  0  0  0
   18.4110   49.2370  -16.4750 O   0  0  0  0  0  0
   20.6660   50.3020  -16.6790 O   0  0  0  0  0  0
   20.1090   48.0460  -17.8670 O   0  0  0  0  0  0
   21.4660   47.9040  -18.3990 C   0  0  0  0  0  0
   21.6630   46.4390  -18.7180 C   0  0  1  0  0  0
   21.5490   45.6870  -17.4900 O   0  0  0  0  0  0
   20.6660   45.8280  -19.7060 C   0  0  1  0  0  0
   21.2600   44.6920  -20.3570 O   0  0  0  0  0  0
   19.6420   45.2510  -18.7410 C   0  0  1  0  0  0
   18.8840   44.1960  -19.3620 O   0  0  0  0  0  0
   20.5610   44.6890  -17.6800 C   0  0  2  0  0  0
   19.8780   44.3750  -16.4350 N   0  0  0  0  0  0
   19.0560   45.3180  -15.8240 C   0  0  0  0  0  0
   18.4130   45.0640  -14.5440 C   0  0  0  0  0  0
   17.7320   46.2170  -13.8990 C   0  0  0  0  0  0
   17.2370   45.9260  -12.7980 O   0  0  0  0  0  0
   17.6580   47.4710  -14.4380 N   0  0  0  0  0  0
   18.5660   43.7530  -13.9120 C   0  0  0  0  0  0
   19.4710   42.7970  -14.6370 C   0  0  0  0  0  0
   20.0370   43.1270  -15.7860 C   0  0  0  0  0  0
   21.7870   50.5476  -20.3772 H   0  0  0  0  0  0
   20.7805   51.4471  -21.5623 H   0  0  0  0  0  0
   23.0104   52.6258  -19.8552 H   0  0  0  0  0  0
   20.9629   54.1656  -21.1487 H   0  0  0  0  0  0
   22.4862   55.1726  -19.5768 H   0  0  0  0  0  0
   21.6787   53.2879  -23.4754 H   0  0  0  0  0  0
   21.5928   55.6962  -23.5832 H   0  0  0  0  0  0
   24.5854   53.8411  -22.2594 H   0  0  0  0  0  0
   22.3550   52.0040  -24.7920 H   0  0  0  0  0  0
   27.6990   50.8460  -27.8220 H   0  0  0  0  0  0
   28.6070   53.0290  -23.8460 H   0  0  0  0  0  0
   21.5702   48.5174  -19.3062 H   0  0  0  0  0  0
   22.1927   48.2392  -17.6443 H   0  0  0  0  0  0
   22.6719   46.3603  -19.1492 H   0  0  0  0  0  0
   20.3190   46.5024  -20.5028 H   0  0  0  0  0  0
   22.0441   44.8398  -21.1142 H   0  0  0  0  0  0
   18.8576   45.9394  -18.3935 H   0  0  0  0  0  0
   18.1638   44.4321  -20.1593 H   0  0  0  0  0  0
   21.0305   43.7362  -17.9660 H   0  0  0  0  0  0
   18.8987   46.2779  -16.3376 H   0  0  0  0  0  0
   18.1138   47.6763  -15.4178 H   0  0  0  0  0  0
   17.1426   48.2748  -13.8919 H   0  0  0  0  0  0
   18.0440   43.5070  -12.9710 H   0  0  0  0  0  0
   19.6594   41.8074  -14.1953 H   0  0  0  0  0  0
   20.6855   42.4069  -16.3065 H   0  0  0  0  0  0
   28.7957   51.9210  -26.0331 H   0  0  0  0  0  0
  1  2  2  0  0  0
  1  3  1  0  0  0
  1  4  1  0  0  0
  1 23  1  0  0  0
  4  5  1  0  0  0
  5  6  1  0  0  0
  5 45  1  0  0  0
  5 46  1  0  0  0
  6  7  1  0  0  0
  6  8  1  0  0  0
  6 47  1  0  0  0
  7 12  1  0  0  0
  8  9  1  0  0  0
  8 10  1  0  0  0
  8 48  1  0  0  0
  9 49  1  0  0  0
 10 11  1  0  0  0
 10 12  1  0  0  0
 10 50  1  0  0  0
 11 51  1  0  0  0
 12 13  1  0  0  0
 12 52  1  0  0  0
 13 14  1  0  0  0
 13 22  1  0  0  0
 14 15  2  0  0  0
 14 53  1  0  0  0
 15 16  1  0  0  0
 16 17  1  0  0  0
 16 22  2  0  0  0
 17 18  2  0  0  0
 17 19  1  0  0  0
 18 54  1  0  0  0
 19 20  1  0  0  0
 19 70  1  0  0  0
 20 21  2  0  0  0
 20 55  1  0  0  0
 21 22  1  0  0  0
 23 24  1  0  0  0
 24 25  2  0  0  0
 24 26  1  0  0  0
 24 27  1  0  0  0
 27 28  1  0  0  0
 28 29  1  0  0  0
 28 56  1  0  0  0
 28 57  1  0  0  0
 29 30  1  0  0  0
 29 31  1  0  0  0
 29 58  1  0  0  0
 30 35  1  0  0  0
 31 32  1  0  0  0
 31 33  1  0  0  0
 31 59  1  0  0  0
 32 60  1  0  0  0
 33 34  1  0  0  0
 33 35  1  0  0  0
 33 61  1  0  0  0
 34 62  1  0  0  0
 35 36  1  0  0  0
 35 63  1  0  0  0
 36 37  1  0  0  0
 36 44  1  0  0  0
 37 38  2  0  0  0
 37 64  1  0  0  0
 38 39  1  0  0  0
 38 42  1  0  0  0
 39 40  2  0  0  0
 39 41  1  0  0  0
 41 65  1  0  0  0
 41 66  1  0  0  0
 42 43  1  0  0  0
 42 67  1  0  0  0
 43 44  2  0  0  0
 43 68  1  0  0  0
 44 69  1  0  0  0
M  CHG  1   3  -1
M  END
> <s_m_source_file>
/cbio/jclab/home/rustenburg/PFK/Epik-Ligands/Results/InProgress/NICOTINAMIDE-ADENINE-DINUCLEOTIDE/pH_7.4/NICOTINAMIDE-ADENINE-DINUCLEOTIDE_pH_7.4-before_epik.mol2

> <i_m_source_file_index>
1

> <r_epik_Ionization_Penalty>
  1.9329

> <r_epik_Ionization_Penalty_Charging>
  1.9328

> <r_epik_Ionization_Penalty_Neutral>
  0.0001

> <r_epik_State_Penalty>
  3.1069

> <r_epik_Charging_Adjusted_Penalty>
5.03966356901087

> <i_epik_Tot_Q>
-1

> <i_epik_Tot_abs_Q>
1

> <s_epik_Chemistry_Notes>
This compound has an imine and may undergo hydrolysis. This compound contains an acetal/aminal-like group ( X-CH(R)-Y where X, Y are N, S, or O) that may be acid/base labile, releasing an aldehyde.

$$$$
NAD
                    3D
 Structure written by MMmdl.
 71 75  0  0  1  0            999 V2000
   19.2220   51.6360  -19.1860 P   0  0  0  0  0  0
   18.3400   51.7970  -20.3580 O   0  0  0  0  0  0
   18.8850   52.5330  -18.0510 O   0  5  0  0  0  0
   20.6820   52.1340  -19.5960 O   0  0  0  0  0  0
   21.4290   51.5430  -20.6790 C   0  0  0  0  0  0
   22.5290   52.5590  -20.8420 C   0  0  1  0  0  0
   23.4790   52.1310  -21.8670 O   0  0  0  0  0  0
   22.0160   53.9110  -21.3390 C   0  0  1  0  0  0
   22.6830   54.9990  -20.6450 O   0  0  0  0  0  0
   22.3910   53.7990  -22.8110 C   0  0  1  0  0  0
   22.4990   55.1030  -23.3910 O   0  0  0  0  0  0
   23.7870   53.1930  -22.6500 C   0  0  2  0  0  0
   24.2320   52.6270  -23.8880 N   0  0  0  0  0  0
   23.4560   52.0620  -24.8440 C   0  0  0  0  0  0
   24.1630   51.5750  -25.8700 N   0  0  0  0  0  0
   25.4680   51.8990  -25.5240 C   0  0  0  0  0  0
   26.6910   51.6480  -26.1780 C   0  0  0  0  0  0
   26.8140   51.0280  -27.3490 N   0  0  0  0  0  0
   27.8150   52.0740  -25.5590 N   0  3  0  0  0  0
   27.6880   52.6870  -24.3510 C   0  0  0  0  0  0
   26.5990   52.9420  -23.6710 N   0  0  0  0  0  0
   25.5200   52.5410  -24.3140 C   0  0  0  0  0  0
   19.2770   50.0880  -18.7990 O   0  0  0  0  0  0
   19.6010   49.4760  -17.3370 P   0  0  2  0  0  0
   18.4110   49.2370  -16.4750 O   0  0  0  0  0  0
   20.6660   50.3020  -16.6790 O   0  0  0  0  0  0
   20.1090   48.0460  -17.8670 O   0  0  0  0  0  0
   21.4660   47.9040  -18.3990 C   0  0  0  0  0  0
   21.6630   46.4390  -18.7180 C   0  0  1  0  0  0
   21.5490   45.6870  -17.4900 O   0  0  0  0  0  0
   20.6660   45.8280  -19.7060 C   0  0  1  0  0  0
   21.2600   44.6920  -20.3570 O   0  0  0  0  0  0
   19.6420   45.2510  -18.7410 C   0  0  1  0  0  0
   18.8840   44.1960  -19.3620 O   0  0  0  0  0  0
   20.5610   44.6890  -17.6800 C   0  0  2  0  0  0
   19.8780   44.3750  -16.4350 N   0  0  0  0  0  0
   19.0560   45.3180  -15.8240 C   0  0  0  0  0  0
   18.4130   45.0640  -14.5440 C   0  0  0  0  0  0
   17.7320   46.2170  -13.8990 C   0  0  0  0  0  0
   17.2370   45.9260  -12.7980 O   0  0  0  0  0  0
   17.6580   47.4710  -14.4380 N   0  0  0  0  0  0
   18.5660   43.7530  -13.9120 C   0  0  0  0  0  0
   19.4710   42.7970  -14.6370 C   0  0  0  0  0  0
   20.0370   43.1270  -15.7860 C   0  0  0  0  0  0
   21.7870   50.5476  -20.3772 H   0  0  0  0  0  0
   20.7805   51.4471  -21.5623 H   0  0  0  0  0  0
   23.0104   52.6258  -19.8552 H   0  0  0  0  0  0
   20.9629   54.1656  -21.1487 H   0  0  0  0  0  0
   22.4862   55.1726  -19.5768 H   0  0  0  0  0  0
   21.6787   53.2879  -23.4754 H   0  0  0  0  0  0
   21.5928   55.6962  -23.5832 H   0  0  0  0  0  0
   24.5854   53.8411  -22.2594 H   0  0  0  0  0  0
   22.3550   52.0040  -24.7920 H   0  0  0  0  0  0
   25.9188   50.6693  -27.8781 H   0  0  0  0  0  0
   27.8109   50.8742  -27.7879 H   0  0  0  0  0  0
   28.6070   53.0290  -23.8460 H   0  0  0  0  0  0
   21.5702   48.5174  -19.3062 H   0  0  0  0  0  0
   22.1927   48.2392  -17.6443 H   0  0  0  0  0  0
   22.6719   46.3603  -19.1492 H   0  0  0  0  0  0
   20.3190   46.5024  -20.5028 H   0  0  0  0  0  0
   22.0441   44.8398  -21.1142 H   0  0  0  0  0  0
   18.8576   45.9394  -18.3935 H   0  0  0  0  0  0
   18.1638   44.4321  -20.1593 H   0  0  0  0  0  0
   21.0305   43.7362  -17.9660 H   0  0  0  0  0  0
   18.8987   46.2779  -16.3376 H   0  0  0  0  0  0
   18.1138   47.6763  -15.4178 H   0  0  0  0  0  0
   17.1426   48.2748  -13.8919 H   0  0  0  0  0  0
   18.0440   43.5070  -12.9710 H   0  0  0  0  0  0
   19.6594   41.8074  -14.1953 H   0  0  0  0  0  0
   20.6855   42.4069  -16.3065 H   0  0  0  0  0  0
   28.7957   51.9210  -26.0331 H   0  0  0  0  0  0
  1  2  2  0  0  0
  1  3  1  0  0  0
  1  4  1  0  0  0
  1 23  1  0  0  0
  4  5  1  0  0  0
  5  6  1  0  0  0
  5 45  1  0  0  0
  5 46  1  0  0  0
  6  7  1  0  0  0
  6  8  1  0  0  0
  6 47  1  0  0  0
  7 12  1  0  0  0
  8  9  1  0  0  0
  8 10  1  0  0  0
  8 48  1  0  0  0
  9 49  1  0  0  0
 10 11  1  0  0  0
 10 12  1  0  0  0
 10 50  1  0  0  0
 11 51  1  0  0  0
 12 13  1  0  0  0
 12 52  1  0  0  0
 13 14  1  0  0  0
 13 22  1  0  0  0
 14 15  2  0  0  0
 14 53  1  0  0  0
 15 16  1  0  0  0
 16 17  1  0  0  0
 16 22  2  0  0  0
 17 18  1  0  0  0
 17 19  2  0  0  0
 18 54  1  0  0  0
 18 55  1  0  0  0
 19 20  1  0  0  0
 19 71  1  0  0  0
 20 21  2  0  0  0
 20 56  1  0  0  0
 21 22  1  0  0  0
 23 24  1  0  0  0
 24 25  2  0  0  0
 24 26  1  0  0  0
 24 27  1  0  0  0
 27 28  1  0  0  0
 28 29  1  0  0  0
 28 57  1  0  0  0
 28 58  1  0  0  0
 29 30  1  0  0  0
 29 31  1  0  0  0
 29 59  1  0  0  0
 30 35  1  0  0  0
 31 32  1  0  0  0
 31 33  1  0  0  0
 31 60  1  0  0  0
 32 61  1  0  0  0
 33 34  1  0  0  0
 33 35  1  0  0  0
 33 62  1  0  0  0
 34 63  1  0  0  0
 35 36  1  0  0  0
 35 64  1  0  0  0
 36 37  1  0  0  0
 36 44  1  0  0  0
 37 38  2  0  0  0
 37 65  1  0  0  0
 38 39  1  0  0  0
 38 42  1  0  0  0
 39 40  2  0  0  0
 39 41  1  0  0  0
 41 66  1  0  0  0
 41 67  1  0  0  0
 42 43  1  0  0  0
 42 68  1  0  0  0
 43 44  2  0  0  0
 43 69  1  0  0  0
 44 70  1  0  0  0
M  CHG  2   3  -1  19   1
M  END
> <s_m_source_file>
/cbio/jclab/home/rustenburg/PFK/Epik-Ligands/Results/InProgress/NICOTINAMIDE-ADENINE-DINUCLEOTIDE/pH_7.4/NICOTINAMIDE-ADENINE-DINUCLEOTIDE_pH_7.4-before_epik.mol2

> <i_m_source_file_index>
1

> <r_epik_Ionization_Penalty>
  6.8672

> <r_epik_Ionization_Penalty_Charging>
  4.8759

> <r_epik_Ionization_Penalty_Neutral>
  1.9913

> <r_epik_State_Penalty>
  5.2093

> <r_epik_Charging_Adjusted_Penalty>
10.0851917423666

> <i_epik_Tot_Q>
0

> <i_epik_Tot_abs_Q>
2

> <s_epik_Chemistry_Notes>
This compound has an imine and may undergo hydrolysis. This compound contains an acetal/aminal-like group ( X-CH(R)-Y where X, Y are N, S, or O) that may be acid/base labile, releasing an aldehyde.

$$$$
NAD
                    3D
 Structure written by MMmdl.
 69 73  0  0  1  0            999 V2000
   19.2220   51.6360  -19.1860 P   0  0  0  0  0  0
   18.3400   51.7970  -20.3580 O   0  0  0  0  0  0
   18.8850   52.5330  -18.0510 O   0  5  0  0  0  0
   20.6820   52.1340  -19.5960 O   0  0  0  0  0  0
   21.4290   51.5430  -20.6790 C   0  0  0  0  0  0
   22.5290   52.5590  -20.8420 C   0  0  1  0  0  0
   23.4790   52.1310  -21.8670 O   0  0  0  0  0  0
   22.0160   53.9110  -21.3390 C   0  0  1  0  0  0
   22.6830   54.9990  -20.6450 O   0  0  0  0  0  0
   22.3910   53.7990  -22.8110 C   0  0  1  0  0  0
   22.4990   55.1030  -23.3910 O   0  0  0  0  0  0
   23.7870   53.1930  -22.6500 C   0  0  2  0  0  0
   24.2320   52.6270  -23.8880 N   0  0  0  0  0  0
   23.4560   52.0620  -24.8440 C   0  0  0  0  0  0
   24.1630   51.5750  -25.8700 N   0  0  0  0  0  0
   25.4680   51.8990  -25.5240 C   0  0  0  0  0  0
   26.6910   51.6480  -26.1780 C   0  0  0  0  0  0
   26.8140   51.0280  -27.3490 N   0  0  0  0  0  0
   27.8150   52.0740  -25.5590 N   0  0  0  0  0  0
   27.6880   52.6870  -24.3510 C   0  0  0  0  0  0
   26.5990   52.9420  -23.6710 N   0  0  0  0  0  0
   25.5200   52.5410  -24.3140 C   0  0  0  0  0  0
   19.2770   50.0880  -18.7990 O   0  0  0  0  0  0
   19.6010   49.4760  -17.3370 P   0  0  2  0  0  0
   18.4110   49.2370  -16.4750 O   0  0  0  0  0  0
   20.6660   50.3020  -16.6790 O   0  0  0  0  0  0
   20.1090   48.0460  -17.8670 O   0  0  0  0  0  0
   21.4660   47.9040  -18.3990 C   0  0  0  0  0  0
   21.6630   46.4390  -18.7180 C   0  0  1  0  0  0
   21.5490   45.6870  -17.4900 O   0  0  0  0  0  0
   20.6660   45.8280  -19.7060 C   0  0  1  0  0  0
   21.2600   44.6920  -20.3570 O   0  0  0  0  0  0
   19.6420   45.2510  -18.7410 C   0  0  1  0  0  0
   18.8840   44.1960  -19.3620 O   0  5  0  0  0  0
   20.5610   44.6890  -17.6800 C   0  0  2  0  0  0
   19.8780   44.3750  -16.4350 N   0  0  0  0  0  0
   19.0560   45.3180  -15.8240 C   0  0  0  0  0  0
   18.4130   45.0640  -14.5440 C   0  0  0  0  0  0
   17.7320   46.2170  -13.8990 C   0  0  0  0  0  0
   17.2370   45.9260  -12.7980 O   0  0  0  0  0  0
   17.6580   47.4710  -14.4380 N   0  0  0  0  0  0
   18.5660   43.7530  -13.9120 C   0  0  0  0  0  0
   19.4710   42.7970  -14.6370 C   0  0  0  0  0  0
   20.0370   43.1270  -15.7860 C   0  0  0  0  0  0
   21.7870   50.5476  -20.3772 H   0  0  0  0  0  0
   20.7805   51.4471  -21.5623 H   0  0  0  0  0  0
   23.0104   52.6258  -19.8552 H   0  0  0  0  0  0
   20.9629   54.1656  -21.1487 H   0  0  0  0  0  0
   22.4862   55.1726  -19.5768 H   0  0  0  0  0  0
   21.6787   53.2879  -23.4754 H   0  0  0  0  0  0
   21.5928   55.6962  -23.5832 H   0  0  0  0  0  0
   24.5854   53.8411  -22.2594 H   0  0  0  0  0  0
   22.3550   52.0040  -24.7920 H   0  0  0  0  0  0
   25.9188   50.6693  -27.8781 H   0  0  0  0  0  0
   27.8109   50.8742  -27.7879 H   0  0  0  0  0  0
   28.6070   53.0290  -23.8460 H   0  0  0  0  0  0
   21.5702   48.5174  -19.3062 H   0  0  0  0  0  0
   22.1927   48.2392  -17.6443 H   0  0  0  0  0  0
   22.6719   46.3603  -19.1492 H   0  0  0  0  0  0
   20.3190   46.5024  -20.5028 H   0  0  0  0  0  0
   22.0441   44.8398  -21.1142 H   0  0  0  0  0  0
   18.8576   45.9394  -18.3935 H   0  0  0  0  0  0
   21.0305   43.7362  -17.9660 H   0  0  0  0  0  0
   18.8987   46.2779  -16.3376 H   0  0  0  0  0  0
   18.1138   47.6763  -15.4178 H   0  0  0  0  0  0
   17.1426   48.2748  -13.8919 H   0  0  0  0  0  0
   18.0440   43.5070  -12.9710 H   0  0  0  0  0  0
   19.6594   41.8074  -14.1953 H   0  0  0  0  0  0
   20.6855   42.4069  -16.3065 H   0  0  0  0  0  0
  1  2  2  0  0  0
  1  3  1  0  0  0
  1  4  1  0  0  0
  1 23  1  0  0  0
  4  5  1  0  0  0
  5  6  1  0  0  0
  5 45  1  0  0  0
  5 46  1  0  0  0
  6  7  1  0  0  0
  6  8  1  0  0  0
  6 47  1  0  0  0
  7 12  1  0  0  0
  8  9  1  0  0  0
  8 10  1  0  0  0
  8 48  1  0  0  0
  9 49  1  0  0  0
 10 11  1  0  0  0
 10 12  1  0  0  0
 10 50  1  0  0  0
 11 51  1  0  0  0
 12 13  1  0  0  0
 12 52  1  0  0  0
 13 14  1  0  0  0
 13 22  1  0  0  0
 14 15  2  0  0  0
 14 53  1  0  0  0
 15 16  1  0  0  0
 16 17  1  0  0  0
 16 22  2  0  0  0
 17 18  1  0  0  0
 17 19  2  0  0  0
 18 54  1  0  0  0
 18 55  1  0  0  0
 19 20  1  0  0  0
 20 21  2  0  0  0
 20 56  1  0  0  0
 21 22  1  0  0  0
 23 24  1  0  0  0
 24 25  2  0  0  0
 24 26  1  0  0  0
 24 27  1  0  0  0
 27 28  1  0  0  0
 28 29  1  0  0  0
 28 57  1  0  0  0
 28 58  1  0  0  0
 29 30  1  0  0  0
 29 31  1  0  0  0
 29 59  1  0  0  0
 30 35  1  0  0  0
 31 32  1  0  0  0
 31 33  1  0  0  0
 31 60  1  0  0  0
 32 61  1  0  0  0
 33 34  1  0  0  0
 33 35  1  0  0  0
 33 62  1  0  0  0
 35 36  1  0  0  0
 35 63  1  0  0  0
 36 37  1  0  0  0
 36 44  1  0  0  0
 37 38  2  0  0  0
 37 64  1  0  0  0
 38 39  1  0  0  0
 38 42  1  0  0  0
 39 40  2  0  0  0
 39 41  1  0  0  0
 41 65  1  0  0  0
 41 66  1  0  0  0
 42 43  1  0  0  0
 42 67  1  0  0  0
 43 44  2  0  0  0
 43 68  1  0  0  0
 44 69  1  0  0  0
M  CHG  2   3  -1  34  -1
M  END
> <s_m_source_file>
/cbio/jclab/home/rustenburg/PFK/Epik-Ligands/Results/InProgress/NICOTINAMIDE-ADENINE-DINUCLEOTIDE/pH_7.4/NICOTINAMIDE-ADENINE-DINUCLEOTIDE_pH_7.4-before_epik.mol2

> <i_m_source_file_index>
1

> <r_epik_Ionization_Penalty>
  5.3794

> <r_epik_Ionization_Penalty_Charging>
  5.3792

> <r_epik_Ionization_Penalty_Neutral>
  0.0002

> <r_epik_State_Penalty>
  5.7464

> <r_epik_Charging_Adjusted_Penalty>
11.1256713862666

> <i_epik_Tot_Q>
-2

> <i_epik_Tot_abs_Q>
2

> <s_epik_Chemistry_Notes>
This compound has an imine and may undergo hydrolysis. This compound contains an acetal/aminal-like group ( X-CH(R)-Y where X, Y are N, S, or O) that may be acid/base labile, releasing an aldehyde.

$$$$
NAD
                    3D
 Structure written by MMmdl.
 69 73  0  0  1  0            999 V2000
   19.2220   51.6360  -19.1860 P   0  0  0  0  0  0
   18.3400   51.7970  -20.3580 O   0  0  0  0  0  0
   18.8850   52.5330  -18.0510 O   0  5  0  0  0  0
   20.6820   52.1340  -19.5960 O   0  0  0  0  0  0
   21.4290   51.5430  -20.6790 C   0  0  0  0  0  0
   22.5290   52.5590  -20.8420 C   0  0  1  0  0  0
   23.4790   52.1310  -21.8670 O   0  0  0  0  0  0
   22.0160   53.9110  -21.3390 C   0  0  1  0  0  0
   22.6830   54.9990  -20.6450 O   0  0  0  0  0  0
   22.3910   53.7990  -22.8110 C   0  0  1  0  0  0
   22.4990   55.1030  -23.3910 O   0  0  0  0  0  0
   23.7870   53.1930  -22.6500 C   0  0  2  0  0  0
   24.2320   52.6270  -23.8880 N   0  0  0  0  0  0
   23.4560   52.0620  -24.8440 C   0  0  0  0  0  0
   24.1630   51.5750  -25.8700 N   0  0  0  0  0  0
   25.4680   51.8990  -25.5240 C   0  0  0  0  0  0
   26.6910   51.6480  -26.1780 C   0  0  0  0  0  0
   26.8140   51.0280  -27.3490 N   0  0  0  0  0  0
   27.8150   52.0740  -25.5590 N   0  0  0  0  0  0
   27.6880   52.6870  -24.3510 C   0  0  0  0  0  0
   26.5990   52.9420  -23.6710 N   0  0  0  0  0  0
   25.5200   52.5410  -24.3140 C   0  0  0  0  0  0
   19.2770   50.0880  -18.7990 O   0  0  0  0  0  0
   19.6010   49.4760  -17.3370 P   0  0  2  0  0  0
   18.4110   49.2370  -16.4750 O   0  0  0  0  0  0
   20.6660   50.3020  -16.6790 O   0  0  0  0  0  0
   20.1090   48.0460  -17.8670 O   0  0  0  0  0  0
   21.4660   47.9040  -18.3990 C   0  0  0  0  0  0
   21.6630   46.4390  -18.7180 C   0  0  1  0  0  0
   21.5490   45.6870  -17.4900 O   0  0  0  0  0  0
   20.6660   45.8280  -19.7060 C   0  0  1  0  0  0
   21.2600   44.6920  -20.3570 O   0  0  0  0  0  0
   19.6420   45.2510  -18.7410 C   0  0  1  0  0  0
   18.8840   44.1960  -19.3620 O   0  0  0  0  0  0
   20.5610   44.6890  -17.6800 C   0  0  2  0  0  0
   19.8780   44.3750  -16.4350 N   0  0  0  0  0  0
   19.0560   45.3180  -15.8240 C   0  0  0  0  0  0
   18.4130   45.0640  -14.5440 C   0  0  0  0  0  0
   17.7320   46.2170  -13.8990 C   0  0  0  0  0  0
   17.2370   45.9260  -12.7980 O   0  5  0  0  0  0
   17.6580   47.4710  -14.4380 N   0  0  0  0  0  0
   18.5660   43.7530  -13.9120 C   0  0  0  0  0  0
   19.4710   42.7970  -14.6370 C   0  0  0  0  0  0
   20.0370   43.1270  -15.7860 C   0  0  0  0  0  0
   21.7870   50.5476  -20.3772 H   0  0  0  0  0  0
   20.7805   51.4471  -21.5623 H   0  0  0  0  0  0
   23.0104   52.6258  -19.8552 H   0  0  0  0  0  0
   20.9629   54.1656  -21.1487 H   0  0  0  0  0  0
   22.4862   55.1726  -19.5768 H   0  0  0  0  0  0
   21.6787   53.2879  -23.4754 H   0  0  0  0  0  0
   21.5928   55.6962  -23.5832 H   0  0  0  0  0  0
   24.5854   53.8411  -22.2594 H   0  0  0  0  0  0
   22.3550   52.0040  -24.7920 H   0  0  0  0  0  0
   25.9188   50.6693  -27.8781 H   0  0  0  0  0  0
   27.8109   50.8742  -27.7879 H   0  0  0  0  0  0
   28.6070   53.0290  -23.8460 H   0  0  0  0  0  0
   21.5702   48.5174  -19.3062 H   0  0  0  0  0  0
   22.1927   48.2392  -17.6443 H   0  0  0  0  0  0
   22.6719   46.3603  -19.1492 H   0  0  0  0  0  0
   20.3190   46.5024  -20.5028 H   0  0  0  0  0  0
   22.0441   44.8398  -21.1142 H   0  0  0  0  0  0
   18.8576   45.9394  -18.3935 H   0  0  0  0  0  0
   18.1638   44.4321  -20.1593 H   0  0  0  0  0  0
   21.0305   43.7362  -17.9660 H   0  0  0  0  0  0
   18.8987   46.2779  -16.3376 H   0  0  0  0  0  0
   17.1426   48.2748  -13.8919 H   0  0  0  0  0  0
   18.0440   43.5070  -12.9710 H   0  0  0  0  0  0
   19.6594   41.8074  -14.1953 H   0  0  0  0  0  0
   20.6855   42.4069  -16.3065 H   0  0  0  0  0  0
  1  2  2  0  0  0
  1  3  1  0  0  0
  1  4  1  0  0  0
  1 23  1  0  0  0
  4  5  1  0  0  0
  5  6  1  0  0  0
  5 45  1  0  0  0
  5 46  1  0  0  0
  6  7  1  0  0  0
  6  8  1  0  0  0
  6 47  1  0  0  0
  7 12  1  0  0  0
  8  9  1  0  0  0
  8 10  1  0  0  0
  8 48  1  0  0  0
  9 49  1  0  0  0
 10 11  1  0  0  0
 10 12  1  0  0  0
 10 50  1  0  0  0
 11 51  1  0  0  0
 12 13  1  0  0  0
 12 52  1  0  0  0
 13 14  1  0  0  0
 13 22  1  0  0  0
 14 15  2  0  0  0
 14 53  1  0  0  0
 15 16  1  0  0  0
 16 17  1  0  0  0
 16 22  2  0  0  0
 17 18  1  0  0  0
 17 19  2  0  0  0
 18 54  1  0  0  0
 18 55  1  0  0  0
 19 20  1  0  0  0
 20 21  2  0  0  0
 20 56  1  0  0  0
 21 22  1  0  0  0
 23 24  1  0  0  0
 24 25  2  0  0  0
 24 26  1  0  0  0
 24 27  1  0  0  0
 27 28  1  0  0  0
 28 29  1  0  0  0
 28 57  1  0  0  0
 28 58  1  0  0  0
 29 30  1  0  0  0
 29 31  1  0  0  0
 29 59  1  0  0  0
 30 35  1  0  0  0
 31 32  1  0  0  0
 31 33  1  0  0  0
 31 60  1  0  0  0
 32 61  1  0  0  0
 33 34  1  0  0  0
 33 35  1  0  0  0
 33 62  1  0  0  0
 34 63  1  0  0  0
 35 36  1  0  0  0
 35 64  1  0  0  0
 36 37  1  0  0  0
 36 44  1  0  0  0
 37 38  2  0  0  0
 37 65  1  0  0  0
 38 39  1  0  0  0
 38 42  1  0  0  0
 39 40  1  0  0  0
 39 41  2  0  0  0
 41 66  1  0  0  0
 42 43  1  0  0  0
 42 67  1  0  0  0
 43 44  2  0  0  0
 43 68  1  0  0  0
 44 69  1  0  0  0
M  CHG  2   3  -1  40  -1
M  END
> <s_m_source_file>
/cbio/jclab/home/rustenburg/PFK/Epik-Ligands/Results/InProgress/NICOTINAMIDE-ADENINE-DINUCLEOTIDE/pH_7.4/NICOTINAMIDE-ADENINE-DINUCLEOTIDE_pH_7.4-before_epik.mol2

> <i_m_source_file_index>
1

> <r_epik_Ionization_Penalty>
  5.5372

> <r_epik_Ionization_Penalty_Charging>
  5.5370

> <r_epik_Ionization_Penalty_Neutral>
  0.0002

> <r_epik_State_Penalty>
  5.9148

> <r_epik_Charging_Adjusted_Penalty>
11.4517505150883

> <i_epik_Tot_Q>
-2

> <i_epik_Tot_abs_Q>
2

> <s_epik_Chemistry_Notes>
This compound has an imine and may undergo hydrolysis. This compound contains an acetal/aminal-like group ( X-CH(R)-Y where X, Y are N, S, or O) that may be acid/base labile, releasing an aldehyde.

$$$$
NAD
                    3D
 Structure written by MMmdl.
 69 73  0  0  1  0            999 V2000
   19.2220   51.6360  -19.1860 P   0  0  0  0  0  0
   18.3400   51.7970  -20.3580 O   0  0  0  0  0  0
   18.8850   52.5330  -18.0510 O   0  5  0  0  0  0
   20.6820   52.1340  -19.5960 O   0  0  0  0  0  0
   21.4290   51.5430  -20.6790 C   0  0  0  0  0  0
   22.5290   52.5590  -20.8420 C   0  0  1  0  0  0
   23.4790   52.1310  -21.8670 O   0  0  0  0  0  0
   22.0160   53.9110  -21.3390 C   0  0  1  0  0  0
   22.6830   54.9990  -20.6450 O   0  0  0  0  0  0
   22.3910   53.7990  -22.8110 C   0  0  1  0  0  0
   22.4990   55.1030  -23.3910 O   0  0  0  0  0  0
   23.7870   53.1930  -22.6500 C   0  0  2  0  0  0
   24.2320   52.6270  -23.8880 N   0  0  0  0  0  0
   23.4560   52.0620  -24.8440 C   0  0  0  0  0  0
   24.1630   51.5750  -25.8700 N   0  0  0  0  0  0
   25.4680   51.8990  -25.5240 C   0  0  0  0  0  0
   26.6910   51.6480  -26.1780 C   0  0  0  0  0  0
   26.8140   51.0280  -27.3490 N   0  0  0  0  0  0
   27.8150   52.0740  -25.5590 N   0  0  0  0  0  0
   27.6880   52.6870  -24.3510 C   0  0  0  0  0  0
   26.5990   52.9420  -23.6710 N   0  0  0  0  0  0
   25.5200   52.5410  -24.3140 C   0  0  0  0  0  0
   19.2770   50.0880  -18.7990 O   0  0  0  0  0  0
   19.6010   49.4760  -17.3370 P   0  0  2  0  0  0
   18.4110   49.2370  -16.4750 O   0  0  0  0  0  0
   20.6660   50.3020  -16.6790 O   0  0  0  0  0  0
   20.1090   48.0460  -17.8670 O   0  0  0  0  0  0
   21.4660   47.9040  -18.3990 C   0  0  0  0  0  0
   21.6630   46.4390  -18.7180 C   0  0  1  0  0  0
   21.5490   45.6870  -17.4900 O   0  0  0  0  0  0
   20.6660   45.8280  -19.7060 C   0  0  1  0  0  0
   21.2600   44.6920  -20.3570 O   0  0  0  0  0  0
   19.6420   45.2510  -18.7410 C   0  0  1  0  0  0
   18.8840   44.1960  -19.3620 O   0  0  0  0  0  0
   20.5610   44.6890  -17.6800 C   0  0  2  0  0  0
   19.8780   44.3750  -16.4350 N   0  0  0  0  0  0
   19.0560   45.3180  -15.8240 C   0  0  0  0  0  0
   18.4130   45.0640  -14.5440 C   0  0  0  0  0  0
   17.7320   46.2170  -13.8990 C   0  0  0  0  0  0
   17.2370   45.9260  -12.7980 O   0  5  0  0  0  0
   17.6580   47.4710  -14.4380 N   0  0  0  0  0  0
   18.5660   43.7530  -13.9120 C   0  0  0  0  0  0
   19.4710   42.7970  -14.6370 C   0  0  0  0  0  0
   20.0370   43.1270  -15.7860 C   0  0  0  0  0  0
   21.7870   50.5476  -20.3772 H   0  0  0  0  0  0
   20.7805   51.4471  -21.5623 H   0  0  0  0  0  0
   23.0104   52.6258  -19.8552 H   0  0  0  0  0  0
   20.9629   54.1656  -21.1487 H   0  0  0  0  0  0
   22.4862   55.1726  -19.5768 H   0  0  0  0  0  0
   21.6787   53.2879  -23.4754 H   0  0  0  0  0  0
   21.5928   55.6962  -23.5832 H   0  0  0  0  0  0
   24.5854   53.8411  -22.2594 H   0  0  0  0  0  0
   22.3550   52.0040  -24.7920 H   0  0  0  0  0  0
   25.9188   50.6693  -27.8781 H   0  0  0  0  0  0
   27.8109   50.8742  -27.7879 H   0  0  0  0  0  0
   28.6070   53.0290  -23.8460 H   0  0  0  0  0  0
   21.5702   48.5174  -19.3062 H   0  0  0  0  0  0
   22.1927   48.2392  -17.6443 H   0  0  0  0  0  0
   22.6719   46.3603  -19.1492 H   0  0  0  0  0  0
   20.3190   46.5024  -20.5028 H   0  0  0  0  0  0
   22.0441   44.8398  -21.1142 H   0  0  0  0  0  0
   18.8576   45.9394  -18.3935 H   0  0  0  0  0  0
   18.1638   44.4321  -20.1593 H   0  0  0  0  0  0
   21.0305   43.7362  -17.9660 H   0  0  0  0  0  0
   18.8987   46.2779  -16.3376 H   0  0  0  0  0  0
   18.1138   47.6763  -15.4178 H   0  0  0  0  0  0
   18.0440   43.5070  -12.9710 H   0  0  0  0  0  0
   19.6594   41.8074  -14.1953 H   0  0  0  0  0  0
   20.6855   42.4069  -16.3065 H   0  0  0  0  0  0
  1  2  2  0  0  0
  1  3  1  0  0  0
  1  4  1  0  0  0
  1 23  1  0  0  0
  4  5  1  0  0  0
  5  6  1  0  0  0
  5 45  1  0  0  0
  5 46  1  0  0  0
  6  7  1  0  0  0
  6  8  1  0  0  0
  6 47  1  0  0  0
  7 12  1  0  0  0
  8  9  1  0  0  0
  8 10  1  0  0  0
  8 48  1  0  0  0
  9 49  1  0  0  0
 10 11  1  0  0  0
 10 12  1  0  0  0
 10 50  1  0  0  0
 11 51  1  0  0  0
 12 13  1  0  0  0
 12 52  1  0  0  0
 13 14  1  0  0  0
 13 22  1  0  0  0
 14 15  2  0  0  0
 14 53  1  0  0  0
 15 16  1  0  0  0
 16 17  1  0  0  0
 16 22  2  0  0  0
 17 18  1  0  0  0
 17 19  2  0  0  0
 18 54  1  0  0  0
 18 55  1  0  0  0
 19 20  1  0  0  0
 20 21  2  0  0  0
 20 56  1  0  0  0
 21 22  1  0  0  0
 23 24  1  0  0  0
 24 25  2  0  0  0
 24 26  1  0  0  0
 24 27  1  0  0  0
 27 28  1  0  0  0
 28 29  1  0  0  0
 28 57  1  0  0  0
 28 58  1  0  0  0
 29 30  1  0  0  0
 29 31  1  0  0  0
 29 59  1  0  0  0
 30 35  1  0  0  0
 31 32  1  0  0  0
 31 33  1  0  0  0
 31 60  1  0  0  0
 32 61  1  0  0  0
 33 34  1  0  0  0
 33 35  1  0  0  0
 33 62  1  0  0  0
 34 63  1  0  0  0
 35 36  1  0  0  0
 35 64  1  0  0  0
 36 37  1  0  0  0
 36 44  1  0  0  0
 37 38  2  0  0  0
 37 65  1  0  0  0
 38 39  1  0  0  0
 38 42  1  0  0  0
 39 40  1  0  0  0
 39 41  2  0  0  0
 41 66  1  0  0  0
 42 43  1  0  0  0
 42 67  1  0  0  0
 43 44  2  0  0  0
 43 68  1  0  0  0
 44 69  1  0  0  0
M  CHG  2   3  -1  40  -1
M  END
> <s_m_source_file>
/cbio/jclab/home/rustenburg/PFK/Epik-Ligands/Results/InProgress/NICOTINAMIDE-ADENINE-DINUCLEOTIDE/pH_7.4/NICOTINAMIDE-ADENINE-DINUCLEOTIDE_pH_7.4-before_epik.mol2

> <i_m_source_file_index>
1

> <r_epik_Ionization_Penalty>
  5.5372

> <r_epik_Ionization_Penalty_Charging>
  5.5370

> <r_epik_Ionization_Penalty_Neutral>
  0.0002

> <r_epik_State_Penalty>
  5.9148

> <r_epik_Charging_Adjusted_Penalty>
11.4517505150883

> <i_epik_Tot_Q>
-2

> <i_epik_Tot_abs_Q>
2

> <s_epik_Chemistry_Notes>
This compound has an imine and may undergo hydrolysis. This compound contains an acetal/aminal-like group ( X-CH(R)-Y where X, Y are N, S, or O) that may be acid/base labile, releasing an aldehyde.

$$$$
