@<TRIPOS>MOLECULE
[5-(6-aminopurin-9-yl)-2-[[[[3-hydroxy-2,2-dimethyl-4-oxo-4-[[3-oxo-3-(2-sulfanylethylamino)propyl]amino]butoxy]-oxido-phosphoryl]oxy-oxido-phosphoryl]oxymethyl]-4-oxido-tetrahydrofuran-3-yl] phosphate
   79    81     1     0     0
SMALL
USER_CHARGES

@<TRIPOS>ATOM
      1 N1A         5.7146    2.0302   -0.7890 N.ar      1 COA        -0.5260
      2 C2A         4.3962    2.1571   -0.5034 C.ar      1 COA         0.6629
      3 N3A         3.3299    1.7526   -1.2276 N.ar      1 COA        -0.5260
      4 C4A         3.7311    1.1587   -2.3614 C.ar      1 COA         0.5212
      5 C5A         5.0346    0.9576   -2.7868 C.ar      1 COA         0.0088
      6 C6A         6.0470    1.4195   -1.9517 C.ar      1 COA         0.5212
      7 N6A         7.3978    1.2581   -2.3043 N.pl3     1 COA        -0.6025
      8 N7A         5.0562    0.3154   -3.9993 N.2       1 COA        -0.4271
      9 C8A         3.7892    0.1293   -4.3054 C.ar      1 COA         0.5691
     10 N9A         2.9479    0.6234   -3.3440 N.pl3     1 COA        -0.5033
     11 C1B         1.4328    0.5815   -3.3775 C.3       1 COA         0.2693
     12 C2B         0.6799   -0.1567   -2.2458 C.3       1 COA         0.2008
     13 O2B         0.5449   -1.4388   -2.5302 O.co2     1 COA        -0.1615
     14 C3B        -0.6749    0.5672   -2.2968 C.3       1 COA         0.1111
     15 O3B        -1.4782    0.1594   -3.4088 O.3       1 COA         0.1618
     16 P3B        -3.0996    0.4363   -3.3454 P.3       1 COA        -1.1921
     17 O7A        -3.5828   -0.3425   -2.1254 O.co2     1 COA         0.3195
     18 O8A        -3.6001   -0.1211   -4.6746 O.co2     1 COA         0.3195
     19 O9A        -3.2339    1.9510   -3.2185 O.co2     1 COA         0.3195
     20 C4B        -0.2635    2.0121   -2.5599 C.3       1 COA         0.1111
     21 O4B         0.9490    1.9478   -3.3354 O.3       1 COA        -0.1436
     22 C5B         0.0275    2.8029   -1.2913 C.3       1 COA         0.1504
     23 O5B         0.3986    4.1249   -1.6460 O.3       1 COA         0.1618
     24 P1A         0.7670    5.1936   -0.4641 P.3       1 COA        -1.1062
     25 O1A         1.1289    6.5260   -1.0837 O.co2     1 COA         0.3195
     26 O2A         1.6876    4.5161    0.5275 O.co2     1 COA         0.3195
     27 O3A        -0.6886    5.3125    0.2679 O.3       1 COA         0.4672
     28 P2A        -1.1429    6.2040    1.5594 P.3       1 COA        -1.1062
     29 O4A        -2.6377    6.0612    1.7476 O.co2     1 COA         0.3195
     30 O5A        -0.1888    5.9134    2.6974 O.co2     1 COA         0.3195
     31 O6A        -0.8065    7.6957    0.9792 O.3       1 COA         0.1618
     32 CBP        -1.0090    9.5771   -0.5793 C.3       1 COA         0.0000
     33 CCP        -1.4652    8.1470   -0.1994 C.3       1 COA         0.1504
     34 CDP         0.5182    9.5632   -0.8289 C.3       1 COA         0.1179
     35 CEP        -1.6888   10.0085   -1.8940 C.3       1 COA         0.1179
     36 CAP        -1.3149   10.5877    0.5658 C.3       1 COA         0.0611
     37 OAP        -0.8841   11.8921    0.1862 O.3       1 COA        -0.2728
     38 C9P        -2.7940   10.7032    0.9282 C.2       1 COA         0.3561
     39 O9P        -3.5554   11.4723    0.3443 O.2       1 COA        -0.2391
     40 N8P        -3.1652    9.8410    1.9474 N.am      1 COA        -0.1909
     41 C7P        -4.5178    9.7490    2.4468 C.3       1 COA         0.1160
     42 C6P        -5.2856    8.6982    1.6581 C.3       1 COA         0.0286
     43 C5P        -6.7198    8.5504    2.1335 C.2       1 COA         0.3561
     44 O5P        -7.1941    9.2100    3.0543 O.2       1 COA        -0.2391
     45 N4P        -7.4027    7.5889    1.4032 N.am      1 COA        -0.1909
     46 C3P        -8.7846    7.2479    1.6513 C.3       1 COA         0.1160
     47 C2P        -8.9411    6.1267    2.6655 C.3       1 COA         0.2607
     48 S1P        -8.1271    4.5916    2.1284 S.3       1 COA        -0.3539
     49 H2A         4.1666    2.6505    0.4351 H         1 COA        -0.1369
     50 H61A        8.1108    1.6399   -1.7121 H         1 COA         0.2048
     51 H62A        7.6305    0.8472   -3.1886 H         1 COA         0.2048
     52 H8A         3.4224   -0.3522   -5.2016 H         1 COA        -0.1292
     53 H1B         1.1905    0.2000   -4.4133 H         1 COA        -0.0393
     54 H2B         1.1486    0.1388   -1.2941 H         1 COA        -0.0393
     55 H3B        -1.2745    0.4471   -1.3878 H         1 COA        -0.0393
     56 H4B        -1.0100    2.5497   -3.1559 H         1 COA        -0.0393
     57 H51A        0.8489    2.3441   -0.7330 H         1 COA        -0.0393
     58 H52A       -0.8601    2.8452   -0.6531 H         1 COA        -0.0393
     59 H121       -1.2324    7.4355   -0.9984 H         1 COA        -0.0393
     60 H122       -2.5440    8.1138   -0.0133 H         1 COA        -0.0393
     61 H131        0.8796   10.5616   -1.1013 H         1 COA        -0.0393
     62 H132        0.7886    8.8842   -1.6454 H         1 COA        -0.0393
     63 H133        1.0681    9.2399    0.0618 H         1 COA        -0.0393
     64 H141       -1.3855   11.0192   -2.1904 H         1 COA        -0.0393
     65 H142       -2.7797   10.0132   -1.7903 H         1 COA        -0.0393
     66 H143       -1.4280    9.3402   -2.7211 H         1 COA        -0.0393
     67 H10        -0.7524   10.3112    1.4665 H         1 COA        -0.0393
     68 HO1        -1.3767   12.1229   -0.6167 H         1 COA         0.2010
     69 HN8        -2.4720    9.2197    2.3532 H         1 COA         0.0865
     70 H71        -4.4918    9.4911    3.5103 H         1 COA        -0.0393
     71 H72        -5.0009   10.7274    2.3591 H         1 COA        -0.0393
     72 H61        -4.7899    7.7236    1.7475 H         1 COA        -0.0393
     73 H62        -5.3000    8.9626    0.5933 H         1 COA        -0.0393
     74 HN4        -6.9090    7.1027    0.6604 H         1 COA         0.0865
     75 H31        -9.2593    8.1564    2.0310 H         1 COA        -0.0393
     76 H32        -9.2429    7.0035    0.6897 H         1 COA        -0.0393
     77 H21        -8.5287    6.4159    3.6376 H         1 COA        -0.0393
     78 H22       -10.0049    5.9075    2.8005 H         1 COA        -0.0393
     79 HS1        -6.8946    5.1096    2.0465 H         1 COA         0.1718
@<TRIPOS>BOND
     1    1    2 ar
     2    1    6 ar
     3    2    3 ar
     4    2   49 1
     5    3    4 ar
     6    4    5 ar
     7    4   10 ar
     8    5    6 ar
     9    5    8 ar
    10    6    7 1
    11    7   50 1
    12    7   51 1
    13    8    9 ar
    14    9   10 ar
    15    9   52 1
    16   10   11 1
    17   11   12 1
    18   11   21 1
    19   11   53 1
    20   12   13 1
    21   12   14 1
    22   12   54 1
    23   14   15 1
    24   14   20 1
    25   14   55 1
    26   15   16 1
    27   16   17 2
    28   16   18 1
    29   16   19 1
    30   20   21 1
    31   20   22 1
    32   20   56 1
    33   22   23 1
    34   22   57 1
    35   22   58 1
    36   23   24 1
    37   24   25 2
    38   24   26 1
    39   24   27 1
    40   27   28 1
    41   28   29 2
    42   28   30 1
    43   28   31 1
    44   31   33 1
    45   32   33 1
    46   32   34 1
    47   32   35 1
    48   32   36 1
    49   33   59 1
    50   33   60 1
    51   34   61 1
    52   34   62 1
    53   34   63 1
    54   35   64 1
    55   35   65 1
    56   35   66 1
    57   36   37 1
    58   36   38 1
    59   36   67 1
    60   37   68 1
    61   38   39 2
    62   38   40 am
    63   40   41 1
    64   40   69 1
    65   41   42 1
    66   41   70 1
    67   41   71 1
    68   42   43 1
    69   42   72 1
    70   42   73 1
    71   43   44 2
    72   43   45 am
    73   45   46 1
    74   45   74 1
    75   46   47 1
    76   46   75 1
    77   46   76 1
    78   47   48 1
    79   47   77 1
    80   47   78 1
    81   48   79 1
@<TRIPOS>SUBSTRUCTURE
     1 COA         1 GROUP 0 A     ****
@<TRIPOS>MOLECULE
[5-(6-aminopurin-9-yl)-2-[[[[3-hydroxy-2,2-dimethyl-4-oxo-4-[[3-oxo-3-(2-sulfanylethylamino)propyl]amino]butoxy]-oxido-phosphoryl]oxy-oxido-phosphoryl]oxymethyl]-4-oxido-tetrahydrofuran-3-yl] phosphate
   79    81     1     0     0
SMALL
USER_CHARGES

@<TRIPOS>ATOM
      1 N1A         6.3197    3.3711    0.1967 N.ar      1 COA        -0.5260
      2 C2A         5.0033    3.3256    0.5141 C.ar      1 COA         0.6629
      3 N3A         4.0730    2.4196    0.1418 N.ar      1 COA        -0.5260
      4 C4A         4.6208    1.4811   -0.6447 C.ar      1 COA         0.5212
      5 C5A         5.9423    1.3962   -1.0530 C.ar      1 COA         0.0088
      6 C6A         6.8050    2.3902   -0.6021 C.ar      1 COA         0.5212
      7 N6A         8.1621    2.3826   -0.9671 N.pl3     1 COA        -0.6025
      8 N7A         6.1335    0.2987   -1.8543 N.2       1 COA        -0.4271
      9 C8A         4.9500   -0.2731   -1.9316 C.ar      1 COA         0.5691
     10 N9A         4.0006    0.4065   -1.2155 N.pl3     1 COA        -0.5033
     11 C1B         2.5376    0.0288   -1.0907 C.3       1 COA         0.2693
     12 C2B         1.9579   -0.2640    0.3131 C.3       1 COA         0.2008
     13 O2B         2.1299   -1.5323    0.6368 O.co2     1 COA        -0.1615
     14 C3B         0.4729    0.0487    0.0699 C.3       1 COA         0.1111
     15 O3B        -0.1943   -0.9780   -0.6709 O.3       1 COA         0.1618
     16 P3B        -1.8364   -1.0586   -0.5907 P.3       1 COA        -1.1921
     17 O7A        -2.1459   -1.2889    0.8856 O.co2     1 COA         0.3195
     18 O8A        -2.1706   -2.2476   -1.4866 O.co2     1 COA         0.3195
     19 O9A        -2.3217    0.2823   -1.1335 O.co2     1 COA         0.3195
     20 C4B         0.5412    1.2713   -0.8394 C.3       1 COA         0.1111
     21 O4B         1.7485    1.1278   -1.6124 O.3       1 COA        -0.1436
     22 C5B         0.6184    2.5901   -0.0816 C.3       1 COA         0.1504
     23 O5B         0.6777    3.6562   -1.0149 O.3       1 COA         0.1618
     24 P1A         0.7670    5.1936   -0.4641 P.3       1 COA        -1.1062
     25 O1A         0.8194    6.1476   -1.6376 O.co2     1 COA         0.3195
     26 O2A         1.8029    5.2507    0.6375 O.co2     1 COA         0.3195
     27 O3A        -0.6886    5.3125    0.2679 O.3       1 COA         0.4672
     28 P2A        -1.1429    6.2040    1.5594 P.3       1 COA        -1.1062
     29 O4A        -2.6377    6.0612    1.7476 O.co2     1 COA         0.3195
     30 O5A        -0.1888    5.9134    2.6974 O.co2     1 COA         0.3195
     31 O6A        -0.8065    7.6957    0.9792 O.3       1 COA         0.1618
     32 CBP        -1.0090    9.5771   -0.5793 C.3       1 COA         0.0000
     33 CCP        -1.4652    8.1470   -0.1994 C.3       1 COA         0.1504
     34 CDP         0.5182    9.5632   -0.8289 C.3       1 COA         0.1179
     35 CEP        -1.6888   10.0085   -1.8940 C.3       1 COA         0.1179
     36 CAP        -1.3149   10.5877    0.5658 C.3       1 COA         0.0611
     37 OAP        -0.8841   11.8921    0.1862 O.3       1 COA        -0.2728
     38 C9P        -2.7940   10.7032    0.9282 C.2       1 COA         0.3561
     39 O9P        -3.5554   11.4723    0.3443 O.2       1 COA        -0.2391
     40 N8P        -3.1652    9.8410    1.9474 N.am      1 COA        -0.1909
     41 C7P        -4.5178    9.7490    2.4468 C.3       1 COA         0.1160
     42 C6P        -5.2856    8.6982    1.6581 C.3       1 COA         0.0286
     43 C5P        -6.7198    8.5504    2.1335 C.2       1 COA         0.3561
     44 O5P        -7.1941    9.2100    3.0543 O.2       1 COA        -0.2391
     45 N4P        -7.4027    7.5889    1.4032 N.am      1 COA        -0.1909
     46 C3P        -8.7846    7.2479    1.6513 C.3       1 COA         0.1160
     47 C2P        -9.7539    8.0913    0.8393 C.3       1 COA         0.2607
     48 S1P        -9.4979    7.9049   -0.9516 S.3       1 COA        -0.3539
     49 H2A         4.6492    4.1260    1.1552 H         1 COA        -0.1369
     50 H61A        8.7564    3.1335   -0.6708 H         1 COA         0.2048
     51 H62A        8.4991    1.6788   -1.5963 H         1 COA         0.2048
     52 H8A         4.7208   -1.1726   -2.4865 H         1 COA        -0.1292
     53 H1B         2.4085   -0.8200   -1.8256 H         1 COA        -0.0393
     54 H2B         2.3286    0.5212    0.9904 H         1 COA        -0.0393
     55 H3B        -0.0977    0.2245    0.9885 H         1 COA        -0.0393
     56 H4B        -0.2996    1.3083   -1.5416 H         1 COA        -0.0393
     57 H51A        1.5144    2.6204    0.5455 H         1 COA        -0.0393
     58 H52A       -0.2654    2.7227    0.5494 H         1 COA        -0.0393
     59 H121       -1.2324    7.4355   -0.9984 H         1 COA        -0.0393
     60 H122       -2.5440    8.1138   -0.0133 H         1 COA        -0.0393
     61 H131        0.8796   10.5616   -1.1013 H         1 COA        -0.0393
     62 H132        0.7886    8.8842   -1.6454 H         1 COA        -0.0393
     63 H133        1.0681    9.2399    0.0618 H         1 COA        -0.0393
     64 H141       -1.3855   11.0192   -2.1904 H         1 COA        -0.0393
     65 H142       -2.7797   10.0132   -1.7903 H         1 COA        -0.0393
     66 H143       -1.4280    9.3402   -2.7211 H         1 COA        -0.0393
     67 H10        -0.7524   10.3112    1.4665 H         1 COA        -0.0393
     68 HO1        -1.3767   12.1229   -0.6167 H         1 COA         0.2010
     69 HN8        -2.4720    9.2197    2.3532 H         1 COA         0.0865
     70 H71        -4.4918    9.4911    3.5103 H         1 COA        -0.0393
     71 H72        -5.0009   10.7274    2.3591 H         1 COA        -0.0393
     72 H61        -4.7899    7.7236    1.7475 H         1 COA        -0.0393
     73 H62        -5.3000    8.9626    0.5933 H         1 COA        -0.0393
     74 HN4        -6.9090    7.1027    0.6604 H         1 COA         0.0865
     75 H31        -8.8929    6.1955    1.3764 H         1 COA        -0.0393
     76 H32        -8.9592    7.3361    2.7266 H         1 COA        -0.0393
     77 H21       -10.7915    7.8290    1.0703 H         1 COA        -0.0393
     78 H22        -9.6084    9.1475    1.0863 H         1 COA        -0.0393
     79 HS1        -8.2310    8.3401   -0.9565 H         1 COA         0.1718
@<TRIPOS>BOND
     1    1    2 ar
     2    1    6 ar
     3    2    3 ar
     4    2   49 1
     5    3    4 ar
     6    4    5 ar
     7    4   10 ar
     8    5    6 ar
     9    5    8 ar
    10    6    7 1
    11    7   50 1
    12    7   51 1
    13    8    9 ar
    14    9   10 ar
    15    9   52 1
    16   10   11 1
    17   11   12 1
    18   11   21 1
    19   11   53 1
    20   12   13 1
    21   12   14 1
    22   12   54 1
    23   14   15 1
    24   14   20 1
    25   14   55 1
    26   15   16 1
    27   16   17 2
    28   16   18 1
    29   16   19 1
    30   20   21 1
    31   20   22 1
    32   20   56 1
    33   22   23 1
    34   22   57 1
    35   22   58 1
    36   23   24 1
    37   24   25 2
    38   24   26 1
    39   24   27 1
    40   27   28 1
    41   28   29 2
    42   28   30 1
    43   28   31 1
    44   31   33 1
    45   32   33 1
    46   32   34 1
    47   32   35 1
    48   32   36 1
    49   33   59 1
    50   33   60 1
    51   34   61 1
    52   34   62 1
    53   34   63 1
    54   35   64 1
    55   35   65 1
    56   35   66 1
    57   36   37 1
    58   36   38 1
    59   36   67 1
    60   37   68 1
    61   38   39 2
    62   38   40 am
    63   40   41 1
    64   40   69 1
    65   41   42 1
    66   41   70 1
    67   41   71 1
    68   42   43 1
    69   42   72 1
    70   42   73 1
    71   43   44 2
    72   43   45 am
    73   45   46 1
    74   45   74 1
    75   46   47 1
    76   46   75 1
    77   46   76 1
    78   47   48 1
    79   47   77 1
    80   47   78 1
    81   48   79 1
@<TRIPOS>SUBSTRUCTURE
     1 COA         1 GROUP 0 A     ****
@<TRIPOS>MOLECULE
[5-(6-aminopurin-9-yl)-2-[[[[3-hydroxy-2,2-dimethyl-4-oxo-4-[[3-oxo-3-(2-sulfanylethylamino)propyl]amino]butoxy]-oxido-phosphoryl]oxy-oxido-phosphoryl]oxymethyl]-4-oxido-tetrahydrofuran-3-yl] phosphate
   79    81     1     0     0
SMALL
USER_CHARGES

@<TRIPOS>ATOM
      1 N1A         5.7146    2.0302   -0.7890 N.ar      1 COA        -0.5260
      2 C2A         4.3962    2.1571   -0.5034 C.ar      1 COA         0.6629
      3 N3A         3.3299    1.7526   -1.2276 N.ar      1 COA        -0.5260
      4 C4A         3.7311    1.1587   -2.3614 C.ar      1 COA         0.5212
      5 C5A         5.0346    0.9576   -2.7868 C.ar      1 COA         0.0088
      6 C6A         6.0470    1.4195   -1.9517 C.ar      1 COA         0.5212
      7 N6A         7.3978    1.2581   -2.3043 N.pl3     1 COA        -0.6025
      8 N7A         5.0562    0.3154   -3.9993 N.2       1 COA        -0.4271
      9 C8A         3.7892    0.1293   -4.3054 C.ar      1 COA         0.5691
     10 N9A         2.9479    0.6234   -3.3440 N.pl3     1 COA        -0.5033
     11 C1B         1.4328    0.5815   -3.3775 C.3       1 COA         0.2693
     12 C2B         0.6799   -0.1567   -2.2458 C.3       1 COA         0.2008
     13 O2B         0.5449   -1.4388   -2.5302 O.co2     1 COA        -0.1615
     14 C3B        -0.6749    0.5672   -2.2968 C.3       1 COA         0.1111
     15 O3B        -1.4782    0.1594   -3.4088 O.3       1 COA         0.1618
     16 P3B        -3.0996    0.4363   -3.3454 P.3       1 COA        -1.1921
     17 O7A        -3.5828   -0.3425   -2.1254 O.co2     1 COA         0.3195
     18 O8A        -3.6001   -0.1211   -4.6746 O.co2     1 COA         0.3195
     19 O9A        -3.2339    1.9510   -3.2185 O.co2     1 COA         0.3195
     20 C4B        -0.2635    2.0121   -2.5599 C.3       1 COA         0.1111
     21 O4B         0.9490    1.9478   -3.3354 O.3       1 COA        -0.1436
     22 C5B         0.0275    2.8029   -1.2913 C.3       1 COA         0.1504
     23 O5B         0.3986    4.1249   -1.6460 O.3       1 COA         0.1618
     24 P1A         0.7670    5.1936   -0.4641 P.3       1 COA        -1.1062
     25 O1A         1.1289    6.5260   -1.0837 O.co2     1 COA         0.3195
     26 O2A         1.6876    4.5161    0.5275 O.co2     1 COA         0.3195
     27 O3A        -0.6886    5.3125    0.2679 O.3       1 COA         0.4672
     28 P2A        -1.1429    6.2040    1.5594 P.3       1 COA        -1.1062
     29 O4A        -2.6377    6.0612    1.7476 O.co2     1 COA         0.3195
     30 O5A        -0.1888    5.9134    2.6974 O.co2     1 COA         0.3195
     31 O6A        -0.8065    7.6957    0.9792 O.3       1 COA         0.1618
     32 CBP        -1.0090    9.5771   -0.5793 C.3       1 COA         0.0000
     33 CCP        -1.4652    8.1470   -0.1994 C.3       1 COA         0.1504
     34 CDP         0.5182    9.5632   -0.8289 C.3       1 COA         0.1179
     35 CEP        -1.6888   10.0085   -1.8940 C.3       1 COA         0.1179
     36 CAP        -1.3149   10.5877    0.5658 C.3       1 COA         0.0611
     37 OAP        -0.8841   11.8921    0.1862 O.3       1 COA        -0.2728
     38 C9P        -2.7940   10.7032    0.9282 C.2       1 COA         0.3561
     39 O9P        -3.5554   11.4723    0.3443 O.2       1 COA        -0.2391
     40 N8P        -3.1652    9.8410    1.9474 N.am      1 COA        -0.1909
     41 C7P        -4.5178    9.7490    2.4468 C.3       1 COA         0.1160
     42 C6P        -4.7105   10.7345    3.5903 C.3       1 COA         0.0286
     43 C5P        -6.1157   10.6894    4.1633 C.2       1 COA         0.3561
     44 O5P        -6.9901    9.9381    3.7406 O.2       1 COA        -0.2391
     45 N4P        -6.2717   11.5939    5.2034 N.am      1 COA        -0.1909
     46 C3P        -7.5133   11.7565    5.9240 C.3       1 COA         0.1160
     47 C2P        -8.4212   12.8054    5.3029 C.3       1 COA         0.2607
     48 S1P        -7.6436   14.4487    5.2523 S.3       1 COA        -0.3539
     49 H2A         4.1666    2.6505    0.4351 H         1 COA        -0.1369
     50 H61A        8.1108    1.6399   -1.7121 H         1 COA         0.2048
     51 H62A        7.6305    0.8472   -3.1886 H         1 COA         0.2048
     52 H8A         3.4224   -0.3522   -5.2016 H         1 COA        -0.1292
     53 H1B         1.1905    0.2000   -4.4133 H         1 COA        -0.0393
     54 H2B         1.1486    0.1388   -1.2941 H         1 COA        -0.0393
     55 H3B        -1.2745    0.4471   -1.3878 H         1 COA        -0.0393
     56 H4B        -1.0100    2.5497   -3.1559 H         1 COA        -0.0393
     57 H51A        0.8489    2.3441   -0.7330 H         1 COA        -0.0393
     58 H52A       -0.8601    2.8452   -0.6531 H         1 COA        -0.0393
     59 H121       -1.2324    7.4355   -0.9984 H         1 COA        -0.0393
     60 H122       -2.5440    8.1138   -0.0133 H         1 COA        -0.0393
     61 H131        0.8796   10.5616   -1.1013 H         1 COA        -0.0393
     62 H132        0.7886    8.8842   -1.6454 H         1 COA        -0.0393
     63 H133        1.0681    9.2399    0.0618 H         1 COA        -0.0393
     64 H141       -1.3855   11.0192   -2.1904 H         1 COA        -0.0393
     65 H142       -2.7797   10.0132   -1.7903 H         1 COA        -0.0393
     66 H143       -1.4280    9.3402   -2.7211 H         1 COA        -0.0393
     67 H10        -0.7524   10.3112    1.4665 H         1 COA        -0.0393
     68 HO1        -1.3767   12.1229   -0.6167 H         1 COA         0.2010
     69 HN8        -2.4720    9.2197    2.3532 H         1 COA         0.0865
     70 H71        -5.2173    9.9612    1.6320 H         1 COA        -0.0393
     71 H72        -4.7082    8.7249    2.7833 H         1 COA        -0.0393
     72 H61        -4.5113   11.7565    3.2443 H         1 COA        -0.0393
     73 H62        -4.0007   10.5174    4.3983 H         1 COA        -0.0393
     74 HN4        -5.4771   12.1676    5.4705 H         1 COA         0.0865
     75 H31        -8.0082   10.7821    5.9024 H         1 COA        -0.0393
     76 H32        -7.2650   11.9867    6.9632 H         1 COA        -0.0393
     77 H21        -8.7054   12.5249    4.2835 H         1 COA        -0.0393
     78 H22        -9.3356   12.8901    5.8984 H         1 COA        -0.0393
     79 HS1        -6.6009   14.0853    4.4941 H         1 COA         0.1718
@<TRIPOS>BOND
     1    1    2 ar
     2    1    6 ar
     3    2    3 ar
     4    2   49 1
     5    3    4 ar
     6    4    5 ar
     7    4   10 ar
     8    5    6 ar
     9    5    8 ar
    10    6    7 1
    11    7   50 1
    12    7   51 1
    13    8    9 ar
    14    9   10 ar
    15    9   52 1
    16   10   11 1
    17   11   12 1
    18   11   21 1
    19   11   53 1
    20   12   13 1
    21   12   14 1
    22   12   54 1
    23   14   15 1
    24   14   20 1
    25   14   55 1
    26   15   16 1
    27   16   17 2
    28   16   18 1
    29   16   19 1
    30   20   21 1
    31   20   22 1
    32   20   56 1
    33   22   23 1
    34   22   57 1
    35   22   58 1
    36   23   24 1
    37   24   25 2
    38   24   26 1
    39   24   27 1
    40   27   28 1
    41   28   29 2
    42   28   30 1
    43   28   31 1
    44   31   33 1
    45   32   33 1
    46   32   34 1
    47   32   35 1
    48   32   36 1
    49   33   59 1
    50   33   60 1
    51   34   61 1
    52   34   62 1
    53   34   63 1
    54   35   64 1
    55   35   65 1
    56   35   66 1
    57   36   37 1
    58   36   38 1
    59   36   67 1
    60   37   68 1
    61   38   39 2
    62   38   40 am
    63   40   41 1
    64   40   69 1
    65   41   42 1
    66   41   70 1
    67   41   71 1
    68   42   43 1
    69   42   72 1
    70   42   73 1
    71   43   44 2
    72   43   45 am
    73   45   46 1
    74   45   74 1
    75   46   47 1
    76   46   75 1
    77   46   76 1
    78   47   48 1
    79   47   77 1
    80   47   78 1
    81   48   79 1
@<TRIPOS>SUBSTRUCTURE
     1 COA         1 GROUP 0 A     ****
@<TRIPOS>MOLECULE
[5-(6-aminopurin-9-yl)-2-[[[[3-hydroxy-2,2-dimethyl-4-oxo-4-[[3-oxo-3-(2-sulfanylethylamino)propyl]amino]butoxy]-oxido-phosphoryl]oxy-oxido-phosphoryl]oxymethyl]-4-oxido-tetrahydrofuran-3-yl] phosphate
   79    81     1     0     0
SMALL
USER_CHARGES

@<TRIPOS>ATOM
      1 N1A         6.3197    3.3711    0.1967 N.ar      1 COA        -0.5260
      2 C2A         5.0033    3.3256    0.5141 C.ar      1 COA         0.6629
      3 N3A         4.0730    2.4196    0.1418 N.ar      1 COA        -0.5260
      4 C4A         4.6208    1.4811   -0.6447 C.ar      1 COA         0.5212
      5 C5A         5.9423    1.3962   -1.0530 C.ar      1 COA         0.0088
      6 C6A         6.8050    2.3902   -0.6021 C.ar      1 COA         0.5212
      7 N6A         8.1621    2.3826   -0.9671 N.pl3     1 COA        -0.6025
      8 N7A         6.1335    0.2987   -1.8543 N.2       1 COA        -0.4271
      9 C8A         4.9500   -0.2731   -1.9316 C.ar      1 COA         0.5691
     10 N9A         4.0006    0.4065   -1.2155 N.pl3     1 COA        -0.5033
     11 C1B         2.5376    0.0288   -1.0907 C.3       1 COA         0.2693
     12 C2B         1.9579   -0.2640    0.3131 C.3       1 COA         0.2008
     13 O2B         2.1299   -1.5323    0.6368 O.co2     1 COA        -0.1615
     14 C3B         0.4729    0.0487    0.0699 C.3       1 COA         0.1111
     15 O3B        -0.1943   -0.9780   -0.6709 O.3       1 COA         0.1618
     16 P3B        -1.8364   -1.0586   -0.5907 P.3       1 COA        -1.1921
     17 O7A        -2.1459   -1.2889    0.8856 O.co2     1 COA         0.3195
     18 O8A        -2.1706   -2.2476   -1.4866 O.co2     1 COA         0.3195
     19 O9A        -2.3217    0.2823   -1.1335 O.co2     1 COA         0.3195
     20 C4B         0.5412    1.2713   -0.8394 C.3       1 COA         0.1111
     21 O4B         1.7485    1.1278   -1.6124 O.3       1 COA        -0.1436
     22 C5B         0.6184    2.5901   -0.0816 C.3       1 COA         0.1504
     23 O5B         0.6777    3.6562   -1.0149 O.3       1 COA         0.1618
     24 P1A         0.7670    5.1936   -0.4641 P.3       1 COA        -1.1062
     25 O1A         0.8194    6.1476   -1.6376 O.co2     1 COA         0.3195
     26 O2A         1.8029    5.2507    0.6375 O.co2     1 COA         0.3195
     27 O3A        -0.6886    5.3125    0.2679 O.3       1 COA         0.4672
     28 P2A        -1.1429    6.2040    1.5594 P.3       1 COA        -1.1062
     29 O4A        -2.6377    6.0612    1.7476 O.co2     1 COA         0.3195
     30 O5A        -0.1888    5.9134    2.6974 O.co2     1 COA         0.3195
     31 O6A        -0.8065    7.6957    0.9792 O.3       1 COA         0.1618
     32 CBP        -1.0090    9.5771   -0.5793 C.3       1 COA         0.0000
     33 CCP        -1.4652    8.1470   -0.1994 C.3       1 COA         0.1504
     34 CDP         0.5182    9.5632   -0.8289 C.3       1 COA         0.1179
     35 CEP        -1.6888   10.0085   -1.8940 C.3       1 COA         0.1179
     36 CAP        -1.3149   10.5877    0.5658 C.3       1 COA         0.0611
     37 OAP        -0.8841   11.8921    0.1862 O.3       1 COA        -0.2728
     38 C9P        -2.7940   10.7032    0.9282 C.2       1 COA         0.3561
     39 O9P        -3.5554   11.4723    0.3443 O.2       1 COA        -0.2391
     40 N8P        -3.1652    9.8410    1.9474 N.am      1 COA        -0.1909
     41 C7P        -4.5178    9.7490    2.4468 C.3       1 COA         0.1160
     42 C6P        -4.7105   10.7345    3.5903 C.3       1 COA         0.0286
     43 C5P        -6.1157   10.6894    4.1633 C.2       1 COA         0.3561
     44 O5P        -6.9901    9.9381    3.7406 O.2       1 COA        -0.2391
     45 N4P        -6.2717   11.5939    5.2034 N.am      1 COA        -0.1909
     46 C3P        -7.5133   11.7565    5.9240 C.3       1 COA         0.1160
     47 C2P        -7.6170   10.8402    7.1323 C.3       1 COA         0.2607
     48 S1P        -6.2872   11.1344    8.3377 S.3       1 COA        -0.3539
     49 H2A         4.6492    4.1260    1.1552 H         1 COA        -0.1369
     50 H61A        8.7564    3.1335   -0.6708 H         1 COA         0.2048
     51 H62A        8.4991    1.6788   -1.5963 H         1 COA         0.2048
     52 H8A         4.7208   -1.1726   -2.4865 H         1 COA        -0.1292
     53 H1B         2.4085   -0.8200   -1.8256 H         1 COA        -0.0393
     54 H2B         2.3286    0.5212    0.9904 H         1 COA        -0.0393
     55 H3B        -0.0977    0.2245    0.9885 H         1 COA        -0.0393
     56 H4B        -0.2996    1.3083   -1.5416 H         1 COA        -0.0393
     57 H51A        1.5144    2.6204    0.5455 H         1 COA        -0.0393
     58 H52A       -0.2654    2.7227    0.5494 H         1 COA        -0.0393
     59 H121       -1.2324    7.4355   -0.9984 H         1 COA        -0.0393
     60 H122       -2.5440    8.1138   -0.0133 H         1 COA        -0.0393
     61 H131        0.8796   10.5616   -1.1013 H         1 COA        -0.0393
     62 H132        0.7886    8.8842   -1.6454 H         1 COA        -0.0393
     63 H133        1.0681    9.2399    0.0618 H         1 COA        -0.0393
     64 H141       -1.3855   11.0192   -2.1904 H         1 COA        -0.0393
     65 H142       -2.7797   10.0132   -1.7903 H         1 COA        -0.0393
     66 H143       -1.4280    9.3402   -2.7211 H         1 COA        -0.0393
     67 H10        -0.7524   10.3112    1.4665 H         1 COA        -0.0393
     68 HO1        -1.3767   12.1229   -0.6167 H         1 COA         0.2010
     69 HN8        -2.4720    9.2197    2.3532 H         1 COA         0.0865
     70 H71        -5.2173    9.9612    1.6320 H         1 COA        -0.0393
     71 H72        -4.7082    8.7249    2.7833 H         1 COA        -0.0393
     72 H61        -4.5113   11.7565    3.2443 H         1 COA        -0.0393
     73 H62        -4.0007   10.5174    4.3983 H         1 COA        -0.0393
     74 HN4        -5.4771   12.1676    5.4705 H         1 COA         0.0865
     75 H31        -7.5423   12.7996    6.2497 H         1 COA        -0.0393
     76 H32        -8.3303   11.6009    5.2149 H         1 COA        -0.0393
     77 H21        -8.5789   10.9665    7.6397 H         1 COA        -0.0393
     78 H22        -7.5414    9.7990    6.8036 H         1 COA        -0.0393
     79 HS1        -5.2784   10.8538    7.5022 H         1 COA         0.1718
@<TRIPOS>BOND
     1    1    2 ar
     2    1    6 ar
     3    2    3 ar
     4    2   49 1
     5    3    4 ar
     6    4    5 ar
     7    4   10 ar
     8    5    6 ar
     9    5    8 ar
    10    6    7 1
    11    7   50 1
    12    7   51 1
    13    8    9 ar
    14    9   10 ar
    15    9   52 1
    16   10   11 1
    17   11   12 1
    18   11   21 1
    19   11   53 1
    20   12   13 1
    21   12   14 1
    22   12   54 1
    23   14   15 1
    24   14   20 1
    25   14   55 1
    26   15   16 1
    27   16   17 2
    28   16   18 1
    29   16   19 1
    30   20   21 1
    31   20   22 1
    32   20   56 1
    33   22   23 1
    34   22   57 1
    35   22   58 1
    36   23   24 1
    37   24   25 2
    38   24   26 1
    39   24   27 1
    40   27   28 1
    41   28   29 2
    42   28   30 1
    43   28   31 1
    44   31   33 1
    45   32   33 1
    46   32   34 1
    47   32   35 1
    48   32   36 1
    49   33   59 1
    50   33   60 1
    51   34   61 1
    52   34   62 1
    53   34   63 1
    54   35   64 1
    55   35   65 1
    56   35   66 1
    57   36   37 1
    58   36   38 1
    59   36   67 1
    60   37   68 1
    61   38   39 2
    62   38   40 am
    63   40   41 1
    64   40   69 1
    65   41   42 1
    66   41   70 1
    67   41   71 1
    68   42   43 1
    69   42   72 1
    70   42   73 1
    71   43   44 2
    72   43   45 am
    73   45   46 1
    74   45   74 1
    75   46   47 1
    76   46   75 1
    77   46   76 1
    78   47   48 1
    79   47   77 1
    80   47   78 1
    81   48   79 1
@<TRIPOS>SUBSTRUCTURE
     1 COA         1 GROUP 0 A     ****
@<TRIPOS>MOLECULE
[5-(6-aminopurin-9-yl)-2-[[[[3-hydroxy-2,2-dimethyl-4-oxo-4-[[3-oxo-3-(2-sulfanylethylamino)propyl]amino]butoxy]-oxido-phosphoryl]oxy-oxido-phosphoryl]oxymethyl]-4-oxido-tetrahydrofuran-3-yl] phosphate
   79    81     1     0     0
SMALL
USER_CHARGES

@<TRIPOS>ATOM
      1 N1A         5.7146    2.0302   -0.7890 N.ar      1 COA        -0.5260
      2 C2A         4.3962    2.1571   -0.5034 C.ar      1 COA         0.6629
      3 N3A         3.3299    1.7526   -1.2276 N.ar      1 COA        -0.5260
      4 C4A         3.7311    1.1587   -2.3614 C.ar      1 COA         0.5212
      5 C5A         5.0346    0.9576   -2.7868 C.ar      1 COA         0.0088
      6 C6A         6.0470    1.4195   -1.9517 C.ar      1 COA         0.5212
      7 N6A         7.3978    1.2581   -2.3043 N.pl3     1 COA        -0.6025
      8 N7A         5.0562    0.3154   -3.9993 N.2       1 COA        -0.4271
      9 C8A         3.7892    0.1293   -4.3054 C.ar      1 COA         0.5691
     10 N9A         2.9479    0.6234   -3.3440 N.pl3     1 COA        -0.5033
     11 C1B         1.4328    0.5815   -3.3775 C.3       1 COA         0.2693
     12 C2B         0.6799   -0.1567   -2.2458 C.3       1 COA         0.2008
     13 O2B         0.5449   -1.4388   -2.5302 O.co2     1 COA        -0.1615
     14 C3B        -0.6749    0.5672   -2.2968 C.3       1 COA         0.1111
     15 O3B        -1.4782    0.1594   -3.4088 O.3       1 COA         0.1618
     16 P3B        -3.0996    0.4363   -3.3454 P.3       1 COA        -1.1921
     17 O7A        -3.5828   -0.3425   -2.1254 O.co2     1 COA         0.3195
     18 O8A        -3.6001   -0.1211   -4.6746 O.co2     1 COA         0.3195
     19 O9A        -3.2339    1.9510   -3.2185 O.co2     1 COA         0.3195
     20 C4B        -0.2635    2.0121   -2.5599 C.3       1 COA         0.1111
     21 O4B         0.9490    1.9478   -3.3354 O.3       1 COA        -0.1436
     22 C5B         0.0275    2.8029   -1.2913 C.3       1 COA         0.1504
     23 O5B         0.3986    4.1249   -1.6460 O.3       1 COA         0.1618
     24 P1A         0.7670    5.1936   -0.4641 P.3       1 COA        -1.1062
     25 O1A         1.1289    6.5260   -1.0837 O.co2     1 COA         0.3195
     26 O2A         1.6876    4.5161    0.5275 O.co2     1 COA         0.3195
     27 O3A        -0.6886    5.3125    0.2679 O.3       1 COA         0.4672
     28 P2A        -1.1429    6.2040    1.5594 P.3       1 COA        -1.1062
     29 O4A        -2.6377    6.0612    1.7476 O.co2     1 COA         0.3195
     30 O5A        -0.1888    5.9134    2.6974 O.co2     1 COA         0.3195
     31 O6A        -0.8065    7.6957    0.9792 O.3       1 COA         0.1618
     32 CBP        -1.0090    9.5771   -0.5793 C.3       1 COA         0.0000
     33 CCP        -1.4652    8.1470   -0.1994 C.3       1 COA         0.1504
     34 CDP         0.5182    9.5632   -0.8289 C.3       1 COA         0.1179
     35 CEP        -1.6888   10.0085   -1.8940 C.3       1 COA         0.1179
     36 CAP        -1.3149   10.5877    0.5658 C.3       1 COA         0.0611
     37 OAP        -0.8841   11.8921    0.1862 O.3       1 COA        -0.2728
     38 C9P        -2.7940   10.7032    0.9282 C.2       1 COA         0.3561
     39 O9P        -3.5554   11.4723    0.3443 O.2       1 COA        -0.2391
     40 N8P        -3.1652    9.8410    1.9474 N.am      1 COA        -0.1909
     41 C7P        -4.5178    9.7490    2.4468 C.3       1 COA         0.1160
     42 C6P        -4.7105   10.7345    3.5903 C.3       1 COA         0.0286
     43 C5P        -3.7673   10.4683    4.7497 C.2       1 COA         0.3561
     44 O5P        -3.3490    9.3490    5.0325 O.2       1 COA        -0.2391
     45 N4P        -3.4529   11.6357    5.4299 N.am      1 COA        -0.1909
     46 C3P        -2.5751   11.6649    6.5771 C.3       1 COA         0.1160
     47 C2P        -1.1181   11.8738    6.1982 C.3       1 COA         0.2607
     48 S1P        -0.8527   13.4413    5.3148 S.3       1 COA        -0.3539
     49 H2A         4.1666    2.6505    0.4351 H         1 COA        -0.1369
     50 H61A        8.1108    1.6399   -1.7121 H         1 COA         0.2048
     51 H62A        7.6305    0.8472   -3.1886 H         1 COA         0.2048
     52 H8A         3.4224   -0.3522   -5.2016 H         1 COA        -0.1292
     53 H1B         1.1905    0.2000   -4.4133 H         1 COA        -0.0393
     54 H2B         1.1486    0.1388   -1.2941 H         1 COA        -0.0393
     55 H3B        -1.2745    0.4471   -1.3878 H         1 COA        -0.0393
     56 H4B        -1.0100    2.5497   -3.1559 H         1 COA        -0.0393
     57 H51A        0.8489    2.3441   -0.7330 H         1 COA        -0.0393
     58 H52A       -0.8601    2.8452   -0.6531 H         1 COA        -0.0393
     59 H121       -1.2324    7.4355   -0.9984 H         1 COA        -0.0393
     60 H122       -2.5440    8.1138   -0.0133 H         1 COA        -0.0393
     61 H131        0.8796   10.5616   -1.1013 H         1 COA        -0.0393
     62 H132        0.7886    8.8842   -1.6454 H         1 COA        -0.0393
     63 H133        1.0681    9.2399    0.0618 H         1 COA        -0.0393
     64 H141       -1.3855   11.0192   -2.1904 H         1 COA        -0.0393
     65 H142       -2.7797   10.0132   -1.7903 H         1 COA        -0.0393
     66 H143       -1.4280    9.3402   -2.7211 H         1 COA        -0.0393
     67 H10        -0.7524   10.3112    1.4665 H         1 COA        -0.0393
     68 HO1        -1.3767   12.1229   -0.6167 H         1 COA         0.2010
     69 HN8        -2.4720    9.2197    2.3532 H         1 COA         0.0865
     70 H71        -5.2173    9.9612    1.6320 H         1 COA        -0.0393
     71 H72        -4.7082    8.7249    2.7833 H         1 COA        -0.0393
     72 H61        -5.7407   10.6811    3.9639 H         1 COA        -0.0393
     73 H62        -4.5426   11.7595    3.2365 H         1 COA        -0.0393
     74 HN4        -3.8581   12.5093    5.1069 H         1 COA         0.0865
     75 H31        -2.9160   12.4955    7.2006 H         1 COA        -0.0393
     76 H32        -2.7291   10.7378    7.1352 H         1 COA        -0.0393
     77 H21        -0.4761   11.8627    7.0849 H         1 COA        -0.0393
     78 H22        -0.7968   11.0628    5.5371 H         1 COA        -0.0393
     79 HS1        -1.6675   13.1619    4.2890 H         1 COA         0.1718
@<TRIPOS>BOND
     1    1    2 ar
     2    1    6 ar
     3    2    3 ar
     4    2   49 1
     5    3    4 ar
     6    4    5 ar
     7    4   10 ar
     8    5    6 ar
     9    5    8 ar
    10    6    7 1
    11    7   50 1
    12    7   51 1
    13    8    9 ar
    14    9   10 ar
    15    9   52 1
    16   10   11 1
    17   11   12 1
    18   11   21 1
    19   11   53 1
    20   12   13 1
    21   12   14 1
    22   12   54 1
    23   14   15 1
    24   14   20 1
    25   14   55 1
    26   15   16 1
    27   16   17 2
    28   16   18 1
    29   16   19 1
    30   20   21 1
    31   20   22 1
    32   20   56 1
    33   22   23 1
    34   22   57 1
    35   22   58 1
    36   23   24 1
    37   24   25 2
    38   24   26 1
    39   24   27 1
    40   27   28 1
    41   28   29 2
    42   28   30 1
    43   28   31 1
    44   31   33 1
    45   32   33 1
    46   32   34 1
    47   32   35 1
    48   32   36 1
    49   33   59 1
    50   33   60 1
    51   34   61 1
    52   34   62 1
    53   34   63 1
    54   35   64 1
    55   35   65 1
    56   35   66 1
    57   36   37 1
    58   36   38 1
    59   36   67 1
    60   37   68 1
    61   38   39 2
    62   38   40 am
    63   40   41 1
    64   40   69 1
    65   41   42 1
    66   41   70 1
    67   41   71 1
    68   42   43 1
    69   42   72 1
    70   42   73 1
    71   43   44 2
    72   43   45 am
    73   45   46 1
    74   45   74 1
    75   46   47 1
    76   46   75 1
    77   46   76 1
    78   47   48 1
    79   47   77 1
    80   47   78 1
    81   48   79 1
@<TRIPOS>SUBSTRUCTURE
     1 COA         1 GROUP 0 A     ****
@<TRIPOS>MOLECULE
[5-(6-aminopurin-9-yl)-2-[[[[3-hydroxy-2,2-dimethyl-4-oxo-4-[[3-oxo-3-(2-sulfanylethylamino)propyl]amino]butoxy]-oxido-phosphoryl]oxy-oxido-phosphoryl]oxymethyl]-4-oxido-tetrahydrofuran-3-yl] phosphate
   79    81     1     0     0
SMALL
USER_CHARGES

@<TRIPOS>ATOM
      1 N1A         5.7146    2.0302   -0.7890 N.ar      1 COA        -0.5260
      2 C2A         4.3962    2.1571   -0.5034 C.ar      1 COA         0.6629
      3 N3A         3.3299    1.7526   -1.2276 N.ar      1 COA        -0.5260
      4 C4A         3.7311    1.1587   -2.3614 C.ar      1 COA         0.5212
      5 C5A         5.0346    0.9576   -2.7868 C.ar      1 COA         0.0088
      6 C6A         6.0470    1.4195   -1.9517 C.ar      1 COA         0.5212
      7 N6A         7.3978    1.2581   -2.3043 N.pl3     1 COA        -0.6025
      8 N7A         5.0562    0.3154   -3.9993 N.2       1 COA        -0.4271
      9 C8A         3.7892    0.1293   -4.3054 C.ar      1 COA         0.5691
     10 N9A         2.9479    0.6234   -3.3440 N.pl3     1 COA        -0.5033
     11 C1B         1.4328    0.5815   -3.3775 C.3       1 COA         0.2693
     12 C2B         0.6799   -0.1567   -2.2458 C.3       1 COA         0.2008
     13 O2B         0.5449   -1.4388   -2.5302 O.co2     1 COA        -0.1615
     14 C3B        -0.6749    0.5672   -2.2968 C.3       1 COA         0.1111
     15 O3B        -1.4782    0.1594   -3.4088 O.3       1 COA         0.1618
     16 P3B        -3.0996    0.4363   -3.3454 P.3       1 COA        -1.1921
     17 O7A        -3.5828   -0.3425   -2.1254 O.co2     1 COA         0.3195
     18 O8A        -3.6001   -0.1211   -4.6746 O.co2     1 COA         0.3195
     19 O9A        -3.2339    1.9510   -3.2185 O.co2     1 COA         0.3195
     20 C4B        -0.2635    2.0121   -2.5599 C.3       1 COA         0.1111
     21 O4B         0.9490    1.9478   -3.3354 O.3       1 COA        -0.1436
     22 C5B         0.0275    2.8029   -1.2913 C.3       1 COA         0.1504
     23 O5B         0.3986    4.1249   -1.6460 O.3       1 COA         0.1618
     24 P1A         0.7670    5.1936   -0.4641 P.3       1 COA        -1.1062
     25 O1A         1.1289    6.5260   -1.0837 O.co2     1 COA         0.3195
     26 O2A         1.6876    4.5161    0.5275 O.co2     1 COA         0.3195
     27 O3A        -0.6886    5.3125    0.2679 O.3       1 COA         0.4672
     28 P2A        -1.1429    6.2040    1.5594 P.3       1 COA        -1.1062
     29 O4A        -2.6377    6.0612    1.7476 O.co2     1 COA         0.3195
     30 O5A        -0.1888    5.9134    2.6974 O.co2     1 COA         0.3195
     31 O6A        -0.8065    7.6957    0.9792 O.3       1 COA         0.1618
     32 CBP        -1.0090    9.5771   -0.5793 C.3       1 COA         0.0000
     33 CCP        -1.4652    8.1470   -0.1994 C.3       1 COA         0.1504
     34 CDP         0.5182    9.5632   -0.8289 C.3       1 COA         0.1179
     35 CEP        -1.6888   10.0085   -1.8940 C.3       1 COA         0.1179
     36 CAP        -1.3149   10.5877    0.5658 C.3       1 COA         0.0611
     37 OAP        -0.8841   11.8921    0.1862 O.3       1 COA        -0.2728
     38 C9P        -2.7940   10.7032    0.9282 C.2       1 COA         0.3561
     39 O9P        -3.5554   11.4723    0.3443 O.2       1 COA        -0.2391
     40 N8P        -3.1652    9.8410    1.9474 N.am      1 COA        -0.1909
     41 C7P        -4.5178    9.7490    2.4468 C.3       1 COA         0.1160
     42 C6P        -4.7105   10.7345    3.5903 C.3       1 COA         0.0286
     43 C5P        -3.7673   10.4683    4.7497 C.2       1 COA         0.3561
     44 O5P        -2.9464    9.5550    4.7523 O.2       1 COA        -0.2391
     45 N4P        -3.9580   11.3760    5.7812 N.am      1 COA        -0.1909
     46 C3P        -3.1916   11.3468    7.0056 C.3       1 COA         0.1160
     47 C2P        -3.8307   10.4816    8.0795 C.3       1 COA         0.2607
     48 S1P        -5.4935   11.0616    8.5340 S.3       1 COA        -0.3539
     49 H2A         4.1666    2.6505    0.4351 H         1 COA        -0.1369
     50 H61A        8.1108    1.6399   -1.7121 H         1 COA         0.2048
     51 H62A        7.6305    0.8472   -3.1886 H         1 COA         0.2048
     52 H8A         3.4224   -0.3522   -5.2016 H         1 COA        -0.1292
     53 H1B         1.1905    0.2000   -4.4133 H         1 COA        -0.0393
     54 H2B         1.1486    0.1388   -1.2941 H         1 COA        -0.0393
     55 H3B        -1.2745    0.4471   -1.3878 H         1 COA        -0.0393
     56 H4B        -1.0100    2.5497   -3.1559 H         1 COA        -0.0393
     57 H51A        0.8489    2.3441   -0.7330 H         1 COA        -0.0393
     58 H52A       -0.8601    2.8452   -0.6531 H         1 COA        -0.0393
     59 H121       -1.2324    7.4355   -0.9984 H         1 COA        -0.0393
     60 H122       -2.5440    8.1138   -0.0133 H         1 COA        -0.0393
     61 H131        0.8796   10.5616   -1.1013 H         1 COA        -0.0393
     62 H132        0.7886    8.8842   -1.6454 H         1 COA        -0.0393
     63 H133        1.0681    9.2399    0.0618 H         1 COA        -0.0393
     64 H141       -1.3855   11.0192   -2.1904 H         1 COA        -0.0393
     65 H142       -2.7797   10.0132   -1.7903 H         1 COA        -0.0393
     66 H143       -1.4280    9.3402   -2.7211 H         1 COA        -0.0393
     67 H10        -0.7524   10.3112    1.4665 H         1 COA        -0.0393
     68 HO1        -1.3767   12.1229   -0.6167 H         1 COA         0.2010
     69 HN8        -2.4720    9.2197    2.3532 H         1 COA         0.0865
     70 H71        -5.2173    9.9612    1.6320 H         1 COA        -0.0393
     71 H72        -4.7082    8.7249    2.7833 H         1 COA        -0.0393
     72 H61        -5.7407   10.6811    3.9639 H         1 COA        -0.0393
     73 H62        -4.5426   11.7595    3.2365 H         1 COA        -0.0393
     74 HN4        -4.6684   12.0936    5.6706 H         1 COA         0.0865
     75 H31        -2.2111   10.9418    6.7420 H         1 COA        -0.0393
     76 H32        -3.0534   12.3800    7.3341 H         1 COA        -0.0393
     77 H21        -3.9046    9.4396    7.7519 H         1 COA        -0.0393
     78 H22        -3.2121   10.5100    8.9819 H         1 COA        -0.0393
     79 HS1        -6.0256   10.9283    7.3120 H         1 COA         0.1718
@<TRIPOS>BOND
     1    1    2 ar
     2    1    6 ar
     3    2    3 ar
     4    2   49 1
     5    3    4 ar
     6    4    5 ar
     7    4   10 ar
     8    5    6 ar
     9    5    8 ar
    10    6    7 1
    11    7   50 1
    12    7   51 1
    13    8    9 ar
    14    9   10 ar
    15    9   52 1
    16   10   11 1
    17   11   12 1
    18   11   21 1
    19   11   53 1
    20   12   13 1
    21   12   14 1
    22   12   54 1
    23   14   15 1
    24   14   20 1
    25   14   55 1
    26   15   16 1
    27   16   17 2
    28   16   18 1
    29   16   19 1
    30   20   21 1
    31   20   22 1
    32   20   56 1
    33   22   23 1
    34   22   57 1
    35   22   58 1
    36   23   24 1
    37   24   25 2
    38   24   26 1
    39   24   27 1
    40   27   28 1
    41   28   29 2
    42   28   30 1
    43   28   31 1
    44   31   33 1
    45   32   33 1
    46   32   34 1
    47   32   35 1
    48   32   36 1
    49   33   59 1
    50   33   60 1
    51   34   61 1
    52   34   62 1
    53   34   63 1
    54   35   64 1
    55   35   65 1
    56   35   66 1
    57   36   37 1
    58   36   38 1
    59   36   67 1
    60   37   68 1
    61   38   39 2
    62   38   40 am
    63   40   41 1
    64   40   69 1
    65   41   42 1
    66   41   70 1
    67   41   71 1
    68   42   43 1
    69   42   72 1
    70   42   73 1
    71   43   44 2
    72   43   45 am
    73   45   46 1
    74   45   74 1
    75   46   47 1
    76   46   75 1
    77   46   76 1
    78   47   48 1
    79   47   77 1
    80   47   78 1
    81   48   79 1
@<TRIPOS>SUBSTRUCTURE
     1 COA         1 GROUP 0 A     ****
@<TRIPOS>MOLECULE
[5-(6-aminopurin-9-yl)-2-[[[[3-hydroxy-2,2-dimethyl-4-oxo-4-[[3-oxo-3-(2-sulfanylethylamino)propyl]amino]butoxy]-oxido-phosphoryl]oxy-oxido-phosphoryl]oxymethyl]-4-oxido-tetrahydrofuran-3-yl] phosphate
   79    81     1     0     0
SMALL
USER_CHARGES

@<TRIPOS>ATOM
      1 N1A         6.3197    3.3711    0.1967 N.ar      1 COA        -0.5260
      2 C2A         5.0033    3.3256    0.5141 C.ar      1 COA         0.6629
      3 N3A         4.0730    2.4196    0.1418 N.ar      1 COA        -0.5260
      4 C4A         4.6208    1.4811   -0.6447 C.ar      1 COA         0.5212
      5 C5A         5.9423    1.3962   -1.0530 C.ar      1 COA         0.0088
      6 C6A         6.8050    2.3902   -0.6021 C.ar      1 COA         0.5212
      7 N6A         8.1621    2.3826   -0.9671 N.pl3     1 COA        -0.6025
      8 N7A         6.1335    0.2987   -1.8543 N.2       1 COA        -0.4271
      9 C8A         4.9500   -0.2731   -1.9316 C.ar      1 COA         0.5691
     10 N9A         4.0006    0.4065   -1.2155 N.pl3     1 COA        -0.5033
     11 C1B         2.5376    0.0288   -1.0907 C.3       1 COA         0.2693
     12 C2B         1.9579   -0.2640    0.3131 C.3       1 COA         0.2008
     13 O2B         2.1299   -1.5323    0.6368 O.co2     1 COA        -0.1615
     14 C3B         0.4729    0.0487    0.0699 C.3       1 COA         0.1111
     15 O3B        -0.1943   -0.9780   -0.6709 O.3       1 COA         0.1618
     16 P3B        -1.8364   -1.0586   -0.5907 P.3       1 COA        -1.1921
     17 O7A        -2.1459   -1.2889    0.8856 O.co2     1 COA         0.3195
     18 O8A        -2.1706   -2.2476   -1.4866 O.co2     1 COA         0.3195
     19 O9A        -2.3217    0.2823   -1.1335 O.co2     1 COA         0.3195
     20 C4B         0.5412    1.2713   -0.8394 C.3       1 COA         0.1111
     21 O4B         1.7485    1.1278   -1.6124 O.3       1 COA        -0.1436
     22 C5B         0.6184    2.5901   -0.0816 C.3       1 COA         0.1504
     23 O5B         0.6777    3.6562   -1.0149 O.3       1 COA         0.1618
     24 P1A         0.7670    5.1936   -0.4641 P.3       1 COA        -1.1062
     25 O1A         0.8194    6.1476   -1.6376 O.co2     1 COA         0.3195
     26 O2A         1.8029    5.2507    0.6375 O.co2     1 COA         0.3195
     27 O3A        -0.6886    5.3125    0.2679 O.3       1 COA         0.4672
     28 P2A        -1.1429    6.2040    1.5594 P.3       1 COA        -1.1062
     29 O4A        -2.6377    6.0612    1.7476 O.co2     1 COA         0.3195
     30 O5A        -0.1888    5.9134    2.6974 O.co2     1 COA         0.3195
     31 O6A        -0.8065    7.6957    0.9792 O.3       1 COA         0.1618
     32 CBP        -1.0090    9.5771   -0.5793 C.3       1 COA         0.0000
     33 CCP        -1.4652    8.1470   -0.1994 C.3       1 COA         0.1504
     34 CDP         0.5182    9.5632   -0.8289 C.3       1 COA         0.1179
     35 CEP        -1.6888   10.0085   -1.8940 C.3       1 COA         0.1179
     36 CAP        -1.3149   10.5877    0.5658 C.3       1 COA         0.0611
     37 OAP        -0.8841   11.8921    0.1862 O.3       1 COA        -0.2728
     38 C9P        -2.7940   10.7032    0.9282 C.2       1 COA         0.3561
     39 O9P        -3.5554   11.4723    0.3443 O.2       1 COA        -0.2391
     40 N8P        -3.1652    9.8410    1.9474 N.am      1 COA        -0.1909
     41 C7P        -4.5178    9.7490    2.4468 C.3       1 COA         0.1160
     42 C6P        -4.7105   10.7345    3.5903 C.3       1 COA         0.0286
     43 C5P        -3.7673   10.4683    4.7497 C.2       1 COA         0.3561
     44 O5P        -3.3490    9.3490    5.0325 O.2       1 COA        -0.2391
     45 N4P        -3.4529   11.6357    5.4299 N.am      1 COA        -0.1909
     46 C3P        -2.5751   11.6649    6.5771 C.3       1 COA         0.1160
     47 C2P        -1.1181   11.8738    6.1982 C.3       1 COA         0.2607
     48 S1P        -0.0251   11.9084    7.6514 S.3       1 COA        -0.3539
     49 H2A         4.6492    4.1260    1.1552 H         1 COA        -0.1369
     50 H61A        8.7564    3.1335   -0.6708 H         1 COA         0.2048
     51 H62A        8.4991    1.6788   -1.5963 H         1 COA         0.2048
     52 H8A         4.7208   -1.1726   -2.4865 H         1 COA        -0.1292
     53 H1B         2.4085   -0.8200   -1.8256 H         1 COA        -0.0393
     54 H2B         2.3286    0.5212    0.9904 H         1 COA        -0.0393
     55 H3B        -0.0977    0.2245    0.9885 H         1 COA        -0.0393
     56 H4B        -0.2996    1.3083   -1.5416 H         1 COA        -0.0393
     57 H51A        1.5144    2.6204    0.5455 H         1 COA        -0.0393
     58 H52A       -0.2654    2.7227    0.5494 H         1 COA        -0.0393
     59 H121       -1.2324    7.4355   -0.9984 H         1 COA        -0.0393
     60 H122       -2.5440    8.1138   -0.0133 H         1 COA        -0.0393
     61 H131        0.8796   10.5616   -1.1013 H         1 COA        -0.0393
     62 H132        0.7886    8.8842   -1.6454 H         1 COA        -0.0393
     63 H133        1.0681    9.2399    0.0618 H         1 COA        -0.0393
     64 H141       -1.3855   11.0192   -2.1904 H         1 COA        -0.0393
     65 H142       -2.7797   10.0132   -1.7903 H         1 COA        -0.0393
     66 H143       -1.4280    9.3402   -2.7211 H         1 COA        -0.0393
     67 H10        -0.7524   10.3112    1.4665 H         1 COA        -0.0393
     68 HO1        -1.3767   12.1229   -0.6167 H         1 COA         0.2010
     69 HN8        -2.4720    9.2197    2.3532 H         1 COA         0.0865
     70 H71        -5.2173    9.9612    1.6320 H         1 COA        -0.0393
     71 H72        -4.7082    8.7249    2.7833 H         1 COA        -0.0393
     72 H61        -5.7407   10.6811    3.9639 H         1 COA        -0.0393
     73 H62        -4.5426   11.7595    3.2365 H         1 COA        -0.0393
     74 HN4        -3.8581   12.5093    5.1069 H         1 COA         0.0865
     75 H31        -2.9160   12.4955    7.2006 H         1 COA        -0.0393
     76 H32        -2.7291   10.7378    7.1352 H         1 COA        -0.0393
     77 H21        -0.7711   11.0856    5.5222 H         1 COA        -0.0393
     78 H22        -1.0130   12.8332    5.6821 H         1 COA        -0.0393
     79 HS1        -0.3250   10.6751    8.0797 H         1 COA         0.1718
@<TRIPOS>BOND
     1    1    2 ar
     2    1    6 ar
     3    2    3 ar
     4    2   49 1
     5    3    4 ar
     6    4    5 ar
     7    4   10 ar
     8    5    6 ar
     9    5    8 ar
    10    6    7 1
    11    7   50 1
    12    7   51 1
    13    8    9 ar
    14    9   10 ar
    15    9   52 1
    16   10   11 1
    17   11   12 1
    18   11   21 1
    19   11   53 1
    20   12   13 1
    21   12   14 1
    22   12   54 1
    23   14   15 1
    24   14   20 1
    25   14   55 1
    26   15   16 1
    27   16   17 2
    28   16   18 1
    29   16   19 1
    30   20   21 1
    31   20   22 1
    32   20   56 1
    33   22   23 1
    34   22   57 1
    35   22   58 1
    36   23   24 1
    37   24   25 2
    38   24   26 1
    39   24   27 1
    40   27   28 1
    41   28   29 2
    42   28   30 1
    43   28   31 1
    44   31   33 1
    45   32   33 1
    46   32   34 1
    47   32   35 1
    48   32   36 1
    49   33   59 1
    50   33   60 1
    51   34   61 1
    52   34   62 1
    53   34   63 1
    54   35   64 1
    55   35   65 1
    56   35   66 1
    57   36   37 1
    58   36   38 1
    59   36   67 1
    60   37   68 1
    61   38   39 2
    62   38   40 am
    63   40   41 1
    64   40   69 1
    65   41   42 1
    66   41   70 1
    67   41   71 1
    68   42   43 1
    69   42   72 1
    70   42   73 1
    71   43   44 2
    72   43   45 am
    73   45   46 1
    74   45   74 1
    75   46   47 1
    76   46   75 1
    77   46   76 1
    78   47   48 1
    79   47   77 1
    80   47   78 1
    81   48   79 1
@<TRIPOS>SUBSTRUCTURE
     1 COA         1 GROUP 0 A     ****
@<TRIPOS>MOLECULE
[5-(6-aminopurin-9-yl)-2-[[[[3-hydroxy-2,2-dimethyl-4-oxo-4-[[3-oxo-3-(2-sulfanylethylamino)propyl]amino]butoxy]-oxido-phosphoryl]oxy-oxido-phosphoryl]oxymethyl]-4-oxido-tetrahydrofuran-3-yl] phosphate
   79    81     1     0     0
SMALL
USER_CHARGES

@<TRIPOS>ATOM
      1 N1A         6.3197    3.3711    0.1967 N.ar      1 COA        -0.5260
      2 C2A         5.0033    3.3256    0.5141 C.ar      1 COA         0.6629
      3 N3A         4.0730    2.4196    0.1418 N.ar      1 COA        -0.5260
      4 C4A         4.6208    1.4811   -0.6447 C.ar      1 COA         0.5212
      5 C5A         5.9423    1.3962   -1.0530 C.ar      1 COA         0.0088
      6 C6A         6.8050    2.3902   -0.6021 C.ar      1 COA         0.5212
      7 N6A         8.1621    2.3826   -0.9671 N.pl3     1 COA        -0.6025
      8 N7A         6.1335    0.2987   -1.8543 N.2       1 COA        -0.4271
      9 C8A         4.9500   -0.2731   -1.9316 C.ar      1 COA         0.5691
     10 N9A         4.0006    0.4065   -1.2155 N.pl3     1 COA        -0.5033
     11 C1B         2.5376    0.0288   -1.0907 C.3       1 COA         0.2693
     12 C2B         1.9579   -0.2640    0.3131 C.3       1 COA         0.2008
     13 O2B         2.1299   -1.5323    0.6368 O.co2     1 COA        -0.1615
     14 C3B         0.4729    0.0487    0.0699 C.3       1 COA         0.1111
     15 O3B        -0.1943   -0.9780   -0.6709 O.3       1 COA         0.1618
     16 P3B        -1.8364   -1.0586   -0.5907 P.3       1 COA        -1.1921
     17 O7A        -2.1459   -1.2889    0.8856 O.co2     1 COA         0.3195
     18 O8A        -2.1706   -2.2476   -1.4866 O.co2     1 COA         0.3195
     19 O9A        -2.3217    0.2823   -1.1335 O.co2     1 COA         0.3195
     20 C4B         0.5412    1.2713   -0.8394 C.3       1 COA         0.1111
     21 O4B         1.7485    1.1278   -1.6124 O.3       1 COA        -0.1436
     22 C5B         0.6184    2.5901   -0.0816 C.3       1 COA         0.1504
     23 O5B         0.6777    3.6562   -1.0149 O.3       1 COA         0.1618
     24 P1A         0.7670    5.1936   -0.4641 P.3       1 COA        -1.1062
     25 O1A         0.8194    6.1476   -1.6376 O.co2     1 COA         0.3195
     26 O2A         1.8029    5.2507    0.6375 O.co2     1 COA         0.3195
     27 O3A        -0.6886    5.3125    0.2679 O.3       1 COA         0.4672
     28 P2A        -1.1429    6.2040    1.5594 P.3       1 COA        -1.1062
     29 O4A        -2.6377    6.0612    1.7476 O.co2     1 COA         0.3195
     30 O5A        -0.1888    5.9134    2.6974 O.co2     1 COA         0.3195
     31 O6A        -0.8065    7.6957    0.9792 O.3       1 COA         0.1618
     32 CBP        -1.0090    9.5771   -0.5793 C.3       1 COA         0.0000
     33 CCP        -1.4652    8.1470   -0.1994 C.3       1 COA         0.1504
     34 CDP         0.5182    9.5632   -0.8289 C.3       1 COA         0.1179
     35 CEP        -1.6888   10.0085   -1.8940 C.3       1 COA         0.1179
     36 CAP        -1.3149   10.5877    0.5658 C.3       1 COA         0.0611
     37 OAP        -0.8841   11.8921    0.1862 O.3       1 COA        -0.2728
     38 C9P        -2.7940   10.7032    0.9282 C.2       1 COA         0.3561
     39 O9P        -3.5554   11.4723    0.3443 O.2       1 COA        -0.2391
     40 N8P        -3.1652    9.8410    1.9474 N.am      1 COA        -0.1909
     41 C7P        -4.5178    9.7490    2.4468 C.3       1 COA         0.1160
     42 C6P        -4.4962    9.3561    3.9169 C.3       1 COA         0.0286
     43 C5P        -5.8906    9.2414    4.5063 C.2       1 COA         0.3561
     44 O5P        -6.9132    9.4473    3.8585 O.2       1 COA        -0.2391
     45 N4P        -5.8502    8.8828    5.8457 N.am      1 COA        -0.1909
     46 C3P        -7.0385    8.7070    6.6486 C.3       1 COA         0.1160
     47 C2P        -7.5663    7.2820    6.6145 C.3       1 COA         0.2607
     48 S1P        -6.3505    6.0807    7.2360 S.3       1 COA        -0.3539
     49 H2A         4.6492    4.1260    1.1552 H         1 COA        -0.1369
     50 H61A        8.7564    3.1335   -0.6708 H         1 COA         0.2048
     51 H62A        8.4991    1.6788   -1.5963 H         1 COA         0.2048
     52 H8A         4.7208   -1.1726   -2.4865 H         1 COA        -0.1292
     53 H1B         2.4085   -0.8200   -1.8256 H         1 COA        -0.0393
     54 H2B         2.3286    0.5212    0.9904 H         1 COA        -0.0393
     55 H3B        -0.0977    0.2245    0.9885 H         1 COA        -0.0393
     56 H4B        -0.2996    1.3083   -1.5416 H         1 COA        -0.0393
     57 H51A        1.5144    2.6204    0.5455 H         1 COA        -0.0393
     58 H52A       -0.2654    2.7227    0.5494 H         1 COA        -0.0393
     59 H121       -1.2324    7.4355   -0.9984 H         1 COA        -0.0393
     60 H122       -2.5440    8.1138   -0.0133 H         1 COA        -0.0393
     61 H131        0.8796   10.5616   -1.1013 H         1 COA        -0.0393
     62 H132        0.7886    8.8842   -1.6454 H         1 COA        -0.0393
     63 H133        1.0681    9.2399    0.0618 H         1 COA        -0.0393
     64 H141       -1.3855   11.0192   -2.1904 H         1 COA        -0.0393
     65 H142       -2.7797   10.0132   -1.7903 H         1 COA        -0.0393
     66 H143       -1.4280    9.3402   -2.7211 H         1 COA        -0.0393
     67 H10        -0.7524   10.3112    1.4665 H         1 COA        -0.0393
     68 HO1        -1.3767   12.1229   -0.6167 H         1 COA         0.2010
     69 HN8        -2.4720    9.2197    2.3532 H         1 COA         0.0865
     70 H71        -5.0173   10.7137    2.3122 H         1 COA        -0.0393
     71 H72        -5.0694    9.0098    1.8574 H         1 COA        -0.0393
     72 H61        -3.9360   10.0997    4.4973 H         1 COA        -0.0393
     73 H62        -3.9879    8.3918    4.0415 H         1 COA        -0.0393
     74 HN4        -4.9444    8.7372    6.2817 H         1 COA         0.0865
     75 H31        -6.7571    8.9709    7.6714 H         1 COA        -0.0393
     76 H32        -7.7805    9.4319    6.3044 H         1 COA        -0.0393
     77 H21        -8.4813    7.1879    7.2082 H         1 COA        -0.0393
     78 H22        -7.8031    7.0091    5.5815 H         1 COA        -0.0393
     79 HS1        -5.4072    6.3544    6.3252 H         1 COA         0.1718
@<TRIPOS>BOND
     1    1    2 ar
     2    1    6 ar
     3    2    3 ar
     4    2   49 1
     5    3    4 ar
     6    4    5 ar
     7    4   10 ar
     8    5    6 ar
     9    5    8 ar
    10    6    7 1
    11    7   50 1
    12    7   51 1
    13    8    9 ar
    14    9   10 ar
    15    9   52 1
    16   10   11 1
    17   11   12 1
    18   11   21 1
    19   11   53 1
    20   12   13 1
    21   12   14 1
    22   12   54 1
    23   14   15 1
    24   14   20 1
    25   14   55 1
    26   15   16 1
    27   16   17 2
    28   16   18 1
    29   16   19 1
    30   20   21 1
    31   20   22 1
    32   20   56 1
    33   22   23 1
    34   22   57 1
    35   22   58 1
    36   23   24 1
    37   24   25 2
    38   24   26 1
    39   24   27 1
    40   27   28 1
    41   28   29 2
    42   28   30 1
    43   28   31 1
    44   31   33 1
    45   32   33 1
    46   32   34 1
    47   32   35 1
    48   32   36 1
    49   33   59 1
    50   33   60 1
    51   34   61 1
    52   34   62 1
    53   34   63 1
    54   35   64 1
    55   35   65 1
    56   35   66 1
    57   36   37 1
    58   36   38 1
    59   36   67 1
    60   37   68 1
    61   38   39 2
    62   38   40 am
    63   40   41 1
    64   40   69 1
    65   41   42 1
    66   41   70 1
    67   41   71 1
    68   42   43 1
    69   42   72 1
    70   42   73 1
    71   43   44 2
    72   43   45 am
    73   45   46 1
    74   45   74 1
    75   46   47 1
    76   46   75 1
    77   46   76 1
    78   47   48 1
    79   47   77 1
    80   47   78 1
    81   48   79 1
@<TRIPOS>SUBSTRUCTURE
     1 COA         1 GROUP 0 A     ****
@<TRIPOS>MOLECULE
[5-(6-aminopurin-9-yl)-2-[[[[3-hydroxy-2,2-dimethyl-4-oxo-4-[[3-oxo-3-(2-sulfanylethylamino)propyl]amino]butoxy]-oxido-phosphoryl]oxy-oxido-phosphoryl]oxymethyl]-4-oxido-tetrahydrofuran-3-yl] phosphate
   79    81     1     0     0
SMALL
USER_CHARGES

@<TRIPOS>ATOM
      1 N1A         6.3197    3.3711    0.1967 N.ar      1 COA        -0.5260
      2 C2A         5.0033    3.3256    0.5141 C.ar      1 COA         0.6629
      3 N3A         4.0730    2.4196    0.1418 N.ar      1 COA        -0.5260
      4 C4A         4.6208    1.4811   -0.6447 C.ar      1 COA         0.5212
      5 C5A         5.9423    1.3962   -1.0530 C.ar      1 COA         0.0088
      6 C6A         6.8050    2.3902   -0.6021 C.ar      1 COA         0.5212
      7 N6A         8.1621    2.3826   -0.9671 N.pl3     1 COA        -0.6025
      8 N7A         6.1335    0.2987   -1.8543 N.2       1 COA        -0.4271
      9 C8A         4.9500   -0.2731   -1.9316 C.ar      1 COA         0.5691
     10 N9A         4.0006    0.4065   -1.2155 N.pl3     1 COA        -0.5033
     11 C1B         2.5376    0.0288   -1.0907 C.3       1 COA         0.2693
     12 C2B         1.9579   -0.2640    0.3131 C.3       1 COA         0.2008
     13 O2B         2.1299   -1.5323    0.6368 O.co2     1 COA        -0.1615
     14 C3B         0.4729    0.0487    0.0699 C.3       1 COA         0.1111
     15 O3B        -0.1943   -0.9780   -0.6709 O.3       1 COA         0.1618
     16 P3B        -1.8364   -1.0586   -0.5907 P.3       1 COA        -1.1921
     17 O7A        -2.1459   -1.2889    0.8856 O.co2     1 COA         0.3195
     18 O8A        -2.1706   -2.2476   -1.4866 O.co2     1 COA         0.3195
     19 O9A        -2.3217    0.2823   -1.1335 O.co2     1 COA         0.3195
     20 C4B         0.5412    1.2713   -0.8394 C.3       1 COA         0.1111
     21 O4B         1.7485    1.1278   -1.6124 O.3       1 COA        -0.1436
     22 C5B         0.6184    2.5901   -0.0816 C.3       1 COA         0.1504
     23 O5B         0.6777    3.6562   -1.0149 O.3       1 COA         0.1618
     24 P1A         0.7670    5.1936   -0.4641 P.3       1 COA        -1.1062
     25 O1A         0.8194    6.1476   -1.6376 O.co2     1 COA         0.3195
     26 O2A         1.8029    5.2507    0.6375 O.co2     1 COA         0.3195
     27 O3A        -0.6886    5.3125    0.2679 O.3       1 COA         0.4672
     28 P2A        -1.1429    6.2040    1.5594 P.3       1 COA        -1.1062
     29 O4A        -2.6377    6.0612    1.7476 O.co2     1 COA         0.3195
     30 O5A        -0.1888    5.9134    2.6974 O.co2     1 COA         0.3195
     31 O6A        -0.8065    7.6957    0.9792 O.3       1 COA         0.1618
     32 CBP        -1.0090    9.5771   -0.5793 C.3       1 COA         0.0000
     33 CCP        -1.4652    8.1470   -0.1994 C.3       1 COA         0.1504
     34 CDP         0.5182    9.5632   -0.8289 C.3       1 COA         0.1179
     35 CEP        -1.6888   10.0085   -1.8940 C.3       1 COA         0.1179
     36 CAP        -1.3149   10.5877    0.5658 C.3       1 COA         0.0611
     37 OAP        -0.8841   11.8921    0.1862 O.3       1 COA        -0.2728
     38 C9P        -2.7940   10.7032    0.9282 C.2       1 COA         0.3561
     39 O9P        -3.5554   11.4723    0.3443 O.2       1 COA        -0.2391
     40 N8P        -3.1652    9.8410    1.9474 N.am      1 COA        -0.1909
     41 C7P        -4.5178    9.7490    2.4468 C.3       1 COA         0.1160
     42 C6P        -5.2856    8.6982    1.6581 C.3       1 COA         0.0286
     43 C5P        -6.7198    8.5504    2.1335 C.2       1 COA         0.3561
     44 O5P        -7.3637    9.4735    2.6244 O.2       1 COA        -0.2391
     45 N4P        -7.1896    7.2591    1.9433 N.am      1 COA        -0.1909
     46 C3P        -8.5243    6.8461    2.3114 C.3       1 COA         0.1160
     47 C2P        -8.6065    6.3222    3.7358 C.3       1 COA         0.2607
     48 S1P       -10.2915    5.8062    4.1853 S.3       1 COA        -0.3539
     49 H2A         4.6492    4.1260    1.1552 H         1 COA        -0.1369
     50 H61A        8.7564    3.1335   -0.6708 H         1 COA         0.2048
     51 H62A        8.4991    1.6788   -1.5963 H         1 COA         0.2048
     52 H8A         4.7208   -1.1726   -2.4865 H         1 COA        -0.1292
     53 H1B         2.4085   -0.8200   -1.8256 H         1 COA        -0.0393
     54 H2B         2.3286    0.5212    0.9904 H         1 COA        -0.0393
     55 H3B        -0.0977    0.2245    0.9885 H         1 COA        -0.0393
     56 H4B        -0.2996    1.3083   -1.5416 H         1 COA        -0.0393
     57 H51A        1.5144    2.6204    0.5455 H         1 COA        -0.0393
     58 H52A       -0.2654    2.7227    0.5494 H         1 COA        -0.0393
     59 H121       -1.2324    7.4355   -0.9984 H         1 COA        -0.0393
     60 H122       -2.5440    8.1138   -0.0133 H         1 COA        -0.0393
     61 H131        0.8796   10.5616   -1.1013 H         1 COA        -0.0393
     62 H132        0.7886    8.8842   -1.6454 H         1 COA        -0.0393
     63 H133        1.0681    9.2399    0.0618 H         1 COA        -0.0393
     64 H141       -1.3855   11.0192   -2.1904 H         1 COA        -0.0393
     65 H142       -2.7797   10.0132   -1.7903 H         1 COA        -0.0393
     66 H143       -1.4280    9.3402   -2.7211 H         1 COA        -0.0393
     67 H10        -0.7524   10.3112    1.4665 H         1 COA        -0.0393
     68 HO1        -1.3767   12.1229   -0.6167 H         1 COA         0.2010
     69 HN8        -2.4720    9.2197    2.3532 H         1 COA         0.0865
     70 H71        -4.4918    9.4911    3.5103 H         1 COA        -0.0393
     71 H72        -5.0009   10.7274    2.3591 H         1 COA        -0.0393
     72 H61        -4.7899    7.7236    1.7475 H         1 COA        -0.0393
     73 H62        -5.3000    8.9626    0.5933 H         1 COA        -0.0393
     74 HN4        -6.5673    6.5730    1.5264 H         1 COA         0.0865
     75 H31        -9.1568    7.7317    2.2080 H         1 COA        -0.0393
     76 H32        -8.8558    6.1064    1.5783 H         1 COA        -0.0393
     77 H21        -7.9331    5.4711    3.8807 H         1 COA        -0.0393
     78 H22        -8.3065    7.1135    4.4298 H         1 COA        -0.0393
     79 HS1       -10.8595    7.0038    3.9915 H         1 COA         0.1718
@<TRIPOS>BOND
     1    1    2 ar
     2    1    6 ar
     3    2    3 ar
     4    2   49 1
     5    3    4 ar
     6    4    5 ar
     7    4   10 ar
     8    5    6 ar
     9    5    8 ar
    10    6    7 1
    11    7   50 1
    12    7   51 1
    13    8    9 ar
    14    9   10 ar
    15    9   52 1
    16   10   11 1
    17   11   12 1
    18   11   21 1
    19   11   53 1
    20   12   13 1
    21   12   14 1
    22   12   54 1
    23   14   15 1
    24   14   20 1
    25   14   55 1
    26   15   16 1
    27   16   17 2
    28   16   18 1
    29   16   19 1
    30   20   21 1
    31   20   22 1
    32   20   56 1
    33   22   23 1
    34   22   57 1
    35   22   58 1
    36   23   24 1
    37   24   25 2
    38   24   26 1
    39   24   27 1
    40   27   28 1
    41   28   29 2
    42   28   30 1
    43   28   31 1
    44   31   33 1
    45   32   33 1
    46   32   34 1
    47   32   35 1
    48   32   36 1
    49   33   59 1
    50   33   60 1
    51   34   61 1
    52   34   62 1
    53   34   63 1
    54   35   64 1
    55   35   65 1
    56   35   66 1
    57   36   37 1
    58   36   38 1
    59   36   67 1
    60   37   68 1
    61   38   39 2
    62   38   40 am
    63   40   41 1
    64   40   69 1
    65   41   42 1
    66   41   70 1
    67   41   71 1
    68   42   43 1
    69   42   72 1
    70   42   73 1
    71   43   44 2
    72   43   45 am
    73   45   46 1
    74   45   74 1
    75   46   47 1
    76   46   75 1
    77   46   76 1
    78   47   48 1
    79   47   77 1
    80   47   78 1
    81   48   79 1
@<TRIPOS>SUBSTRUCTURE
     1 COA         1 GROUP 0 A     ****
@<TRIPOS>MOLECULE
[5-(6-aminopurin-9-yl)-2-[[[[3-hydroxy-2,2-dimethyl-4-oxo-4-[[3-oxo-3-(2-sulfanylethylamino)propyl]amino]butoxy]-oxido-phosphoryl]oxy-oxido-phosphoryl]oxymethyl]-4-oxido-tetrahydrofuran-3-yl] phosphate
   79    81     1     0     0
SMALL
USER_CHARGES

@<TRIPOS>ATOM
      1 N1A         6.3197    3.3711    0.1967 N.ar      1 COA        -0.5260
      2 C2A         5.0033    3.3256    0.5141 C.ar      1 COA         0.6629
      3 N3A         4.0730    2.4196    0.1418 N.ar      1 COA        -0.5260
      4 C4A         4.6208    1.4811   -0.6447 C.ar      1 COA         0.5212
      5 C5A         5.9423    1.3962   -1.0530 C.ar      1 COA         0.0088
      6 C6A         6.8050    2.3902   -0.6021 C.ar      1 COA         0.5212
      7 N6A         8.1621    2.3826   -0.9671 N.pl3     1 COA        -0.6025
      8 N7A         6.1335    0.2987   -1.8543 N.2       1 COA        -0.4271
      9 C8A         4.9500   -0.2731   -1.9316 C.ar      1 COA         0.5691
     10 N9A         4.0006    0.4065   -1.2155 N.pl3     1 COA        -0.5033
     11 C1B         2.5376    0.0288   -1.0907 C.3       1 COA         0.2693
     12 C2B         1.9579   -0.2640    0.3131 C.3       1 COA         0.2008
     13 O2B         2.1299   -1.5323    0.6368 O.co2     1 COA        -0.1615
     14 C3B         0.4729    0.0487    0.0699 C.3       1 COA         0.1111
     15 O3B        -0.1943   -0.9780   -0.6709 O.3       1 COA         0.1618
     16 P3B        -1.8364   -1.0586   -0.5907 P.3       1 COA        -1.1921
     17 O7A        -2.1459   -1.2889    0.8856 O.co2     1 COA         0.3195
     18 O8A        -2.1706   -2.2476   -1.4866 O.co2     1 COA         0.3195
     19 O9A        -2.3217    0.2823   -1.1335 O.co2     1 COA         0.3195
     20 C4B         0.5412    1.2713   -0.8394 C.3       1 COA         0.1111
     21 O4B         1.7485    1.1278   -1.6124 O.3       1 COA        -0.1436
     22 C5B         0.6184    2.5901   -0.0816 C.3       1 COA         0.1504
     23 O5B         0.6777    3.6562   -1.0149 O.3       1 COA         0.1618
     24 P1A         0.7670    5.1936   -0.4641 P.3       1 COA        -1.1062
     25 O1A         0.8194    6.1476   -1.6376 O.co2     1 COA         0.3195
     26 O2A         1.8029    5.2507    0.6375 O.co2     1 COA         0.3195
     27 O3A        -0.6886    5.3125    0.2679 O.3       1 COA         0.4672
     28 P2A        -1.1429    6.2040    1.5594 P.3       1 COA        -1.1062
     29 O4A        -2.6377    6.0612    1.7476 O.co2     1 COA         0.3195
     30 O5A        -0.1888    5.9134    2.6974 O.co2     1 COA         0.3195
     31 O6A        -0.8065    7.6957    0.9792 O.3       1 COA         0.1618
     32 CBP        -1.0090    9.5771   -0.5793 C.3       1 COA         0.0000
     33 CCP        -1.4652    8.1470   -0.1994 C.3       1 COA         0.1504
     34 CDP         0.5182    9.5632   -0.8289 C.3       1 COA         0.1179
     35 CEP        -1.6888   10.0085   -1.8940 C.3       1 COA         0.1179
     36 CAP        -1.3149   10.5877    0.5658 C.3       1 COA         0.0611
     37 OAP        -2.7163   10.6149    0.8239 O.3       1 COA        -0.2728
     38 C9P        -0.6314   10.2649    1.8928 C.2       1 COA         0.3561
     39 O9P        -1.1331    9.5097    2.7236 O.2       1 COA        -0.2391
     40 N8P         0.5984   10.8887    2.0282 N.am      1 COA        -0.1909
     41 C7P         1.4450   10.7163    3.1861 C.3       1 COA         0.1160
     42 C6P         2.3820    9.5376    2.9657 C.3       1 COA         0.0286
     43 C5P         3.2803    9.7298    1.7570 C.2       1 COA         0.3561
     44 O5P         3.2433   10.7289    1.0441 O.2       1 COA        -0.2391
     45 N4P         4.1262    8.6460    1.5727 N.am      1 COA        -0.1909
     46 C3P         5.0832    8.5705    0.4929 C.3       1 COA         0.1160
     47 C2P         4.5093    7.9254   -0.7581 C.3       1 COA         0.2607
     48 S1P         5.7244    7.8371   -2.1084 S.3       1 COA        -0.3539
     49 H2A         4.6492    4.1260    1.1552 H         1 COA        -0.1369
     50 H61A        8.7564    3.1335   -0.6708 H         1 COA         0.2048
     51 H62A        8.4991    1.6788   -1.5963 H         1 COA         0.2048
     52 H8A         4.7208   -1.1726   -2.4865 H         1 COA        -0.1292
     53 H1B         2.4085   -0.8200   -1.8256 H         1 COA        -0.0393
     54 H2B         2.3286    0.5212    0.9904 H         1 COA        -0.0393
     55 H3B        -0.0977    0.2245    0.9885 H         1 COA        -0.0393
     56 H4B        -0.2996    1.3083   -1.5416 H         1 COA        -0.0393
     57 H51A        1.5144    2.6204    0.5455 H         1 COA        -0.0393
     58 H52A       -0.2654    2.7227    0.5494 H         1 COA        -0.0393
     59 H121       -1.2324    7.4355   -0.9984 H         1 COA        -0.0393
     60 H122       -2.5440    8.1138   -0.0133 H         1 COA        -0.0393
     61 H131        0.8796   10.5616   -1.1013 H         1 COA        -0.0393
     62 H132        0.7886    8.8842   -1.6454 H         1 COA        -0.0393
     63 H133        1.0681    9.2399    0.0618 H         1 COA        -0.0393
     64 H141       -1.3855   11.0192   -2.1904 H         1 COA        -0.0393
     65 H142       -2.7797   10.0132   -1.7903 H         1 COA        -0.0393
     66 H143       -1.4280    9.3402   -2.7211 H         1 COA        -0.0393
     67 H10        -1.0237   11.5996    0.2569 H         1 COA        -0.0393
     68 HO1        -2.9668    9.7148    1.0837 H         1 COA         0.2010
     69 HN8         0.9463   11.4752    1.2758 H         1 COA         0.0865
     70 H71         2.0143   11.6358    3.3556 H         1 COA        -0.0393
     71 H72         0.8185   10.5520    4.0685 H         1 COA        -0.0393
     72 H61         1.8021    8.6173    2.8222 H         1 COA        -0.0393
     73 H62         3.0170    9.3910    3.8484 H         1 COA        -0.0393
     74 HN4         4.0704    7.8705    2.2264 H         1 COA         0.0865
     75 H31         5.3776    9.6002    0.2740 H         1 COA        -0.0393
     76 H32         5.9624    8.0396    0.8665 H         1 COA        -0.0393
     77 H21         4.1500    6.9127   -0.5483 H         1 COA        -0.0393
     78 H22         3.6614    8.5188   -1.1141 H         1 COA        -0.0393
     79 HS1         6.6145    7.0873   -1.4451 H         1 COA         0.1718
@<TRIPOS>BOND
     1    1    2 ar
     2    1    6 ar
     3    2    3 ar
     4    2   49 1
     5    3    4 ar
     6    4    5 ar
     7    4   10 ar
     8    5    6 ar
     9    5    8 ar
    10    6    7 1
    11    7   50 1
    12    7   51 1
    13    8    9 ar
    14    9   10 ar
    15    9   52 1
    16   10   11 1
    17   11   12 1
    18   11   21 1
    19   11   53 1
    20   12   13 1
    21   12   14 1
    22   12   54 1
    23   14   15 1
    24   14   20 1
    25   14   55 1
    26   15   16 1
    27   16   17 2
    28   16   18 1
    29   16   19 1
    30   20   21 1
    31   20   22 1
    32   20   56 1
    33   22   23 1
    34   22   57 1
    35   22   58 1
    36   23   24 1
    37   24   25 2
    38   24   26 1
    39   24   27 1
    40   27   28 1
    41   28   29 2
    42   28   30 1
    43   28   31 1
    44   31   33 1
    45   32   33 1
    46   32   34 1
    47   32   35 1
    48   32   36 1
    49   33   59 1
    50   33   60 1
    51   34   61 1
    52   34   62 1
    53   34   63 1
    54   35   64 1
    55   35   65 1
    56   35   66 1
    57   36   37 1
    58   36   38 1
    59   36   67 1
    60   37   68 1
    61   38   39 2
    62   38   40 am
    63   40   41 1
    64   40   69 1
    65   41   42 1
    66   41   70 1
    67   41   71 1
    68   42   43 1
    69   42   72 1
    70   42   73 1
    71   43   44 2
    72   43   45 am
    73   45   46 1
    74   45   74 1
    75   46   47 1
    76   46   75 1
    77   46   76 1
    78   47   48 1
    79   47   77 1
    80   47   78 1
    81   48   79 1
@<TRIPOS>SUBSTRUCTURE
     1 COA         1 GROUP 0 A     ****
@<TRIPOS>MOLECULE
[5-(6-aminopurin-9-yl)-2-[[[[3-hydroxy-2,2-dimethyl-4-oxo-4-[[3-oxo-3-(2-sulfanylethylamino)propyl]amino]butoxy]-oxido-phosphoryl]oxy-oxido-phosphoryl]oxymethyl]-4-oxido-tetrahydrofuran-3-yl] phosphate
   79    81     1     0     0
SMALL
USER_CHARGES

@<TRIPOS>ATOM
      1 N1A         4.6908    0.9263    0.5284 N.ar      1 COA        -0.5260
      2 C2A         3.4193    1.3931    0.4919 C.ar      1 COA         0.6629
      3 N3A         2.4653    1.1803   -0.4405 N.ar      1 COA        -0.5260
      4 C4A         2.9338    0.3916   -1.4192 C.ar      1 COA         0.5212
      5 C5A         4.2020   -0.1580   -1.5185 C.ar      1 COA         0.0088
      6 C6A         5.0963    0.1348   -0.4937 C.ar      1 COA         0.5212
      7 N6A         6.4038   -0.3801   -0.5131 N.pl3     1 COA        -0.6025
      8 N7A         4.3170   -0.9111   -2.6598 N.2       1 COA        -0.4271
      9 C8A         3.1403   -0.8212   -3.2436 C.ar      1 COA         0.5691
     10 N9A         2.2683   -0.0422   -2.5302 N.pl3     1 COA        -0.5033
     11 C1B         0.8363    0.2748   -2.9142 C.3       1 COA         0.2693
     12 C2B        -0.3043   -0.1391   -1.9549 C.3       1 COA         0.2008
     13 O2B        -0.6991   -1.3747   -2.2004 O.co2     1 COA        -0.1615
     14 C3B        -1.3853    0.8773   -2.3558 C.3       1 COA         0.1111
     15 O3B        -2.0094    0.5576   -3.6033 O.3       1 COA         0.1618
     16 P3B        -3.4806    1.2180   -3.9334 P.3       1 COA        -1.1921
     17 O7A        -4.3962    0.7100   -2.8235 O.co2     1 COA         0.3195
     18 O8A        -3.8112    0.6588   -5.3140 O.co2     1 COA         0.3195
     19 O9A        -3.2466    2.7257   -3.9151 O.co2     1 COA         0.3195
     20 C4B        -0.5713    2.1464   -2.5855 C.3       1 COA         0.1111
     21 O4B         0.7211    1.7136   -3.0526 O.3       1 COA        -0.1436
     22 C5B        -0.3655    2.9745   -1.3239 C.3       1 COA         0.1504
     23 O5B         0.3986    4.1249   -1.6460 O.3       1 COA         0.1618
     24 P1A         0.7670    5.1936   -0.4641 P.3       1 COA        -1.1062
     25 O1A         1.1289    6.5260   -1.0837 O.co2     1 COA         0.3195
     26 O2A         1.6876    4.5161    0.5275 O.co2     1 COA         0.3195
     27 O3A        -0.6886    5.3125    0.2679 O.3       1 COA         0.4672
     28 P2A        -1.1429    6.2040    1.5594 P.3       1 COA        -1.1062
     29 O4A        -2.6377    6.0612    1.7476 O.co2     1 COA         0.3195
     30 O5A        -0.1888    5.9134    2.6974 O.co2     1 COA         0.3195
     31 O6A        -0.8065    7.6957    0.9792 O.3       1 COA         0.1618
     32 CBP        -1.0090    9.5771   -0.5793 C.3       1 COA         0.0000
     33 CCP        -1.4652    8.1470   -0.1994 C.3       1 COA         0.1504
     34 CDP         0.5182    9.5632   -0.8289 C.3       1 COA         0.1179
     35 CEP        -1.6888   10.0085   -1.8940 C.3       1 COA         0.1179
     36 CAP        -1.3149   10.5877    0.5658 C.3       1 COA         0.0611
     37 OAP        -0.8841   11.8921    0.1862 O.3       1 COA        -0.2728
     38 C9P        -2.7940   10.7032    0.9282 C.2       1 COA         0.3561
     39 O9P        -3.5554   11.4723    0.3443 O.2       1 COA        -0.2391
     40 N8P        -3.1652    9.8410    1.9474 N.am      1 COA        -0.1909
     41 C7P        -4.5178    9.7490    2.4468 C.3       1 COA         0.1160
     42 C6P        -5.2856    8.6982    1.6581 C.3       1 COA         0.0286
     43 C5P        -6.7198    8.5504    2.1335 C.2       1 COA         0.3561
     44 O5P        -7.1941    9.2100    3.0543 O.2       1 COA        -0.2391
     45 N4P        -7.4027    7.5889    1.4032 N.am      1 COA        -0.1909
     46 C3P        -8.7846    7.2479    1.6513 C.3       1 COA         0.1160
     47 C2P        -9.6760    7.4881    0.4439 C.3       1 COA         0.2607
     48 S1P        -9.6687    9.2284   -0.0840 S.3       1 COA        -0.3539
     49 H2A         3.1287    2.0232    1.3259 H         1 COA        -0.1369
     50 H61A        7.0472   -0.1189    0.2098 H         1 COA         0.2048
     51 H62A        6.7069   -0.9256   -1.2976 H         1 COA         0.2048
     52 H8A         2.8628   -1.2932   -4.1762 H         1 COA        -0.1292
     53 H1B         0.7316   -0.1451   -3.9582 H         1 COA        -0.0393
     54 H2B         0.0098    0.1350   -0.9357 H         1 COA        -0.0393
     55 H3B        -2.1756    1.0002   -1.6070 H         1 COA        -0.0393
     56 H4B        -1.0101    2.7804   -3.3646 H         1 COA        -0.0393
     57 H51A        0.1721    2.3946   -0.5677 H         1 COA        -0.0393
     58 H52A       -1.3279    3.2941   -0.9132 H         1 COA        -0.0393
     59 H121       -1.2324    7.4355   -0.9984 H         1 COA        -0.0393
     60 H122       -2.5440    8.1138   -0.0133 H         1 COA        -0.0393
     61 H131        0.8796   10.5616   -1.1013 H         1 COA        -0.0393
     62 H132        0.7886    8.8842   -1.6454 H         1 COA        -0.0393
     63 H133        1.0681    9.2399    0.0618 H         1 COA        -0.0393
     64 H141       -1.3855   11.0192   -2.1904 H         1 COA        -0.0393
     65 H142       -2.7797   10.0132   -1.7903 H         1 COA        -0.0393
     66 H143       -1.4280    9.3402   -2.7211 H         1 COA        -0.0393
     67 H10        -0.7524   10.3112    1.4665 H         1 COA        -0.0393
     68 HO1        -1.3767   12.1229   -0.6167 H         1 COA         0.2010
     69 HN8        -2.4720    9.2197    2.3532 H         1 COA         0.0865
     70 H71        -4.4918    9.4911    3.5103 H         1 COA        -0.0393
     71 H72        -5.0009   10.7274    2.3591 H         1 COA        -0.0393
     72 H61        -4.7899    7.7236    1.7475 H         1 COA        -0.0393
     73 H62        -5.3000    8.9626    0.5933 H         1 COA        -0.0393
     74 HN4        -6.9090    7.1027    0.6604 H         1 COA         0.0865
     75 H31        -8.7946    6.1860    1.9107 H         1 COA        -0.0393
     76 H32        -9.1127    7.8131    2.5274 H         1 COA        -0.0393
     77 H21        -9.3657    6.8676   -0.4031 H         1 COA        -0.0393
     78 H22       -10.7072    7.2236    0.6978 H         1 COA        -0.0393
     79 HS1       -10.1356    9.7250    1.0691 H         1 COA         0.1718
@<TRIPOS>BOND
     1    1    2 ar
     2    1    6 ar
     3    2    3 ar
     4    2   49 1
     5    3    4 ar
     6    4    5 ar
     7    4   10 ar
     8    5    6 ar
     9    5    8 ar
    10    6    7 1
    11    7   50 1
    12    7   51 1
    13    8    9 ar
    14    9   10 ar
    15    9   52 1
    16   10   11 1
    17   11   12 1
    18   11   21 1
    19   11   53 1
    20   12   13 1
    21   12   14 1
    22   12   54 1
    23   14   15 1
    24   14   20 1
    25   14   55 1
    26   15   16 1
    27   16   17 2
    28   16   18 1
    29   16   19 1
    30   20   21 1
    31   20   22 1
    32   20   56 1
    33   22   23 1
    34   22   57 1
    35   22   58 1
    36   23   24 1
    37   24   25 2
    38   24   26 1
    39   24   27 1
    40   27   28 1
    41   28   29 2
    42   28   30 1
    43   28   31 1
    44   31   33 1
    45   32   33 1
    46   32   34 1
    47   32   35 1
    48   32   36 1
    49   33   59 1
    50   33   60 1
    51   34   61 1
    52   34   62 1
    53   34   63 1
    54   35   64 1
    55   35   65 1
    56   35   66 1
    57   36   37 1
    58   36   38 1
    59   36   67 1
    60   37   68 1
    61   38   39 2
    62   38   40 am
    63   40   41 1
    64   40   69 1
    65   41   42 1
    66   41   70 1
    67   41   71 1
    68   42   43 1
    69   42   72 1
    70   42   73 1
    71   43   44 2
    72   43   45 am
    73   45   46 1
    74   45   74 1
    75   46   47 1
    76   46   75 1
    77   46   76 1
    78   47   48 1
    79   47   77 1
    80   47   78 1
    81   48   79 1
@<TRIPOS>SUBSTRUCTURE
     1 COA         1 GROUP 0 A     ****
@<TRIPOS>MOLECULE
[5-(6-aminopurin-9-yl)-2-[[[[3-hydroxy-2,2-dimethyl-4-oxo-4-[[3-oxo-3-(2-sulfanylethylamino)propyl]amino]butoxy]-oxido-phosphoryl]oxy-oxido-phosphoryl]oxymethyl]-4-oxido-tetrahydrofuran-3-yl] phosphate
   79    81     1     0     0
SMALL
USER_CHARGES

@<TRIPOS>ATOM
      1 N1A         5.7146    2.0302   -0.7890 N.ar      1 COA        -0.5260
      2 C2A         4.3962    2.1571   -0.5034 C.ar      1 COA         0.6629
      3 N3A         3.3299    1.7526   -1.2276 N.ar      1 COA        -0.5260
      4 C4A         3.7311    1.1587   -2.3614 C.ar      1 COA         0.5212
      5 C5A         5.0346    0.9576   -2.7868 C.ar      1 COA         0.0088
      6 C6A         6.0470    1.4195   -1.9517 C.ar      1 COA         0.5212
      7 N6A         7.3978    1.2581   -2.3043 N.pl3     1 COA        -0.6025
      8 N7A         5.0562    0.3154   -3.9993 N.2       1 COA        -0.4271
      9 C8A         3.7892    0.1293   -4.3054 C.ar      1 COA         0.5691
     10 N9A         2.9479    0.6234   -3.3440 N.pl3     1 COA        -0.5033
     11 C1B         1.4328    0.5815   -3.3775 C.3       1 COA         0.2693
     12 C2B         0.6799   -0.1567   -2.2458 C.3       1 COA         0.2008
     13 O2B         0.5449   -1.4388   -2.5302 O.co2     1 COA        -0.1615
     14 C3B        -0.6749    0.5672   -2.2968 C.3       1 COA         0.1111
     15 O3B        -1.4782    0.1594   -3.4088 O.3       1 COA         0.1618
     16 P3B        -3.0996    0.4363   -3.3454 P.3       1 COA        -1.1921
     17 O7A        -3.5828   -0.3425   -2.1254 O.co2     1 COA         0.3195
     18 O8A        -3.6001   -0.1211   -4.6746 O.co2     1 COA         0.3195
     19 O9A        -3.2339    1.9510   -3.2185 O.co2     1 COA         0.3195
     20 C4B        -0.2635    2.0121   -2.5599 C.3       1 COA         0.1111
     21 O4B         0.9490    1.9478   -3.3354 O.3       1 COA        -0.1436
     22 C5B         0.0275    2.8029   -1.2913 C.3       1 COA         0.1504
     23 O5B         0.3986    4.1249   -1.6460 O.3       1 COA         0.1618
     24 P1A         0.7670    5.1936   -0.4641 P.3       1 COA        -1.1062
     25 O1A         1.1289    6.5260   -1.0837 O.co2     1 COA         0.3195
     26 O2A         1.6876    4.5161    0.5275 O.co2     1 COA         0.3195
     27 O3A        -0.6886    5.3125    0.2679 O.3       1 COA         0.4672
     28 P2A        -1.1429    6.2040    1.5594 P.3       1 COA        -1.1062
     29 O4A        -2.6377    6.0612    1.7476 O.co2     1 COA         0.3195
     30 O5A        -0.1888    5.9134    2.6974 O.co2     1 COA         0.3195
     31 O6A        -0.8065    7.6957    0.9792 O.3       1 COA         0.1618
     32 CBP        -1.0090    9.5771   -0.5793 C.3       1 COA         0.0000
     33 CCP        -1.4652    8.1470   -0.1994 C.3       1 COA         0.1504
     34 CDP         0.5182    9.5632   -0.8289 C.3       1 COA         0.1179
     35 CEP        -1.6888   10.0085   -1.8940 C.3       1 COA         0.1179
     36 CAP        -1.3149   10.5877    0.5658 C.3       1 COA         0.0611
     37 OAP        -2.7163   10.6149    0.8239 O.3       1 COA        -0.2728
     38 C9P        -0.6314   10.2649    1.8928 C.2       1 COA         0.3561
     39 O9P        -1.1331    9.5097    2.7236 O.2       1 COA        -0.2391
     40 N8P         0.5984   10.8887    2.0282 N.am      1 COA        -0.1909
     41 C7P         1.4450   10.7163    3.1861 C.3       1 COA         0.1160
     42 C6P         2.3820    9.5376    2.9657 C.3       1 COA         0.0286
     43 C5P         3.2803    9.7298    1.7570 C.2       1 COA         0.3561
     44 O5P         3.6542   10.8321    1.3659 O.2       1 COA        -0.2391
     45 N4P         3.6102    8.5176    1.1688 N.am      1 COA        -0.1909
     46 C3P         4.4529    8.4147   -0.0003 C.3       1 COA         0.1160
     47 C2P         5.9267    8.2813    0.3463 C.3       1 COA         0.2607
     48 S1P         6.2684    6.8042    1.3509 S.3       1 COA        -0.3539
     49 H2A         4.1666    2.6505    0.4351 H         1 COA        -0.1369
     50 H61A        8.1108    1.6399   -1.7121 H         1 COA         0.2048
     51 H62A        7.6305    0.8472   -3.1886 H         1 COA         0.2048
     52 H8A         3.4224   -0.3522   -5.2016 H         1 COA        -0.1292
     53 H1B         1.1905    0.2000   -4.4133 H         1 COA        -0.0393
     54 H2B         1.1486    0.1388   -1.2941 H         1 COA        -0.0393
     55 H3B        -1.2745    0.4471   -1.3878 H         1 COA        -0.0393
     56 H4B        -1.0100    2.5497   -3.1559 H         1 COA        -0.0393
     57 H51A        0.8489    2.3441   -0.7330 H         1 COA        -0.0393
     58 H52A       -0.8601    2.8452   -0.6531 H         1 COA        -0.0393
     59 H121       -1.2324    7.4355   -0.9984 H         1 COA        -0.0393
     60 H122       -2.5440    8.1138   -0.0133 H         1 COA        -0.0393
     61 H131        0.8796   10.5616   -1.1013 H         1 COA        -0.0393
     62 H132        0.7886    8.8842   -1.6454 H         1 COA        -0.0393
     63 H133        1.0681    9.2399    0.0618 H         1 COA        -0.0393
     64 H141       -1.3855   11.0192   -2.1904 H         1 COA        -0.0393
     65 H142       -2.7797   10.0132   -1.7903 H         1 COA        -0.0393
     66 H143       -1.4280    9.3402   -2.7211 H         1 COA        -0.0393
     67 H10        -1.0237   11.5996    0.2569 H         1 COA        -0.0393
     68 HO1        -2.9668    9.7148    1.0837 H         1 COA         0.2010
     69 HN8         0.9463   11.4752    1.2758 H         1 COA         0.0865
     70 H71         2.0143   11.6358    3.3556 H         1 COA        -0.0393
     71 H72         0.8185   10.5520    4.0685 H         1 COA        -0.0393
     72 H61         1.8021    8.6173    2.8222 H         1 COA        -0.0393
     73 H62         3.0170    9.3910    3.8484 H         1 COA        -0.0393
     74 HN4         3.2429    7.6638    1.5785 H         1 COA         0.0865
     75 H31         4.1194    7.5239   -0.5390 H         1 COA        -0.0393
     76 H32         4.2527    9.2853   -0.6301 H         1 COA        -0.0393
     77 H21         6.5405    8.2343   -0.5591 H         1 COA        -0.0393
     78 H22         6.2424    9.1552    0.9246 H         1 COA        -0.0393
     79 HS1         5.4771    7.1475    2.3757 H         1 COA         0.1718
@<TRIPOS>BOND
     1    1    2 ar
     2    1    6 ar
     3    2    3 ar
     4    2   49 1
     5    3    4 ar
     6    4    5 ar
     7    4   10 ar
     8    5    6 ar
     9    5    8 ar
    10    6    7 1
    11    7   50 1
    12    7   51 1
    13    8    9 ar
    14    9   10 ar
    15    9   52 1
    16   10   11 1
    17   11   12 1
    18   11   21 1
    19   11   53 1
    20   12   13 1
    21   12   14 1
    22   12   54 1
    23   14   15 1
    24   14   20 1
    25   14   55 1
    26   15   16 1
    27   16   17 2
    28   16   18 1
    29   16   19 1
    30   20   21 1
    31   20   22 1
    32   20   56 1
    33   22   23 1
    34   22   57 1
    35   22   58 1
    36   23   24 1
    37   24   25 2
    38   24   26 1
    39   24   27 1
    40   27   28 1
    41   28   29 2
    42   28   30 1
    43   28   31 1
    44   31   33 1
    45   32   33 1
    46   32   34 1
    47   32   35 1
    48   32   36 1
    49   33   59 1
    50   33   60 1
    51   34   61 1
    52   34   62 1
    53   34   63 1
    54   35   64 1
    55   35   65 1
    56   35   66 1
    57   36   37 1
    58   36   38 1
    59   36   67 1
    60   37   68 1
    61   38   39 2
    62   38   40 am
    63   40   41 1
    64   40   69 1
    65   41   42 1
    66   41   70 1
    67   41   71 1
    68   42   43 1
    69   42   72 1
    70   42   73 1
    71   43   44 2
    72   43   45 am
    73   45   46 1
    74   45   74 1
    75   46   47 1
    76   46   75 1
    77   46   76 1
    78   47   48 1
    79   47   77 1
    80   47   78 1
    81   48   79 1
@<TRIPOS>SUBSTRUCTURE
     1 COA         1 GROUP 0 A     ****
@<TRIPOS>MOLECULE
[5-(6-aminopurin-9-yl)-2-[[[[3-hydroxy-2,2-dimethyl-4-oxo-4-[[3-oxo-3-(2-sulfanylethylamino)propyl]amino]butoxy]-oxido-phosphoryl]oxy-oxido-phosphoryl]oxymethyl]-4-oxido-tetrahydrofuran-3-yl] phosphate
   79    81     1     0     0
SMALL
USER_CHARGES

@<TRIPOS>ATOM
      1 N1A         6.3197    3.3711    0.1967 N.ar      1 COA        -0.5260
      2 C2A         5.0033    3.3256    0.5141 C.ar      1 COA         0.6629
      3 N3A         4.0730    2.4196    0.1418 N.ar      1 COA        -0.5260
      4 C4A         4.6208    1.4811   -0.6447 C.ar      1 COA         0.5212
      5 C5A         5.9423    1.3962   -1.0530 C.ar      1 COA         0.0088
      6 C6A         6.8050    2.3902   -0.6021 C.ar      1 COA         0.5212
      7 N6A         8.1621    2.3826   -0.9671 N.pl3     1 COA        -0.6025
      8 N7A         6.1335    0.2987   -1.8543 N.2       1 COA        -0.4271
      9 C8A         4.9500   -0.2731   -1.9316 C.ar      1 COA         0.5691
     10 N9A         4.0006    0.4065   -1.2155 N.pl3     1 COA        -0.5033
     11 C1B         2.5376    0.0288   -1.0907 C.3       1 COA         0.2693
     12 C2B         1.9579   -0.2640    0.3131 C.3       1 COA         0.2008
     13 O2B         2.1299   -1.5323    0.6368 O.co2     1 COA        -0.1615
     14 C3B         0.4729    0.0487    0.0699 C.3       1 COA         0.1111
     15 O3B        -0.1943   -0.9780   -0.6709 O.3       1 COA         0.1618
     16 P3B        -1.8364   -1.0586   -0.5907 P.3       1 COA        -1.1921
     17 O7A        -2.1459   -1.2889    0.8856 O.co2     1 COA         0.3195
     18 O8A        -2.1706   -2.2476   -1.4866 O.co2     1 COA         0.3195
     19 O9A        -2.3217    0.2823   -1.1335 O.co2     1 COA         0.3195
     20 C4B         0.5412    1.2713   -0.8394 C.3       1 COA         0.1111
     21 O4B         1.7485    1.1278   -1.6124 O.3       1 COA        -0.1436
     22 C5B         0.6184    2.5901   -0.0816 C.3       1 COA         0.1504
     23 O5B         0.6777    3.6562   -1.0149 O.3       1 COA         0.1618
     24 P1A         0.7670    5.1936   -0.4641 P.3       1 COA        -1.1062
     25 O1A         0.8194    6.1476   -1.6376 O.co2     1 COA         0.3195
     26 O2A         1.8029    5.2507    0.6375 O.co2     1 COA         0.3195
     27 O3A        -0.6886    5.3125    0.2679 O.3       1 COA         0.4672
     28 P2A        -1.1429    6.2040    1.5594 P.3       1 COA        -1.1062
     29 O4A        -2.6377    6.0612    1.7476 O.co2     1 COA         0.3195
     30 O5A        -0.1888    5.9134    2.6974 O.co2     1 COA         0.3195
     31 O6A        -0.8065    7.6957    0.9792 O.3       1 COA         0.1618
     32 CBP        -1.0090    9.5771   -0.5793 C.3       1 COA         0.0000
     33 CCP        -1.4652    8.1470   -0.1994 C.3       1 COA         0.1504
     34 CDP         0.5182    9.5632   -0.8289 C.3       1 COA         0.1179
     35 CEP        -1.6888   10.0085   -1.8940 C.3       1 COA         0.1179
     36 CAP        -1.3149   10.5877    0.5658 C.3       1 COA         0.0611
     37 OAP        -2.7163   10.6149    0.8239 O.3       1 COA        -0.2728
     38 C9P        -0.6314   10.2649    1.8928 C.2       1 COA         0.3561
     39 O9P        -1.1331    9.5097    2.7236 O.2       1 COA        -0.2391
     40 N8P         0.5984   10.8887    2.0282 N.am      1 COA        -0.1909
     41 C7P         1.4450   10.7163    3.1861 C.3       1 COA         0.1160
     42 C6P         2.3820    9.5376    2.9657 C.3       1 COA         0.0286
     43 C5P         3.3027    9.3002    4.1492 C.2       1 COA         0.3561
     44 O5P         3.2843    9.9910    5.1643 O.2       1 COA        -0.2391
     45 N4P         4.1483    8.2228    3.9296 N.am      1 COA        -0.1909
     46 C3P         5.1273    7.7820    4.8964 C.3       1 COA         0.1160
     47 C2P         4.5773    6.7420    5.8587 C.3       1 COA         0.2607
     48 S1P         3.9999    5.2455    5.0014 S.3       1 COA        -0.3539
     49 H2A         4.6492    4.1260    1.1552 H         1 COA        -0.1369
     50 H61A        8.7564    3.1335   -0.6708 H         1 COA         0.2048
     51 H62A        8.4991    1.6788   -1.5963 H         1 COA         0.2048
     52 H8A         4.7208   -1.1726   -2.4865 H         1 COA        -0.1292
     53 H1B         2.4085   -0.8200   -1.8256 H         1 COA        -0.0393
     54 H2B         2.3286    0.5212    0.9904 H         1 COA        -0.0393
     55 H3B        -0.0977    0.2245    0.9885 H         1 COA        -0.0393
     56 H4B        -0.2996    1.3083   -1.5416 H         1 COA        -0.0393
     57 H51A        1.5144    2.6204    0.5455 H         1 COA        -0.0393
     58 H52A       -0.2654    2.7227    0.5494 H         1 COA        -0.0393
     59 H121       -1.2324    7.4355   -0.9984 H         1 COA        -0.0393
     60 H122       -2.5440    8.1138   -0.0133 H         1 COA        -0.0393
     61 H131        0.8796   10.5616   -1.1013 H         1 COA        -0.0393
     62 H132        0.7886    8.8842   -1.6454 H         1 COA        -0.0393
     63 H133        1.0681    9.2399    0.0618 H         1 COA        -0.0393
     64 H141       -1.3855   11.0192   -2.1904 H         1 COA        -0.0393
     65 H142       -2.7797   10.0132   -1.7903 H         1 COA        -0.0393
     66 H143       -1.4280    9.3402   -2.7211 H         1 COA        -0.0393
     67 H10        -1.0237   11.5996    0.2569 H         1 COA        -0.0393
     68 HO1        -2.9668    9.7148    1.0837 H         1 COA         0.2010
     69 HN8         0.9463   11.4752    1.2758 H         1 COA         0.0865
     70 H71         2.0143   11.6358    3.3556 H         1 COA        -0.0393
     71 H72         0.8185   10.5520    4.0685 H         1 COA        -0.0393
     72 H61         3.0005    9.7094    2.0760 H         1 COA        -0.0393
     73 H62         1.8018    8.6229    2.7903 H         1 COA        -0.0393
     74 HN4         4.0760    7.7211    3.0493 H         1 COA         0.0865
     75 H31         5.9515    7.3519    4.3213 H         1 COA        -0.0393
     76 H32         5.5028    8.6681    5.4145 H         1 COA        -0.0393
     77 H21         5.3329    6.4498    6.5952 H         1 COA        -0.0393
     78 H22         3.7239    7.1644    6.3982 H         1 COA        -0.0393
     79 HS1         3.0778    5.8628    4.2510 H         1 COA         0.1718
@<TRIPOS>BOND
     1    1    2 ar
     2    1    6 ar
     3    2    3 ar
     4    2   49 1
     5    3    4 ar
     6    4    5 ar
     7    4   10 ar
     8    5    6 ar
     9    5    8 ar
    10    6    7 1
    11    7   50 1
    12    7   51 1
    13    8    9 ar
    14    9   10 ar
    15    9   52 1
    16   10   11 1
    17   11   12 1
    18   11   21 1
    19   11   53 1
    20   12   13 1
    21   12   14 1
    22   12   54 1
    23   14   15 1
    24   14   20 1
    25   14   55 1
    26   15   16 1
    27   16   17 2
    28   16   18 1
    29   16   19 1
    30   20   21 1
    31   20   22 1
    32   20   56 1
    33   22   23 1
    34   22   57 1
    35   22   58 1
    36   23   24 1
    37   24   25 2
    38   24   26 1
    39   24   27 1
    40   27   28 1
    41   28   29 2
    42   28   30 1
    43   28   31 1
    44   31   33 1
    45   32   33 1
    46   32   34 1
    47   32   35 1
    48   32   36 1
    49   33   59 1
    50   33   60 1
    51   34   61 1
    52   34   62 1
    53   34   63 1
    54   35   64 1
    55   35   65 1
    56   35   66 1
    57   36   37 1
    58   36   38 1
    59   36   67 1
    60   37   68 1
    61   38   39 2
    62   38   40 am
    63   40   41 1
    64   40   69 1
    65   41   42 1
    66   41   70 1
    67   41   71 1
    68   42   43 1
    69   42   72 1
    70   42   73 1
    71   43   44 2
    72   43   45 am
    73   45   46 1
    74   45   74 1
    75   46   47 1
    76   46   75 1
    77   46   76 1
    78   47   48 1
    79   47   77 1
    80   47   78 1
    81   48   79 1
@<TRIPOS>SUBSTRUCTURE
     1 COA         1 GROUP 0 A     ****
@<TRIPOS>MOLECULE
[5-(6-aminopurin-9-yl)-2-[[[[3-hydroxy-2,2-dimethyl-4-oxo-4-[[3-oxo-3-(2-sulfanylethylamino)propyl]amino]butoxy]-oxido-phosphoryl]oxy-oxido-phosphoryl]oxymethyl]-4-oxido-tetrahydrofuran-3-yl] phosphate
   79    81     1     0     0
SMALL
USER_CHARGES

@<TRIPOS>ATOM
      1 N1A         4.6908    0.9263    0.5284 N.ar      1 COA        -0.5260
      2 C2A         3.4193    1.3931    0.4919 C.ar      1 COA         0.6629
      3 N3A         2.4653    1.1803   -0.4405 N.ar      1 COA        -0.5260
      4 C4A         2.9338    0.3916   -1.4192 C.ar      1 COA         0.5212
      5 C5A         4.2020   -0.1580   -1.5185 C.ar      1 COA         0.0088
      6 C6A         5.0963    0.1348   -0.4937 C.ar      1 COA         0.5212
      7 N6A         6.4038   -0.3801   -0.5131 N.pl3     1 COA        -0.6025
      8 N7A         4.3170   -0.9111   -2.6598 N.2       1 COA        -0.4271
      9 C8A         3.1403   -0.8212   -3.2436 C.ar      1 COA         0.5691
     10 N9A         2.2683   -0.0422   -2.5302 N.pl3     1 COA        -0.5033
     11 C1B         0.8363    0.2748   -2.9142 C.3       1 COA         0.2693
     12 C2B        -0.3043   -0.1391   -1.9549 C.3       1 COA         0.2008
     13 O2B        -0.6991   -1.3747   -2.2004 O.co2     1 COA        -0.1615
     14 C3B        -1.3853    0.8773   -2.3558 C.3       1 COA         0.1111
     15 O3B        -2.0094    0.5576   -3.6033 O.3       1 COA         0.1618
     16 P3B        -3.4806    1.2180   -3.9334 P.3       1 COA        -1.1921
     17 O7A        -4.3962    0.7100   -2.8235 O.co2     1 COA         0.3195
     18 O8A        -3.8112    0.6588   -5.3140 O.co2     1 COA         0.3195
     19 O9A        -3.2466    2.7257   -3.9151 O.co2     1 COA         0.3195
     20 C4B        -0.5713    2.1464   -2.5855 C.3       1 COA         0.1111
     21 O4B         0.7211    1.7136   -3.0526 O.3       1 COA        -0.1436
     22 C5B        -0.3655    2.9745   -1.3239 C.3       1 COA         0.1504
     23 O5B         0.3986    4.1249   -1.6460 O.3       1 COA         0.1618
     24 P1A         0.7670    5.1936   -0.4641 P.3       1 COA        -1.1062
     25 O1A         1.1289    6.5260   -1.0837 O.co2     1 COA         0.3195
     26 O2A         1.6876    4.5161    0.5275 O.co2     1 COA         0.3195
     27 O3A        -0.6886    5.3125    0.2679 O.3       1 COA         0.4672
     28 P2A        -1.1429    6.2040    1.5594 P.3       1 COA        -1.1062
     29 O4A        -2.6377    6.0612    1.7476 O.co2     1 COA         0.3195
     30 O5A        -0.1888    5.9134    2.6974 O.co2     1 COA         0.3195
     31 O6A        -0.8065    7.6957    0.9792 O.3       1 COA         0.1618
     32 CBP        -1.0090    9.5771   -0.5793 C.3       1 COA         0.0000
     33 CCP        -1.4652    8.1470   -0.1994 C.3       1 COA         0.1504
     34 CDP         0.5182    9.5632   -0.8289 C.3       1 COA         0.1179
     35 CEP        -1.6888   10.0085   -1.8940 C.3       1 COA         0.1179
     36 CAP        -1.3149   10.5877    0.5658 C.3       1 COA         0.0611
     37 OAP        -0.8841   11.8921    0.1862 O.3       1 COA        -0.2728
     38 C9P        -2.7940   10.7032    0.9282 C.2       1 COA         0.3561
     39 O9P        -3.5554   11.4723    0.3443 O.2       1 COA        -0.2391
     40 N8P        -3.1652    9.8410    1.9474 N.am      1 COA        -0.1909
     41 C7P        -4.5178    9.7490    2.4468 C.3       1 COA         0.1160
     42 C6P        -4.5423   10.0962    3.9283 C.3       1 COA         0.0286
     43 C5P        -5.9390   10.0189    4.5183 C.2       1 COA         0.3561
     44 O5P        -6.9300    9.7110    3.8618 O.2       1 COA        -0.2391
     45 N4P        -5.9408   10.3384    5.8682 N.am      1 COA        -0.1909
     46 C3P        -7.1408   10.3446    6.6728 C.3       1 COA         0.1160
     47 C2P        -7.4224    8.9985    7.3201 C.3       1 COA         0.2607
     48 S1P        -6.0754    8.4664    8.4202 S.3       1 COA        -0.3539
     49 H2A         3.1287    2.0232    1.3259 H         1 COA        -0.1369
     50 H61A        7.0472   -0.1189    0.2098 H         1 COA         0.2048
     51 H62A        6.7069   -0.9256   -1.2976 H         1 COA         0.2048
     52 H8A         2.8628   -1.2932   -4.1762 H         1 COA        -0.1292
     53 H1B         0.7316   -0.1451   -3.9582 H         1 COA        -0.0393
     54 H2B         0.0098    0.1350   -0.9357 H         1 COA        -0.0393
     55 H3B        -2.1756    1.0002   -1.6070 H         1 COA        -0.0393
     56 H4B        -1.0101    2.7804   -3.3646 H         1 COA        -0.0393
     57 H51A        0.1721    2.3946   -0.5677 H         1 COA        -0.0393
     58 H52A       -1.3279    3.2941   -0.9132 H         1 COA        -0.0393
     59 H121       -1.2324    7.4355   -0.9984 H         1 COA        -0.0393
     60 H122       -2.5440    8.1138   -0.0133 H         1 COA        -0.0393
     61 H131        0.8796   10.5616   -1.1013 H         1 COA        -0.0393
     62 H132        0.7886    8.8842   -1.6454 H         1 COA        -0.0393
     63 H133        1.0681    9.2399    0.0618 H         1 COA        -0.0393
     64 H141       -1.3855   11.0192   -2.1904 H         1 COA        -0.0393
     65 H142       -2.7797   10.0132   -1.7903 H         1 COA        -0.0393
     66 H143       -1.4280    9.3402   -2.7211 H         1 COA        -0.0393
     67 H10        -0.7524   10.3112    1.4665 H         1 COA        -0.0393
     68 HO1        -1.3767   12.1229   -0.6167 H         1 COA         0.2010
     69 HN8        -2.4720    9.2197    2.3532 H         1 COA         0.0865
     70 H71        -5.1579   10.4320    1.8794 H         1 COA        -0.0393
     71 H72        -4.8941    8.7345    2.2815 H         1 COA        -0.0393
     72 H61        -4.1576   11.1119    4.0835 H         1 COA        -0.0393
     73 H62        -3.8928    9.4104    4.4866 H         1 COA        -0.0393
     74 HN4        -5.0588   10.5788    6.3109 H         1 COA         0.0865
     75 H31        -6.9845   11.0999    7.4475 H         1 COA        -0.0393
     76 H32        -7.9642   10.6785    6.0364 H         1 COA        -0.0393
     77 H21        -8.3514    9.0276    7.8987 H         1 COA        -0.0393
     78 H22        -7.5326    8.2386    6.5403 H         1 COA        -0.0393
     79 HS1        -5.1244    8.4505    7.4770 H         1 COA         0.1718
@<TRIPOS>BOND
     1    1    2 ar
     2    1    6 ar
     3    2    3 ar
     4    2   49 1
     5    3    4 ar
     6    4    5 ar
     7    4   10 ar
     8    5    6 ar
     9    5    8 ar
    10    6    7 1
    11    7   50 1
    12    7   51 1
    13    8    9 ar
    14    9   10 ar
    15    9   52 1
    16   10   11 1
    17   11   12 1
    18   11   21 1
    19   11   53 1
    20   12   13 1
    21   12   14 1
    22   12   54 1
    23   14   15 1
    24   14   20 1
    25   14   55 1
    26   15   16 1
    27   16   17 2
    28   16   18 1
    29   16   19 1
    30   20   21 1
    31   20   22 1
    32   20   56 1
    33   22   23 1
    34   22   57 1
    35   22   58 1
    36   23   24 1
    37   24   25 2
    38   24   26 1
    39   24   27 1
    40   27   28 1
    41   28   29 2
    42   28   30 1
    43   28   31 1
    44   31   33 1
    45   32   33 1
    46   32   34 1
    47   32   35 1
    48   32   36 1
    49   33   59 1
    50   33   60 1
    51   34   61 1
    52   34   62 1
    53   34   63 1
    54   35   64 1
    55   35   65 1
    56   35   66 1
    57   36   37 1
    58   36   38 1
    59   36   67 1
    60   37   68 1
    61   38   39 2
    62   38   40 am
    63   40   41 1
    64   40   69 1
    65   41   42 1
    66   41   70 1
    67   41   71 1
    68   42   43 1
    69   42   72 1
    70   42   73 1
    71   43   44 2
    72   43   45 am
    73   45   46 1
    74   45   74 1
    75   46   47 1
    76   46   75 1
    77   46   76 1
    78   47   48 1
    79   47   77 1
    80   47   78 1
    81   48   79 1
@<TRIPOS>SUBSTRUCTURE
     1 COA         1 GROUP 0 A     ****
@<TRIPOS>MOLECULE
[5-(6-aminopurin-9-yl)-2-[[[[3-hydroxy-2,2-dimethyl-4-oxo-4-[[3-oxo-3-(2-sulfanylethylamino)propyl]amino]butoxy]-oxido-phosphoryl]oxy-oxido-phosphoryl]oxymethyl]-4-oxido-tetrahydrofuran-3-yl] phosphate
   79    81     1     0     0
SMALL
USER_CHARGES

@<TRIPOS>ATOM
      1 N1A         5.7146    2.0302   -0.7890 N.ar      1 COA        -0.5260
      2 C2A         4.3962    2.1571   -0.5034 C.ar      1 COA         0.6629
      3 N3A         3.3299    1.7526   -1.2276 N.ar      1 COA        -0.5260
      4 C4A         3.7311    1.1587   -2.3614 C.ar      1 COA         0.5212
      5 C5A         5.0346    0.9576   -2.7868 C.ar      1 COA         0.0088
      6 C6A         6.0470    1.4195   -1.9517 C.ar      1 COA         0.5212
      7 N6A         7.3978    1.2581   -2.3043 N.pl3     1 COA        -0.6025
      8 N7A         5.0562    0.3154   -3.9993 N.2       1 COA        -0.4271
      9 C8A         3.7892    0.1293   -4.3054 C.ar      1 COA         0.5691
     10 N9A         2.9479    0.6234   -3.3440 N.pl3     1 COA        -0.5033
     11 C1B         1.4328    0.5815   -3.3775 C.3       1 COA         0.2693
     12 C2B         0.6799   -0.1567   -2.2458 C.3       1 COA         0.2008
     13 O2B         0.5449   -1.4388   -2.5302 O.co2     1 COA        -0.1615
     14 C3B        -0.6749    0.5672   -2.2968 C.3       1 COA         0.1111
     15 O3B        -1.4782    0.1594   -3.4088 O.3       1 COA         0.1618
     16 P3B        -3.0996    0.4363   -3.3454 P.3       1 COA        -1.1921
     17 O7A        -3.5828   -0.3425   -2.1254 O.co2     1 COA         0.3195
     18 O8A        -3.6001   -0.1211   -4.6746 O.co2     1 COA         0.3195
     19 O9A        -3.2339    1.9510   -3.2185 O.co2     1 COA         0.3195
     20 C4B        -0.2635    2.0121   -2.5599 C.3       1 COA         0.1111
     21 O4B         0.9490    1.9478   -3.3354 O.3       1 COA        -0.1436
     22 C5B         0.0275    2.8029   -1.2913 C.3       1 COA         0.1504
     23 O5B         0.3986    4.1249   -1.6460 O.3       1 COA         0.1618
     24 P1A         0.7670    5.1936   -0.4641 P.3       1 COA        -1.1062
     25 O1A         1.1289    6.5260   -1.0837 O.co2     1 COA         0.3195
     26 O2A         1.6876    4.5161    0.5275 O.co2     1 COA         0.3195
     27 O3A        -0.6886    5.3125    0.2679 O.3       1 COA         0.4672
     28 P2A        -1.1429    6.2040    1.5594 P.3       1 COA        -1.1062
     29 O4A        -2.6377    6.0612    1.7476 O.co2     1 COA         0.3195
     30 O5A        -0.1888    5.9134    2.6974 O.co2     1 COA         0.3195
     31 O6A        -0.8065    7.6957    0.9792 O.3       1 COA         0.1618
     32 CBP        -1.0090    9.5771   -0.5793 C.3       1 COA         0.0000
     33 CCP        -1.4652    8.1470   -0.1994 C.3       1 COA         0.1504
     34 CDP         0.5182    9.5632   -0.8289 C.3       1 COA         0.1179
     35 CEP        -1.6888   10.0085   -1.8940 C.3       1 COA         0.1179
     36 CAP        -1.3149   10.5877    0.5658 C.3       1 COA         0.0611
     37 OAP        -0.6287   10.1955    1.7518 O.3       1 COA        -0.2728
     38 C9P        -0.8916   12.0249    0.2699 C.2       1 COA         0.3561
     39 O9P         0.2422   12.4378    0.5067 O.2       1 COA        -0.2391
     40 N8P        -1.9050   12.7747   -0.3052 N.am      1 COA        -0.1909
     41 C7P        -1.7368   14.1547   -0.6986 C.3       1 COA         0.1160
     42 C6P        -1.2514   14.2219   -2.1393 C.3       1 COA         0.0286
     43 C5P        -2.2251   13.5770   -3.1093 C.2       1 COA         0.3561
     44 O5P        -3.2821   13.0607   -2.7570 O.2       1 COA        -0.2391
     45 N4P        -1.7656   13.6483   -4.4162 N.am      1 COA        -0.1909
     46 C3P        -2.4991   13.1084   -5.5378 C.3       1 COA         0.1160
     47 C2P        -2.1434   11.6602   -5.8315 C.3       1 COA         0.2607
     48 S1P        -0.3810   11.4490   -6.2276 S.3       1 COA        -0.3539
     49 H2A         4.1666    2.6505    0.4351 H         1 COA        -0.1369
     50 H61A        8.1108    1.6399   -1.7121 H         1 COA         0.2048
     51 H62A        7.6305    0.8472   -3.1886 H         1 COA         0.2048
     52 H8A         3.4224   -0.3522   -5.2016 H         1 COA        -0.1292
     53 H1B         1.1905    0.2000   -4.4133 H         1 COA        -0.0393
     54 H2B         1.1486    0.1388   -1.2941 H         1 COA        -0.0393
     55 H3B        -1.2745    0.4471   -1.3878 H         1 COA        -0.0393
     56 H4B        -1.0100    2.5497   -3.1559 H         1 COA        -0.0393
     57 H51A        0.8489    2.3441   -0.7330 H         1 COA        -0.0393
     58 H52A       -0.8601    2.8452   -0.6531 H         1 COA        -0.0393
     59 H121       -1.2324    7.4355   -0.9984 H         1 COA        -0.0393
     60 H122       -2.5440    8.1138   -0.0133 H         1 COA        -0.0393
     61 H131        0.8796   10.5616   -1.1013 H         1 COA        -0.0393
     62 H132        0.7886    8.8842   -1.6454 H         1 COA        -0.0393
     63 H133        1.0681    9.2399    0.0618 H         1 COA        -0.0393
     64 H141       -1.3855   11.0192   -2.1904 H         1 COA        -0.0393
     65 H142       -2.7797   10.0132   -1.7903 H         1 COA        -0.0393
     66 H143       -1.4280    9.3402   -2.7211 H         1 COA        -0.0393
     67 H10        -2.3880   10.5770    0.7950 H         1 COA        -0.0393
     68 HO1         0.3169   10.1957    1.5366 H         1 COA         0.2010
     69 HN8        -2.8042   12.3405   -0.4899 H         1 COA         0.0865
     70 H71        -2.6911   14.6793   -0.5876 H         1 COA        -0.0393
     71 H72        -1.0190   14.6354   -0.0263 H         1 COA        -0.0393
     72 H61        -0.2828   13.7155   -2.2344 H         1 COA        -0.0393
     73 H62        -1.1061   15.2673   -2.4393 H         1 COA        -0.0393
     74 HN4        -0.8732   14.1003   -4.5926 H         1 COA         0.0865
     75 H31        -3.5573   13.1811   -5.2734 H         1 COA        -0.0393
     76 H32        -2.3194   13.7612   -6.3958 H         1 COA        -0.0393
     77 H21        -2.3872   11.0155   -4.9808 H         1 COA        -0.0393
     78 H22        -2.7204   11.3144   -6.6949 H         1 COA        -0.0393
     79 HS1         0.0804   11.9173   -5.0604 H         1 COA         0.1718
@<TRIPOS>BOND
     1    1    2 ar
     2    1    6 ar
     3    2    3 ar
     4    2   49 1
     5    3    4 ar
     6    4    5 ar
     7    4   10 ar
     8    5    6 ar
     9    5    8 ar
    10    6    7 1
    11    7   50 1
    12    7   51 1
    13    8    9 ar
    14    9   10 ar
    15    9   52 1
    16   10   11 1
    17   11   12 1
    18   11   21 1
    19   11   53 1
    20   12   13 1
    21   12   14 1
    22   12   54 1
    23   14   15 1
    24   14   20 1
    25   14   55 1
    26   15   16 1
    27   16   17 2
    28   16   18 1
    29   16   19 1
    30   20   21 1
    31   20   22 1
    32   20   56 1
    33   22   23 1
    34   22   57 1
    35   22   58 1
    36   23   24 1
    37   24   25 2
    38   24   26 1
    39   24   27 1
    40   27   28 1
    41   28   29 2
    42   28   30 1
    43   28   31 1
    44   31   33 1
    45   32   33 1
    46   32   34 1
    47   32   35 1
    48   32   36 1
    49   33   59 1
    50   33   60 1
    51   34   61 1
    52   34   62 1
    53   34   63 1
    54   35   64 1
    55   35   65 1
    56   35   66 1
    57   36   37 1
    58   36   38 1
    59   36   67 1
    60   37   68 1
    61   38   39 2
    62   38   40 am
    63   40   41 1
    64   40   69 1
    65   41   42 1
    66   41   70 1
    67   41   71 1
    68   42   43 1
    69   42   72 1
    70   42   73 1
    71   43   44 2
    72   43   45 am
    73   45   46 1
    74   45   74 1
    75   46   47 1
    76   46   75 1
    77   46   76 1
    78   47   48 1
    79   47   77 1
    80   47   78 1
    81   48   79 1
@<TRIPOS>SUBSTRUCTURE
     1 COA         1 GROUP 0 A     ****
@<TRIPOS>MOLECULE
[5-(6-aminopurin-9-yl)-2-[[[[3-hydroxy-2,2-dimethyl-4-oxo-4-[[3-oxo-3-(2-sulfanylethylamino)propyl]amino]butoxy]-oxido-phosphoryl]oxy-oxido-phosphoryl]oxymethyl]-4-oxido-tetrahydrofuran-3-yl] phosphate
   79    81     1     0     0
SMALL
USER_CHARGES

@<TRIPOS>ATOM
      1 N1A         6.1093    3.4221   -2.1706 N.ar      1 COA        -0.5260
      2 C2A         4.9028    3.1932   -1.5982 C.ar      1 COA         0.6629
      3 N3A         3.8250    2.5648   -2.1163 N.ar      1 COA        -0.5260
      4 C4A         4.0802    2.1492   -3.3659 C.ar      1 COA         0.5212
      5 C5A         5.2577    2.3095   -4.0788 C.ar      1 COA         0.0088
      6 C6A         6.2970    2.9741   -3.4353 C.ar      1 COA         0.5212
      7 N6A         7.5267    3.1813   -4.0834 N.pl3     1 COA        -0.6025
      8 N7A         5.1483    1.7539   -5.3288 N.2       1 COA        -0.4271
      9 C8A         3.9267    1.2647   -5.3749 C.ar      1 COA         0.5691
     10 N9A         3.2402    1.4796   -4.2093 N.pl3     1 COA        -0.5033
     11 C1B         1.8139    1.0528   -3.9225 C.3       1 COA         0.2693
     12 C2B         1.5441    0.0924   -2.7404 C.3       1 COA         0.2008
     13 O2B         1.6560   -1.1661   -3.1231 O.co2     1 COA        -0.1615
     14 C3B         0.0825    0.4469   -2.4241 C.3       1 COA         0.1111
     15 O3B        -0.8371   -0.0985   -3.3754 O.3       1 COA         0.1618
     16 P3B        -2.4169   -0.2494   -2.9382 P.3       1 COA        -1.1921
     17 O7A        -2.4022   -1.1842   -1.7323 O.co2     1 COA         0.3195
     18 O8A        -3.0660   -0.8511   -4.1810 O.co2     1 COA         0.3195
     19 O9A        -2.8748    1.1724   -2.6264 O.co2     1 COA         0.3195
     20 C4B         0.0646    1.9600   -2.6151 C.3       1 COA         0.1111
     21 O4B         1.0421    2.2460   -3.6341 O.3       1 COA        -0.1436
     22 C5B         0.4465    2.7364   -1.3618 C.3       1 COA         0.1504
     23 O5B         0.3986    4.1249   -1.6460 O.3       1 COA         0.1618
     24 P1A         0.7670    5.1936   -0.4641 P.3       1 COA        -1.1062
     25 O1A         1.1289    6.5260   -1.0837 O.co2     1 COA         0.3195
     26 O2A         1.6876    4.5161    0.5275 O.co2     1 COA         0.3195
     27 O3A        -0.6886    5.3125    0.2679 O.3       1 COA         0.4672
     28 P2A        -1.1429    6.2040    1.5594 P.3       1 COA        -1.1062
     29 O4A        -2.6377    6.0612    1.7476 O.co2     1 COA         0.3195
     30 O5A        -0.1888    5.9134    2.6974 O.co2     1 COA         0.3195
     31 O6A        -0.8065    7.6957    0.9792 O.3       1 COA         0.1618
     32 CBP        -1.0090    9.5771   -0.5793 C.3       1 COA         0.0000
     33 CCP        -1.4652    8.1470   -0.1994 C.3       1 COA         0.1504
     34 CDP         0.5182    9.5632   -0.8289 C.3       1 COA         0.1179
     35 CEP        -1.6888   10.0085   -1.8940 C.3       1 COA         0.1179
     36 CAP        -1.3149   10.5877    0.5658 C.3       1 COA         0.0611
     37 OAP        -0.8841   11.8921    0.1862 O.3       1 COA        -0.2728
     38 C9P        -2.7940   10.7032    0.9282 C.2       1 COA         0.3561
     39 O9P        -3.5554   11.4723    0.3443 O.2       1 COA        -0.2391
     40 N8P        -3.1652    9.8410    1.9474 N.am      1 COA        -0.1909
     41 C7P        -4.5178    9.7490    2.4468 C.3       1 COA         0.1160
     42 C6P        -4.5423   10.0962    3.9283 C.3       1 COA         0.0286
     43 C5P        -5.9390   10.0189    4.5183 C.2       1 COA         0.3561
     44 O5P        -6.9300    9.7110    3.8618 O.2       1 COA        -0.2391
     45 N4P        -5.9408   10.3384    5.8682 N.am      1 COA        -0.1909
     46 C3P        -7.1408   10.3446    6.6728 C.3       1 COA         0.1160
     47 C2P        -7.4224    8.9985    7.3201 C.3       1 COA         0.2607
     48 S1P        -8.9352    9.0211    8.3295 S.3       1 COA        -0.3539
     49 H2A         4.7878    3.5651   -0.5856 H         1 COA        -0.1369
     50 H61A        8.2460    3.7037   -3.6204 H         1 COA         0.2048
     51 H62A        7.6376    2.8871   -5.0353 H         1 COA         0.2048
     52 H8A         3.4866    0.7495   -6.2177 H         1 COA        -0.1292
     53 H1B         1.4348    0.6728   -4.9170 H         1 COA        -0.0393
     54 H2B         2.1376    0.4515   -1.8851 H         1 COA        -0.0393
     55 H3B        -0.2421    0.1333   -1.4258 H         1 COA        -0.0393
     56 H4B        -0.9063    2.3168   -2.9777 H         1 COA        -0.0393
     57 H51A        1.4605    2.4765   -1.0434 H         1 COA        -0.0393
     58 H52A       -0.2515    2.5189   -0.5478 H         1 COA        -0.0393
     59 H121       -1.2324    7.4355   -0.9984 H         1 COA        -0.0393
     60 H122       -2.5440    8.1138   -0.0133 H         1 COA        -0.0393
     61 H131        0.8796   10.5616   -1.1013 H         1 COA        -0.0393
     62 H132        0.7886    8.8842   -1.6454 H         1 COA        -0.0393
     63 H133        1.0681    9.2399    0.0618 H         1 COA        -0.0393
     64 H141       -1.3855   11.0192   -2.1904 H         1 COA        -0.0393
     65 H142       -2.7797   10.0132   -1.7903 H         1 COA        -0.0393
     66 H143       -1.4280    9.3402   -2.7211 H         1 COA        -0.0393
     67 H10        -0.7524   10.3112    1.4665 H         1 COA        -0.0393
     68 HO1        -1.3767   12.1229   -0.6167 H         1 COA         0.2010
     69 HN8        -2.4720    9.2197    2.3532 H         1 COA         0.0865
     70 H71        -5.1579   10.4320    1.8794 H         1 COA        -0.0393
     71 H72        -4.8941    8.7345    2.2815 H         1 COA        -0.0393
     72 H61        -4.1576   11.1119    4.0835 H         1 COA        -0.0393
     73 H62        -3.8928    9.4104    4.4866 H         1 COA        -0.0393
     74 HN4        -5.0588   10.5788    6.3109 H         1 COA         0.0865
     75 H31        -6.9845   11.0999    7.4475 H         1 COA        -0.0393
     76 H32        -7.9642   10.6785    6.0364 H         1 COA        -0.0393
     77 H21        -7.5215    8.2124    6.5646 H         1 COA        -0.0393
     78 H22        -6.5893    8.7328    7.9783 H         1 COA        -0.0393
     79 HS1        -9.7638    9.3503    7.3299 H         1 COA         0.1718
@<TRIPOS>BOND
     1    1    2 ar
     2    1    6 ar
     3    2    3 ar
     4    2   49 1
     5    3    4 ar
     6    4    5 ar
     7    4   10 ar
     8    5    6 ar
     9    5    8 ar
    10    6    7 1
    11    7   50 1
    12    7   51 1
    13    8    9 ar
    14    9   10 ar
    15    9   52 1
    16   10   11 1
    17   11   12 1
    18   11   21 1
    19   11   53 1
    20   12   13 1
    21   12   14 1
    22   12   54 1
    23   14   15 1
    24   14   20 1
    25   14   55 1
    26   15   16 1
    27   16   17 2
    28   16   18 1
    29   16   19 1
    30   20   21 1
    31   20   22 1
    32   20   56 1
    33   22   23 1
    34   22   57 1
    35   22   58 1
    36   23   24 1
    37   24   25 2
    38   24   26 1
    39   24   27 1
    40   27   28 1
    41   28   29 2
    42   28   30 1
    43   28   31 1
    44   31   33 1
    45   32   33 1
    46   32   34 1
    47   32   35 1
    48   32   36 1
    49   33   59 1
    50   33   60 1
    51   34   61 1
    52   34   62 1
    53   34   63 1
    54   35   64 1
    55   35   65 1
    56   35   66 1
    57   36   37 1
    58   36   38 1
    59   36   67 1
    60   37   68 1
    61   38   39 2
    62   38   40 am
    63   40   41 1
    64   40   69 1
    65   41   42 1
    66   41   70 1
    67   41   71 1
    68   42   43 1
    69   42   72 1
    70   42   73 1
    71   43   44 2
    72   43   45 am
    73   45   46 1
    74   45   74 1
    75   46   47 1
    76   46   75 1
    77   46   76 1
    78   47   48 1
    79   47   77 1
    80   47   78 1
    81   48   79 1
@<TRIPOS>SUBSTRUCTURE
     1 COA         1 GROUP 0 A     ****
@<TRIPOS>MOLECULE
[5-(6-aminopurin-9-yl)-2-[[[[3-hydroxy-2,2-dimethyl-4-oxo-4-[[3-oxo-3-(2-sulfanylethylamino)propyl]amino]butoxy]-oxido-phosphoryl]oxy-oxido-phosphoryl]oxymethyl]-4-oxido-tetrahydrofuran-3-yl] phosphate
   79    81     1     0     0
SMALL
USER_CHARGES

@<TRIPOS>ATOM
      1 N1A         5.7146    2.0302   -0.7890 N.ar      1 COA        -0.5260
      2 C2A         4.3962    2.1571   -0.5034 C.ar      1 COA         0.6629
      3 N3A         3.3299    1.7526   -1.2276 N.ar      1 COA        -0.5260
      4 C4A         3.7311    1.1587   -2.3614 C.ar      1 COA         0.5212
      5 C5A         5.0346    0.9576   -2.7868 C.ar      1 COA         0.0088
      6 C6A         6.0470    1.4195   -1.9517 C.ar      1 COA         0.5212
      7 N6A         7.3978    1.2581   -2.3043 N.pl3     1 COA        -0.6025
      8 N7A         5.0562    0.3154   -3.9993 N.2       1 COA        -0.4271
      9 C8A         3.7892    0.1293   -4.3054 C.ar      1 COA         0.5691
     10 N9A         2.9479    0.6234   -3.3440 N.pl3     1 COA        -0.5033
     11 C1B         1.4328    0.5815   -3.3775 C.3       1 COA         0.2693
     12 C2B         0.6799   -0.1567   -2.2458 C.3       1 COA         0.2008
     13 O2B         0.5449   -1.4388   -2.5302 O.co2     1 COA        -0.1615
     14 C3B        -0.6749    0.5672   -2.2968 C.3       1 COA         0.1111
     15 O3B        -1.4782    0.1594   -3.4088 O.3       1 COA         0.1618
     16 P3B        -3.0996    0.4363   -3.3454 P.3       1 COA        -1.1921
     17 O7A        -3.5828   -0.3425   -2.1254 O.co2     1 COA         0.3195
     18 O8A        -3.6001   -0.1211   -4.6746 O.co2     1 COA         0.3195
     19 O9A        -3.2339    1.9510   -3.2185 O.co2     1 COA         0.3195
     20 C4B        -0.2635    2.0121   -2.5599 C.3       1 COA         0.1111
     21 O4B         0.9490    1.9478   -3.3354 O.3       1 COA        -0.1436
     22 C5B         0.0275    2.8029   -1.2913 C.3       1 COA         0.1504
     23 O5B         0.3986    4.1249   -1.6460 O.3       1 COA         0.1618
     24 P1A         0.7670    5.1936   -0.4641 P.3       1 COA        -1.1062
     25 O1A         1.1289    6.5260   -1.0837 O.co2     1 COA         0.3195
     26 O2A         1.6876    4.5161    0.5275 O.co2     1 COA         0.3195
     27 O3A        -0.6886    5.3125    0.2679 O.3       1 COA         0.4672
     28 P2A        -1.1429    6.2040    1.5594 P.3       1 COA        -1.1062
     29 O4A        -2.6377    6.0612    1.7476 O.co2     1 COA         0.3195
     30 O5A        -0.1888    5.9134    2.6974 O.co2     1 COA         0.3195
     31 O6A        -0.8065    7.6957    0.9792 O.3       1 COA         0.1618
     32 CBP        -1.0090    9.5771   -0.5793 C.3       1 COA         0.0000
     33 CCP        -1.4652    8.1470   -0.1994 C.3       1 COA         0.1504
     34 CDP         0.5182    9.5632   -0.8289 C.3       1 COA         0.1179
     35 CEP        -1.6888   10.0085   -1.8940 C.3       1 COA         0.1179
     36 CAP        -1.3149   10.5877    0.5658 C.3       1 COA         0.0611
     37 OAP        -0.3519   11.6382    0.5524 O.3       1 COA        -0.2728
     38 C9P        -2.6876   11.2507    0.4734 C.2       1 COA         0.3561
     39 O9P        -2.8806   12.2731   -0.1822 O.2       1 COA        -0.2391
     40 N8P        -3.6636   10.5632    1.1768 N.am      1 COA        -0.1909
     41 C7P        -5.0458   10.9816    1.2180 C.3       1 COA         0.1160
     42 C6P        -5.8119   10.3347    0.0732 C.3       1 COA         0.0286
     43 C5P        -5.7825    8.8183    0.1403 C.2       1 COA         0.3561
     44 O5P        -5.2001    8.1958    1.0242 O.2       1 COA        -0.2391
     45 N4P        -6.4855    8.2475   -0.9105 N.am      1 COA        -0.1909
     46 C3P        -6.6139    6.8191   -1.0863 C.3       1 COA         0.1160
     47 C2P        -5.4991    6.2278   -1.9335 C.3       1 COA         0.2607
     48 S1P        -5.4488    6.9434   -3.6048 S.3       1 COA        -0.3539
     49 H2A         4.1666    2.6505    0.4351 H         1 COA        -0.1369
     50 H61A        8.1108    1.6399   -1.7121 H         1 COA         0.2048
     51 H62A        7.6305    0.8472   -3.1886 H         1 COA         0.2048
     52 H8A         3.4224   -0.3522   -5.2016 H         1 COA        -0.1292
     53 H1B         1.1905    0.2000   -4.4133 H         1 COA        -0.0393
     54 H2B         1.1486    0.1388   -1.2941 H         1 COA        -0.0393
     55 H3B        -1.2745    0.4471   -1.3878 H         1 COA        -0.0393
     56 H4B        -1.0100    2.5497   -3.1559 H         1 COA        -0.0393
     57 H51A        0.8489    2.3441   -0.7330 H         1 COA        -0.0393
     58 H52A       -0.8601    2.8452   -0.6531 H         1 COA        -0.0393
     59 H121       -1.2324    7.4355   -0.9984 H         1 COA        -0.0393
     60 H122       -2.5440    8.1138   -0.0133 H         1 COA        -0.0393
     61 H131        0.8796   10.5616   -1.1013 H         1 COA        -0.0393
     62 H132        0.7886    8.8842   -1.6454 H         1 COA        -0.0393
     63 H133        1.0681    9.2399    0.0618 H         1 COA        -0.0393
     64 H141       -1.3855   11.0192   -2.1904 H         1 COA        -0.0393
     65 H142       -2.7797   10.0132   -1.7903 H         1 COA        -0.0393
     66 H143       -1.4280    9.3402   -2.7211 H         1 COA        -0.0393
     67 H10        -1.2314   10.0854    1.5378 H         1 COA        -0.0393
     68 HO1        -0.4241   12.0681   -0.3139 H         1 COA         0.2010
     69 HN8        -3.4169    9.7096    1.6684 H         1 COA         0.0865
     70 H71        -5.4791   10.6972    2.1821 H         1 COA        -0.0393
     71 H72        -5.0936   12.0728    1.1469 H         1 COA        -0.0393
     72 H61        -5.3857   10.6461   -0.8886 H         1 COA        -0.0393
     73 H62        -6.8593   10.6611    0.0891 H         1 COA        -0.0393
     74 HN4        -6.9300    8.8613   -1.5868 H         1 COA         0.0865
     75 H31        -6.5840    6.3847   -0.0836 H         1 COA        -0.0393
     76 H32        -7.6028    6.6255   -1.5093 H         1 COA        -0.0393
     77 H21        -4.5233    6.3812   -1.4613 H         1 COA        -0.0393
     78 H22        -5.6586    5.1503   -2.0395 H         1 COA        -0.0393
     79 HS1        -5.2461    8.2068   -3.2086 H         1 COA         0.1718
@<TRIPOS>BOND
     1    1    2 ar
     2    1    6 ar
     3    2    3 ar
     4    2   49 1
     5    3    4 ar
     6    4    5 ar
     7    4   10 ar
     8    5    6 ar
     9    5    8 ar
    10    6    7 1
    11    7   50 1
    12    7   51 1
    13    8    9 ar
    14    9   10 ar
    15    9   52 1
    16   10   11 1
    17   11   12 1
    18   11   21 1
    19   11   53 1
    20   12   13 1
    21   12   14 1
    22   12   54 1
    23   14   15 1
    24   14   20 1
    25   14   55 1
    26   15   16 1
    27   16   17 2
    28   16   18 1
    29   16   19 1
    30   20   21 1
    31   20   22 1
    32   20   56 1
    33   22   23 1
    34   22   57 1
    35   22   58 1
    36   23   24 1
    37   24   25 2
    38   24   26 1
    39   24   27 1
    40   27   28 1
    41   28   29 2
    42   28   30 1
    43   28   31 1
    44   31   33 1
    45   32   33 1
    46   32   34 1
    47   32   35 1
    48   32   36 1
    49   33   59 1
    50   33   60 1
    51   34   61 1
    52   34   62 1
    53   34   63 1
    54   35   64 1
    55   35   65 1
    56   35   66 1
    57   36   37 1
    58   36   38 1
    59   36   67 1
    60   37   68 1
    61   38   39 2
    62   38   40 am
    63   40   41 1
    64   40   69 1
    65   41   42 1
    66   41   70 1
    67   41   71 1
    68   42   43 1
    69   42   72 1
    70   42   73 1
    71   43   44 2
    72   43   45 am
    73   45   46 1
    74   45   74 1
    75   46   47 1
    76   46   75 1
    77   46   76 1
    78   47   48 1
    79   47   77 1
    80   47   78 1
    81   48   79 1
@<TRIPOS>SUBSTRUCTURE
     1 COA         1 GROUP 0 A     ****
@<TRIPOS>MOLECULE
[5-(6-aminopurin-9-yl)-2-[[[[3-hydroxy-2,2-dimethyl-4-oxo-4-[[3-oxo-3-(2-sulfanylethylamino)propyl]amino]butoxy]-oxido-phosphoryl]oxy-oxido-phosphoryl]oxymethyl]-4-oxido-tetrahydrofuran-3-yl] phosphate
   79    81     1     0     0
SMALL
USER_CHARGES

@<TRIPOS>ATOM
      1 N1A         5.7146    2.0302   -0.7890 N.ar      1 COA        -0.5260
      2 C2A         4.3962    2.1571   -0.5034 C.ar      1 COA         0.6629
      3 N3A         3.3299    1.7526   -1.2276 N.ar      1 COA        -0.5260
      4 C4A         3.7311    1.1587   -2.3614 C.ar      1 COA         0.5212
      5 C5A         5.0346    0.9576   -2.7868 C.ar      1 COA         0.0088
      6 C6A         6.0470    1.4195   -1.9517 C.ar      1 COA         0.5212
      7 N6A         7.3978    1.2581   -2.3043 N.pl3     1 COA        -0.6025
      8 N7A         5.0562    0.3154   -3.9993 N.2       1 COA        -0.4271
      9 C8A         3.7892    0.1293   -4.3054 C.ar      1 COA         0.5691
     10 N9A         2.9479    0.6234   -3.3440 N.pl3     1 COA        -0.5033
     11 C1B         1.4328    0.5815   -3.3775 C.3       1 COA         0.2693
     12 C2B         0.6799   -0.1567   -2.2458 C.3       1 COA         0.2008
     13 O2B         0.5449   -1.4388   -2.5302 O.co2     1 COA        -0.1615
     14 C3B        -0.6749    0.5672   -2.2968 C.3       1 COA         0.1111
     15 O3B        -1.4782    0.1594   -3.4088 O.3       1 COA         0.1618
     16 P3B        -3.0996    0.4363   -3.3454 P.3       1 COA        -1.1921
     17 O7A        -3.5828   -0.3425   -2.1254 O.co2     1 COA         0.3195
     18 O8A        -3.6001   -0.1211   -4.6746 O.co2     1 COA         0.3195
     19 O9A        -3.2339    1.9510   -3.2185 O.co2     1 COA         0.3195
     20 C4B        -0.2635    2.0121   -2.5599 C.3       1 COA         0.1111
     21 O4B         0.9490    1.9478   -3.3354 O.3       1 COA        -0.1436
     22 C5B         0.0275    2.8029   -1.2913 C.3       1 COA         0.1504
     23 O5B         0.3986    4.1249   -1.6460 O.3       1 COA         0.1618
     24 P1A         0.7670    5.1936   -0.4641 P.3       1 COA        -1.1062
     25 O1A         1.1289    6.5260   -1.0837 O.co2     1 COA         0.3195
     26 O2A         1.6876    4.5161    0.5275 O.co2     1 COA         0.3195
     27 O3A        -0.6886    5.3125    0.2679 O.3       1 COA         0.4672
     28 P2A        -1.1429    6.2040    1.5594 P.3       1 COA        -1.1062
     29 O4A        -2.6377    6.0612    1.7476 O.co2     1 COA         0.3195
     30 O5A        -0.1888    5.9134    2.6974 O.co2     1 COA         0.3195
     31 O6A        -0.8065    7.6957    0.9792 O.3       1 COA         0.1618
     32 CBP        -1.0090    9.5771   -0.5793 C.3       1 COA         0.0000
     33 CCP        -1.4652    8.1470   -0.1994 C.3       1 COA         0.1504
     34 CDP         0.5182    9.5632   -0.8289 C.3       1 COA         0.1179
     35 CEP        -1.6888   10.0085   -1.8940 C.3       1 COA         0.1179
     36 CAP        -1.3149   10.5877    0.5658 C.3       1 COA         0.0611
     37 OAP        -2.7163   10.6149    0.8239 O.3       1 COA        -0.2728
     38 C9P        -0.6314   10.2649    1.8928 C.2       1 COA         0.3561
     39 O9P        -1.1331    9.5097    2.7236 O.2       1 COA        -0.2391
     40 N8P         0.5984   10.8887    2.0282 N.am      1 COA        -0.1909
     41 C7P         1.4450   10.7163    3.1861 C.3       1 COA         0.1160
     42 C6P         2.3820    9.5376    2.9657 C.3       1 COA         0.0286
     43 C5P         3.3027    9.3002    4.1492 C.2       1 COA         0.3561
     44 O5P         3.2843    9.9910    5.1643 O.2       1 COA        -0.2391
     45 N4P         4.1483    8.2228    3.9296 N.am      1 COA        -0.1909
     46 C3P         5.1273    7.7820    4.8964 C.3       1 COA         0.1160
     47 C2P         6.4749    8.4630    4.7219 C.3       1 COA         0.2607
     48 S1P         7.2003    8.1482    3.0841 S.3       1 COA        -0.3539
     49 H2A         4.1666    2.6505    0.4351 H         1 COA        -0.1369
     50 H61A        8.1108    1.6399   -1.7121 H         1 COA         0.2048
     51 H62A        7.6305    0.8472   -3.1886 H         1 COA         0.2048
     52 H8A         3.4224   -0.3522   -5.2016 H         1 COA        -0.1292
     53 H1B         1.1905    0.2000   -4.4133 H         1 COA        -0.0393
     54 H2B         1.1486    0.1388   -1.2941 H         1 COA        -0.0393
     55 H3B        -1.2745    0.4471   -1.3878 H         1 COA        -0.0393
     56 H4B        -1.0100    2.5497   -3.1559 H         1 COA        -0.0393
     57 H51A        0.8489    2.3441   -0.7330 H         1 COA        -0.0393
     58 H52A       -0.8601    2.8452   -0.6531 H         1 COA        -0.0393
     59 H121       -1.2324    7.4355   -0.9984 H         1 COA        -0.0393
     60 H122       -2.5440    8.1138   -0.0133 H         1 COA        -0.0393
     61 H131        0.8796   10.5616   -1.1013 H         1 COA        -0.0393
     62 H132        0.7886    8.8842   -1.6454 H         1 COA        -0.0393
     63 H133        1.0681    9.2399    0.0618 H         1 COA        -0.0393
     64 H141       -1.3855   11.0192   -2.1904 H         1 COA        -0.0393
     65 H142       -2.7797   10.0132   -1.7903 H         1 COA        -0.0393
     66 H143       -1.4280    9.3402   -2.7211 H         1 COA        -0.0393
     67 H10        -1.0237   11.5996    0.2569 H         1 COA        -0.0393
     68 HO1        -2.9668    9.7148    1.0837 H         1 COA         0.2010
     69 HN8         0.9463   11.4752    1.2758 H         1 COA         0.0865
     70 H71         2.0143   11.6358    3.3556 H         1 COA        -0.0393
     71 H72         0.8185   10.5520    4.0685 H         1 COA        -0.0393
     72 H61         3.0005    9.7094    2.0760 H         1 COA        -0.0393
     73 H62         1.8018    8.6229    2.7903 H         1 COA        -0.0393
     74 HN4         4.0760    7.7211    3.0493 H         1 COA         0.0865
     75 H31         4.7162    8.0262    5.8794 H         1 COA        -0.0393
     76 H32         5.2002    6.6941    4.8211 H         1 COA        -0.0393
     77 H21         6.3888    9.5456    4.8605 H         1 COA        -0.0393
     78 H22         7.1733    8.0798    5.4724 H         1 COA        -0.0393
     79 HS1         6.1982    8.6929    2.3816 H         1 COA         0.1718
@<TRIPOS>BOND
     1    1    2 ar
     2    1    6 ar
     3    2    3 ar
     4    2   49 1
     5    3    4 ar
     6    4    5 ar
     7    4   10 ar
     8    5    6 ar
     9    5    8 ar
    10    6    7 1
    11    7   50 1
    12    7   51 1
    13    8    9 ar
    14    9   10 ar
    15    9   52 1
    16   10   11 1
    17   11   12 1
    18   11   21 1
    19   11   53 1
    20   12   13 1
    21   12   14 1
    22   12   54 1
    23   14   15 1
    24   14   20 1
    25   14   55 1
    26   15   16 1
    27   16   17 2
    28   16   18 1
    29   16   19 1
    30   20   21 1
    31   20   22 1
    32   20   56 1
    33   22   23 1
    34   22   57 1
    35   22   58 1
    36   23   24 1
    37   24   25 2
    38   24   26 1
    39   24   27 1
    40   27   28 1
    41   28   29 2
    42   28   30 1
    43   28   31 1
    44   31   33 1
    45   32   33 1
    46   32   34 1
    47   32   35 1
    48   32   36 1
    49   33   59 1
    50   33   60 1
    51   34   61 1
    52   34   62 1
    53   34   63 1
    54   35   64 1
    55   35   65 1
    56   35   66 1
    57   36   37 1
    58   36   38 1
    59   36   67 1
    60   37   68 1
    61   38   39 2
    62   38   40 am
    63   40   41 1
    64   40   69 1
    65   41   42 1
    66   41   70 1
    67   41   71 1
    68   42   43 1
    69   42   72 1
    70   42   73 1
    71   43   44 2
    72   43   45 am
    73   45   46 1
    74   45   74 1
    75   46   47 1
    76   46   75 1
    77   46   76 1
    78   47   48 1
    79   47   77 1
    80   47   78 1
    81   48   79 1
@<TRIPOS>SUBSTRUCTURE
     1 COA         1 GROUP 0 A     ****
@<TRIPOS>MOLECULE
[5-(6-aminopurin-9-yl)-2-[[[[3-hydroxy-2,2-dimethyl-4-oxo-4-[[3-oxo-3-(2-sulfanylethylamino)propyl]amino]butoxy]-oxido-phosphoryl]oxy-oxido-phosphoryl]oxymethyl]-4-oxido-tetrahydrofuran-3-yl] phosphate
   79    81     1     0     0
SMALL
USER_CHARGES

@<TRIPOS>ATOM
      1 N1A         4.6908    0.9263    0.5284 N.ar      1 COA        -0.5260
      2 C2A         3.4193    1.3931    0.4919 C.ar      1 COA         0.6629
      3 N3A         2.4653    1.1803   -0.4405 N.ar      1 COA        -0.5260
      4 C4A         2.9338    0.3916   -1.4192 C.ar      1 COA         0.5212
      5 C5A         4.2020   -0.1580   -1.5185 C.ar      1 COA         0.0088
      6 C6A         5.0963    0.1348   -0.4937 C.ar      1 COA         0.5212
      7 N6A         6.4038   -0.3801   -0.5131 N.pl3     1 COA        -0.6025
      8 N7A         4.3170   -0.9111   -2.6598 N.2       1 COA        -0.4271
      9 C8A         3.1403   -0.8212   -3.2436 C.ar      1 COA         0.5691
     10 N9A         2.2683   -0.0422   -2.5302 N.pl3     1 COA        -0.5033
     11 C1B         0.8363    0.2748   -2.9142 C.3       1 COA         0.2693
     12 C2B        -0.3043   -0.1391   -1.9549 C.3       1 COA         0.2008
     13 O2B        -0.6991   -1.3747   -2.2004 O.co2     1 COA        -0.1615
     14 C3B        -1.3853    0.8773   -2.3558 C.3       1 COA         0.1111
     15 O3B        -2.0094    0.5576   -3.6033 O.3       1 COA         0.1618
     16 P3B        -3.4806    1.2180   -3.9334 P.3       1 COA        -1.1921
     17 O7A        -4.3962    0.7100   -2.8235 O.co2     1 COA         0.3195
     18 O8A        -3.8112    0.6588   -5.3140 O.co2     1 COA         0.3195
     19 O9A        -3.2466    2.7257   -3.9151 O.co2     1 COA         0.3195
     20 C4B        -0.5713    2.1464   -2.5855 C.3       1 COA         0.1111
     21 O4B         0.7211    1.7136   -3.0526 O.3       1 COA        -0.1436
     22 C5B        -0.3655    2.9745   -1.3239 C.3       1 COA         0.1504
     23 O5B         0.3986    4.1249   -1.6460 O.3       1 COA         0.1618
     24 P1A         0.7670    5.1936   -0.4641 P.3       1 COA        -1.1062
     25 O1A         1.1289    6.5260   -1.0837 O.co2     1 COA         0.3195
     26 O2A         1.6876    4.5161    0.5275 O.co2     1 COA         0.3195
     27 O3A        -0.6886    5.3125    0.2679 O.3       1 COA         0.4672
     28 P2A        -1.1429    6.2040    1.5594 P.3       1 COA        -1.1062
     29 O4A        -2.6377    6.0612    1.7476 O.co2     1 COA         0.3195
     30 O5A        -0.1888    5.9134    2.6974 O.co2     1 COA         0.3195
     31 O6A        -0.8065    7.6957    0.9792 O.3       1 COA         0.1618
     32 CBP        -1.0090    9.5771   -0.5793 C.3       1 COA         0.0000
     33 CCP        -1.4652    8.1470   -0.1994 C.3       1 COA         0.1504
     34 CDP         0.5182    9.5632   -0.8289 C.3       1 COA         0.1179
     35 CEP        -1.6888   10.0085   -1.8940 C.3       1 COA         0.1179
     36 CAP        -1.3149   10.5877    0.5658 C.3       1 COA         0.0611
     37 OAP        -0.8841   11.8921    0.1862 O.3       1 COA        -0.2728
     38 C9P        -2.7940   10.7032    0.9282 C.2       1 COA         0.3561
     39 O9P        -3.5554   11.4723    0.3443 O.2       1 COA        -0.2391
     40 N8P        -3.1652    9.8410    1.9474 N.am      1 COA        -0.1909
     41 C7P        -4.5178    9.7490    2.4468 C.3       1 COA         0.1160
     42 C6P        -4.7838    8.3380    2.9508 C.3       1 COA         0.0286
     43 C5P        -6.1926    8.1719    3.4915 C.2       1 COA         0.3561
     44 O5P        -7.0152    9.0833    3.5154 O.2       1 COA        -0.2391
     45 N4P        -6.4157    6.8803    3.9456 N.am      1 COA        -0.1909
     46 C3P        -7.6741    6.4527    4.5122 C.3       1 COA         0.1160
     47 C2P        -8.6348    5.9076    3.4680 C.3       1 COA         0.2607
     48 S1P        -7.9558    4.4660    2.5914 S.3       1 COA        -0.3539
     49 H2A         3.1287    2.0232    1.3259 H         1 COA        -0.1369
     50 H61A        7.0472   -0.1189    0.2098 H         1 COA         0.2048
     51 H62A        6.7069   -0.9256   -1.2976 H         1 COA         0.2048
     52 H8A         2.8628   -1.2932   -4.1762 H         1 COA        -0.1292
     53 H1B         0.7316   -0.1451   -3.9582 H         1 COA        -0.0393
     54 H2B         0.0098    0.1350   -0.9357 H         1 COA        -0.0393
     55 H3B        -2.1756    1.0002   -1.6070 H         1 COA        -0.0393
     56 H4B        -1.0101    2.7804   -3.3646 H         1 COA        -0.0393
     57 H51A        0.1721    2.3946   -0.5677 H         1 COA        -0.0393
     58 H52A       -1.3279    3.2941   -0.9132 H         1 COA        -0.0393
     59 H121       -1.2324    7.4355   -0.9984 H         1 COA        -0.0393
     60 H122       -2.5440    8.1138   -0.0133 H         1 COA        -0.0393
     61 H131        0.8796   10.5616   -1.1013 H         1 COA        -0.0393
     62 H132        0.7886    8.8842   -1.6454 H         1 COA        -0.0393
     63 H133        1.0681    9.2399    0.0618 H         1 COA        -0.0393
     64 H141       -1.3855   11.0192   -2.1904 H         1 COA        -0.0393
     65 H142       -2.7797   10.0132   -1.7903 H         1 COA        -0.0393
     66 H143       -1.4280    9.3402   -2.7211 H         1 COA        -0.0393
     67 H10        -0.7524   10.3112    1.4665 H         1 COA        -0.0393
     68 HO1        -1.3767   12.1229   -0.6167 H         1 COA         0.2010
     69 HN8        -2.4720    9.2197    2.3532 H         1 COA         0.0865
     70 H71        -4.6545   10.4787    3.2513 H         1 COA        -0.0393
     71 H72        -5.2158   10.0110    1.6453 H         1 COA        -0.0393
     72 H61        -4.0753    8.0833    3.7489 H         1 COA        -0.0393
     73 H62        -4.6376    7.6144    2.1390 H         1 COA        -0.0393
     74 HN4        -5.6603    6.2047    3.8767 H         1 COA         0.0865
     75 H31        -7.4324    5.6688    5.2347 H         1 COA        -0.0393
     76 H32        -8.0950    7.2995    5.0602 H         1 COA        -0.0393
     77 H21        -9.5876    5.6191    3.9235 H         1 COA        -0.0393
     78 H22        -8.8366    6.6833    2.7228 H         1 COA        -0.0393
     79 HS1        -7.8105    3.6980    3.6793 H         1 COA         0.1718
@<TRIPOS>BOND
     1    1    2 ar
     2    1    6 ar
     3    2    3 ar
     4    2   49 1
     5    3    4 ar
     6    4    5 ar
     7    4   10 ar
     8    5    6 ar
     9    5    8 ar
    10    6    7 1
    11    7   50 1
    12    7   51 1
    13    8    9 ar
    14    9   10 ar
    15    9   52 1
    16   10   11 1
    17   11   12 1
    18   11   21 1
    19   11   53 1
    20   12   13 1
    21   12   14 1
    22   12   54 1
    23   14   15 1
    24   14   20 1
    25   14   55 1
    26   15   16 1
    27   16   17 2
    28   16   18 1
    29   16   19 1
    30   20   21 1
    31   20   22 1
    32   20   56 1
    33   22   23 1
    34   22   57 1
    35   22   58 1
    36   23   24 1
    37   24   25 2
    38   24   26 1
    39   24   27 1
    40   27   28 1
    41   28   29 2
    42   28   30 1
    43   28   31 1
    44   31   33 1
    45   32   33 1
    46   32   34 1
    47   32   35 1
    48   32   36 1
    49   33   59 1
    50   33   60 1
    51   34   61 1
    52   34   62 1
    53   34   63 1
    54   35   64 1
    55   35   65 1
    56   35   66 1
    57   36   37 1
    58   36   38 1
    59   36   67 1
    60   37   68 1
    61   38   39 2
    62   38   40 am
    63   40   41 1
    64   40   69 1
    65   41   42 1
    66   41   70 1
    67   41   71 1
    68   42   43 1
    69   42   72 1
    70   42   73 1
    71   43   44 2
    72   43   45 am
    73   45   46 1
    74   45   74 1
    75   46   47 1
    76   46   75 1
    77   46   76 1
    78   47   48 1
    79   47   77 1
    80   47   78 1
    81   48   79 1
@<TRIPOS>SUBSTRUCTURE
     1 COA         1 GROUP 0 A     ****
@<TRIPOS>MOLECULE
[5-(6-aminopurin-9-yl)-2-[[[[3-hydroxy-2,2-dimethyl-4-oxo-4-[[3-oxo-3-(2-sulfanylethylamino)propyl]amino]butoxy]-oxido-phosphoryl]oxy-oxido-phosphoryl]oxymethyl]-4-oxido-tetrahydrofuran-3-yl] phosphate
   79    81     1     0     0
SMALL
USER_CHARGES

@<TRIPOS>ATOM
      1 N1A         5.7146    2.0302   -0.7890 N.ar      1 COA        -0.5260
      2 C2A         4.3962    2.1571   -0.5034 C.ar      1 COA         0.6629
      3 N3A         3.3299    1.7526   -1.2276 N.ar      1 COA        -0.5260
      4 C4A         3.7311    1.1587   -2.3614 C.ar      1 COA         0.5212
      5 C5A         5.0346    0.9576   -2.7868 C.ar      1 COA         0.0088
      6 C6A         6.0470    1.4195   -1.9517 C.ar      1 COA         0.5212
      7 N6A         7.3978    1.2581   -2.3043 N.pl3     1 COA        -0.6025
      8 N7A         5.0562    0.3154   -3.9993 N.2       1 COA        -0.4271
      9 C8A         3.7892    0.1293   -4.3054 C.ar      1 COA         0.5691
     10 N9A         2.9479    0.6234   -3.3440 N.pl3     1 COA        -0.5033
     11 C1B         1.4328    0.5815   -3.3775 C.3       1 COA         0.2693
     12 C2B         0.6799   -0.1567   -2.2458 C.3       1 COA         0.2008
     13 O2B         0.5449   -1.4388   -2.5302 O.co2     1 COA        -0.1615
     14 C3B        -0.6749    0.5672   -2.2968 C.3       1 COA         0.1111
     15 O3B        -1.4782    0.1594   -3.4088 O.3       1 COA         0.1618
     16 P3B        -3.0996    0.4363   -3.3454 P.3       1 COA        -1.1921
     17 O7A        -3.5828   -0.3425   -2.1254 O.co2     1 COA         0.3195
     18 O8A        -3.6001   -0.1211   -4.6746 O.co2     1 COA         0.3195
     19 O9A        -3.2339    1.9510   -3.2185 O.co2     1 COA         0.3195
     20 C4B        -0.2635    2.0121   -2.5599 C.3       1 COA         0.1111
     21 O4B         0.9490    1.9478   -3.3354 O.3       1 COA        -0.1436
     22 C5B         0.0275    2.8029   -1.2913 C.3       1 COA         0.1504
     23 O5B         0.3986    4.1249   -1.6460 O.3       1 COA         0.1618
     24 P1A         0.7670    5.1936   -0.4641 P.3       1 COA        -1.1062
     25 O1A         1.1289    6.5260   -1.0837 O.co2     1 COA         0.3195
     26 O2A         1.6876    4.5161    0.5275 O.co2     1 COA         0.3195
     27 O3A        -0.6886    5.3125    0.2679 O.3       1 COA         0.4672
     28 P2A        -1.1429    6.2040    1.5594 P.3       1 COA        -1.1062
     29 O4A        -2.6377    6.0612    1.7476 O.co2     1 COA         0.3195
     30 O5A        -0.1888    5.9134    2.6974 O.co2     1 COA         0.3195
     31 O6A        -0.8065    7.6957    0.9792 O.3       1 COA         0.1618
     32 CBP        -1.0090    9.5771   -0.5793 C.3       1 COA         0.0000
     33 CCP        -1.4652    8.1470   -0.1994 C.3       1 COA         0.1504
     34 CDP         0.5182    9.5632   -0.8289 C.3       1 COA         0.1179
     35 CEP        -1.6888   10.0085   -1.8940 C.3       1 COA         0.1179
     36 CAP        -1.3149   10.5877    0.5658 C.3       1 COA         0.0611
     37 OAP        -0.6287   10.1955    1.7518 O.3       1 COA        -0.2728
     38 C9P        -0.8916   12.0249    0.2699 C.2       1 COA         0.3561
     39 O9P         0.2422   12.4378    0.5067 O.2       1 COA        -0.2391
     40 N8P        -1.9050   12.7747   -0.3052 N.am      1 COA        -0.1909
     41 C7P        -1.7368   14.1547   -0.6986 C.3       1 COA         0.1160
     42 C6P        -1.2514   14.2219   -2.1393 C.3       1 COA         0.0286
     43 C5P        -1.0533   15.6490   -2.6178 C.2       1 COA         0.3561
     44 O5P        -1.2665   16.6306   -1.9114 O.2       1 COA        -0.2391
     45 N4P        -0.6112   15.6896   -3.9320 N.am      1 COA        -0.1909
     46 C3P        -0.3453   16.9241   -4.6341 C.3       1 COA         0.1160
     47 C2P        -1.5651   17.4594   -5.3660 C.3       1 COA         0.2607
     48 S1P        -2.1908   16.2908   -6.6112 S.3       1 COA        -0.3539
     49 H2A         4.1666    2.6505    0.4351 H         1 COA        -0.1369
     50 H61A        8.1108    1.6399   -1.7121 H         1 COA         0.2048
     51 H62A        7.6305    0.8472   -3.1886 H         1 COA         0.2048
     52 H8A         3.4224   -0.3522   -5.2016 H         1 COA        -0.1292
     53 H1B         1.1905    0.2000   -4.4133 H         1 COA        -0.0393
     54 H2B         1.1486    0.1388   -1.2941 H         1 COA        -0.0393
     55 H3B        -1.2745    0.4471   -1.3878 H         1 COA        -0.0393
     56 H4B        -1.0100    2.5497   -3.1559 H         1 COA        -0.0393
     57 H51A        0.8489    2.3441   -0.7330 H         1 COA        -0.0393
     58 H52A       -0.8601    2.8452   -0.6531 H         1 COA        -0.0393
     59 H121       -1.2324    7.4355   -0.9984 H         1 COA        -0.0393
     60 H122       -2.5440    8.1138   -0.0133 H         1 COA        -0.0393
     61 H131        0.8796   10.5616   -1.1013 H         1 COA        -0.0393
     62 H132        0.7886    8.8842   -1.6454 H         1 COA        -0.0393
     63 H133        1.0681    9.2399    0.0618 H         1 COA        -0.0393
     64 H141       -1.3855   11.0192   -2.1904 H         1 COA        -0.0393
     65 H142       -2.7797   10.0132   -1.7903 H         1 COA        -0.0393
     66 H143       -1.4280    9.3402   -2.7211 H         1 COA        -0.0393
     67 H10        -2.3880   10.5770    0.7950 H         1 COA        -0.0393
     68 HO1         0.3169   10.1957    1.5366 H         1 COA         0.2010
     69 HN8        -2.8042   12.3405   -0.4899 H         1 COA         0.0865
     70 H71        -2.6911   14.6793   -0.5876 H         1 COA        -0.0393
     71 H72        -1.0190   14.6354   -0.0263 H         1 COA        -0.0393
     72 H61        -1.9744   13.7322   -2.8035 H         1 COA        -0.0393
     73 H62        -0.2983   13.6879   -2.2410 H         1 COA        -0.0393
     74 HN4        -0.4679   14.8119   -4.4228 H         1 COA         0.0865
     75 H31        -0.0262   17.6435   -3.8755 H         1 COA        -0.0393
     76 H32         0.4970   16.7468   -5.3076 H         1 COA        -0.0393
     77 H21        -2.3754   17.6861   -4.6654 H         1 COA        -0.0393
     78 H22        -1.2975   18.3848   -5.8855 H         1 COA        -0.0393
     79 HS1        -2.4412   15.2939   -5.7522 H         1 COA         0.1718
@<TRIPOS>BOND
     1    1    2 ar
     2    1    6 ar
     3    2    3 ar
     4    2   49 1
     5    3    4 ar
     6    4    5 ar
     7    4   10 ar
     8    5    6 ar
     9    5    8 ar
    10    6    7 1
    11    7   50 1
    12    7   51 1
    13    8    9 ar
    14    9   10 ar
    15    9   52 1
    16   10   11 1
    17   11   12 1
    18   11   21 1
    19   11   53 1
    20   12   13 1
    21   12   14 1
    22   12   54 1
    23   14   15 1
    24   14   20 1
    25   14   55 1
    26   15   16 1
    27   16   17 2
    28   16   18 1
    29   16   19 1
    30   20   21 1
    31   20   22 1
    32   20   56 1
    33   22   23 1
    34   22   57 1
    35   22   58 1
    36   23   24 1
    37   24   25 2
    38   24   26 1
    39   24   27 1
    40   27   28 1
    41   28   29 2
    42   28   30 1
    43   28   31 1
    44   31   33 1
    45   32   33 1
    46   32   34 1
    47   32   35 1
    48   32   36 1
    49   33   59 1
    50   33   60 1
    51   34   61 1
    52   34   62 1
    53   34   63 1
    54   35   64 1
    55   35   65 1
    56   35   66 1
    57   36   37 1
    58   36   38 1
    59   36   67 1
    60   37   68 1
    61   38   39 2
    62   38   40 am
    63   40   41 1
    64   40   69 1
    65   41   42 1
    66   41   70 1
    67   41   71 1
    68   42   43 1
    69   42   72 1
    70   42   73 1
    71   43   44 2
    72   43   45 am
    73   45   46 1
    74   45   74 1
    75   46   47 1
    76   46   75 1
    77   46   76 1
    78   47   48 1
    79   47   77 1
    80   47   78 1
    81   48   79 1
@<TRIPOS>SUBSTRUCTURE
     1 COA         1 GROUP 0 A     ****
@<TRIPOS>MOLECULE
[5-(6-aminopurin-9-yl)-2-[[[[3-hydroxy-2,2-dimethyl-4-oxo-4-[[3-oxo-3-(2-sulfanylethylamino)propyl]amino]butoxy]-oxido-phosphoryl]oxy-oxido-phosphoryl]oxymethyl]-4-oxido-tetrahydrofuran-3-yl] phosphate
   79    81     1     0     0
SMALL
USER_CHARGES

@<TRIPOS>ATOM
      1 N1A         6.3197    3.3711    0.1967 N.ar      1 COA        -0.5260
      2 C2A         5.0033    3.3256    0.5141 C.ar      1 COA         0.6629
      3 N3A         4.0730    2.4196    0.1418 N.ar      1 COA        -0.5260
      4 C4A         4.6208    1.4811   -0.6447 C.ar      1 COA         0.5212
      5 C5A         5.9423    1.3962   -1.0530 C.ar      1 COA         0.0088
      6 C6A         6.8050    2.3902   -0.6021 C.ar      1 COA         0.5212
      7 N6A         8.1621    2.3826   -0.9671 N.pl3     1 COA        -0.6025
      8 N7A         6.1335    0.2987   -1.8543 N.2       1 COA        -0.4271
      9 C8A         4.9500   -0.2731   -1.9316 C.ar      1 COA         0.5691
     10 N9A         4.0006    0.4065   -1.2155 N.pl3     1 COA        -0.5033
     11 C1B         2.5376    0.0288   -1.0907 C.3       1 COA         0.2693
     12 C2B         1.9579   -0.2640    0.3131 C.3       1 COA         0.2008
     13 O2B         2.1299   -1.5323    0.6368 O.co2     1 COA        -0.1615
     14 C3B         0.4729    0.0487    0.0699 C.3       1 COA         0.1111
     15 O3B        -0.1943   -0.9780   -0.6709 O.3       1 COA         0.1618
     16 P3B        -1.8364   -1.0586   -0.5907 P.3       1 COA        -1.1921
     17 O7A        -2.1459   -1.2889    0.8856 O.co2     1 COA         0.3195
     18 O8A        -2.1706   -2.2476   -1.4866 O.co2     1 COA         0.3195
     19 O9A        -2.3217    0.2823   -1.1335 O.co2     1 COA         0.3195
     20 C4B         0.5412    1.2713   -0.8394 C.3       1 COA         0.1111
     21 O4B         1.7485    1.1278   -1.6124 O.3       1 COA        -0.1436
     22 C5B         0.6184    2.5901   -0.0816 C.3       1 COA         0.1504
     23 O5B         0.6777    3.6562   -1.0149 O.3       1 COA         0.1618
     24 P1A         0.7670    5.1936   -0.4641 P.3       1 COA        -1.1062
     25 O1A         0.8194    6.1476   -1.6376 O.co2     1 COA         0.3195
     26 O2A         1.8029    5.2507    0.6375 O.co2     1 COA         0.3195
     27 O3A        -0.6886    5.3125    0.2679 O.3       1 COA         0.4672
     28 P2A        -1.1429    6.2040    1.5594 P.3       1 COA        -1.1062
     29 O4A        -2.6377    6.0612    1.7476 O.co2     1 COA         0.3195
     30 O5A        -0.1888    5.9134    2.6974 O.co2     1 COA         0.3195
     31 O6A        -0.8065    7.6957    0.9792 O.3       1 COA         0.1618
     32 CBP        -1.0090    9.5771   -0.5793 C.3       1 COA         0.0000
     33 CCP        -1.4652    8.1470   -0.1994 C.3       1 COA         0.1504
     34 CDP         0.5182    9.5632   -0.8289 C.3       1 COA         0.1179
     35 CEP        -1.6888   10.0085   -1.8940 C.3       1 COA         0.1179
     36 CAP        -1.3149   10.5877    0.5658 C.3       1 COA         0.0611
     37 OAP        -0.6287   10.1955    1.7518 O.3       1 COA        -0.2728
     38 C9P        -0.8916   12.0249    0.2699 C.2       1 COA         0.3561
     39 O9P         0.2422   12.4378    0.5067 O.2       1 COA        -0.2391
     40 N8P        -1.9050   12.7747   -0.3052 N.am      1 COA        -0.1909
     41 C7P        -1.7368   14.1547   -0.6986 C.3       1 COA         0.1160
     42 C6P        -1.2514   14.2219   -2.1393 C.3       1 COA         0.0286
     43 C5P        -1.0533   15.6490   -2.6178 C.2       1 COA         0.3561
     44 O5P        -1.2665   16.6306   -1.9114 O.2       1 COA        -0.2391
     45 N4P        -0.6112   15.6896   -3.9320 N.am      1 COA        -0.1909
     46 C3P        -0.3453   16.9241   -4.6341 C.3       1 COA         0.1160
     47 C2P         1.0912   17.3944   -4.4743 C.3       1 COA         0.2607
     48 S1P         2.2891   16.1813   -5.1073 S.3       1 COA        -0.3539
     49 H2A         4.6492    4.1260    1.1552 H         1 COA        -0.1369
     50 H61A        8.7564    3.1335   -0.6708 H         1 COA         0.2048
     51 H62A        8.4991    1.6788   -1.5963 H         1 COA         0.2048
     52 H8A         4.7208   -1.1726   -2.4865 H         1 COA        -0.1292
     53 H1B         2.4085   -0.8200   -1.8256 H         1 COA        -0.0393
     54 H2B         2.3286    0.5212    0.9904 H         1 COA        -0.0393
     55 H3B        -0.0977    0.2245    0.9885 H         1 COA        -0.0393
     56 H4B        -0.2996    1.3083   -1.5416 H         1 COA        -0.0393
     57 H51A        1.5144    2.6204    0.5455 H         1 COA        -0.0393
     58 H52A       -0.2654    2.7227    0.5494 H         1 COA        -0.0393
     59 H121       -1.2324    7.4355   -0.9984 H         1 COA        -0.0393
     60 H122       -2.5440    8.1138   -0.0133 H         1 COA        -0.0393
     61 H131        0.8796   10.5616   -1.1013 H         1 COA        -0.0393
     62 H132        0.7886    8.8842   -1.6454 H         1 COA        -0.0393
     63 H133        1.0681    9.2399    0.0618 H         1 COA        -0.0393
     64 H141       -1.3855   11.0192   -2.1904 H         1 COA        -0.0393
     65 H142       -2.7797   10.0132   -1.7903 H         1 COA        -0.0393
     66 H143       -1.4280    9.3402   -2.7211 H         1 COA        -0.0393
     67 H10        -2.3880   10.5770    0.7950 H         1 COA        -0.0393
     68 HO1         0.3169   10.1957    1.5366 H         1 COA         0.2010
     69 HN8        -2.8042   12.3405   -0.4899 H         1 COA         0.0865
     70 H71        -2.6911   14.6793   -0.5876 H         1 COA        -0.0393
     71 H72        -1.0190   14.6354   -0.0263 H         1 COA        -0.0393
     72 H61        -1.9744   13.7322   -2.8035 H         1 COA        -0.0393
     73 H62        -0.2983   13.6879   -2.2410 H         1 COA        -0.0393
     74 HN4        -0.4679   14.8119   -4.4228 H         1 COA         0.0865
     75 H31        -0.5522   16.7254   -5.6889 H         1 COA        -0.0393
     76 H32        -1.0659   17.6667   -4.2822 H         1 COA        -0.0393
     77 H21         1.2533   18.3448   -4.9930 H         1 COA        -0.0393
     78 H22         1.3051   17.5476   -3.4119 H         1 COA        -0.0393
     79 HS1         1.9268   15.1871   -4.2859 H         1 COA         0.1718
@<TRIPOS>BOND
     1    1    2 ar
     2    1    6 ar
     3    2    3 ar
     4    2   49 1
     5    3    4 ar
     6    4    5 ar
     7    4   10 ar
     8    5    6 ar
     9    5    8 ar
    10    6    7 1
    11    7   50 1
    12    7   51 1
    13    8    9 ar
    14    9   10 ar
    15    9   52 1
    16   10   11 1
    17   11   12 1
    18   11   21 1
    19   11   53 1
    20   12   13 1
    21   12   14 1
    22   12   54 1
    23   14   15 1
    24   14   20 1
    25   14   55 1
    26   15   16 1
    27   16   17 2
    28   16   18 1
    29   16   19 1
    30   20   21 1
    31   20   22 1
    32   20   56 1
    33   22   23 1
    34   22   57 1
    35   22   58 1
    36   23   24 1
    37   24   25 2
    38   24   26 1
    39   24   27 1
    40   27   28 1
    41   28   29 2
    42   28   30 1
    43   28   31 1
    44   31   33 1
    45   32   33 1
    46   32   34 1
    47   32   35 1
    48   32   36 1
    49   33   59 1
    50   33   60 1
    51   34   61 1
    52   34   62 1
    53   34   63 1
    54   35   64 1
    55   35   65 1
    56   35   66 1
    57   36   37 1
    58   36   38 1
    59   36   67 1
    60   37   68 1
    61   38   39 2
    62   38   40 am
    63   40   41 1
    64   40   69 1
    65   41   42 1
    66   41   70 1
    67   41   71 1
    68   42   43 1
    69   42   72 1
    70   42   73 1
    71   43   44 2
    72   43   45 am
    73   45   46 1
    74   45   74 1
    75   46   47 1
    76   46   75 1
    77   46   76 1
    78   47   48 1
    79   47   77 1
    80   47   78 1
    81   48   79 1
@<TRIPOS>SUBSTRUCTURE
     1 COA         1 GROUP 0 A     ****
@<TRIPOS>MOLECULE
[5-(6-aminopurin-9-yl)-2-[[[[3-hydroxy-2,2-dimethyl-4-oxo-4-[[3-oxo-3-(2-sulfanylethylamino)propyl]amino]butoxy]-oxido-phosphoryl]oxy-oxido-phosphoryl]oxymethyl]-4-oxido-tetrahydrofuran-3-yl] phosphate
   79    81     1     0     0
SMALL
USER_CHARGES

@<TRIPOS>ATOM
      1 N1A         4.6908    0.9263    0.5284 N.ar      1 COA        -0.5260
      2 C2A         3.4193    1.3931    0.4919 C.ar      1 COA         0.6629
      3 N3A         2.4653    1.1803   -0.4405 N.ar      1 COA        -0.5260
      4 C4A         2.9338    0.3916   -1.4192 C.ar      1 COA         0.5212
      5 C5A         4.2020   -0.1580   -1.5185 C.ar      1 COA         0.0088
      6 C6A         5.0963    0.1348   -0.4937 C.ar      1 COA         0.5212
      7 N6A         6.4038   -0.3801   -0.5131 N.pl3     1 COA        -0.6025
      8 N7A         4.3170   -0.9111   -2.6598 N.2       1 COA        -0.4271
      9 C8A         3.1403   -0.8212   -3.2436 C.ar      1 COA         0.5691
     10 N9A         2.2683   -0.0422   -2.5302 N.pl3     1 COA        -0.5033
     11 C1B         0.8363    0.2748   -2.9142 C.3       1 COA         0.2693
     12 C2B        -0.3043   -0.1391   -1.9549 C.3       1 COA         0.2008
     13 O2B        -0.6991   -1.3747   -2.2004 O.co2     1 COA        -0.1615
     14 C3B        -1.3853    0.8773   -2.3558 C.3       1 COA         0.1111
     15 O3B        -2.0094    0.5576   -3.6033 O.3       1 COA         0.1618
     16 P3B        -3.4806    1.2180   -3.9334 P.3       1 COA        -1.1921
     17 O7A        -4.3962    0.7100   -2.8235 O.co2     1 COA         0.3195
     18 O8A        -3.8112    0.6588   -5.3140 O.co2     1 COA         0.3195
     19 O9A        -3.2466    2.7257   -3.9151 O.co2     1 COA         0.3195
     20 C4B        -0.5713    2.1464   -2.5855 C.3       1 COA         0.1111
     21 O4B         0.7211    1.7136   -3.0526 O.3       1 COA        -0.1436
     22 C5B        -0.3655    2.9745   -1.3239 C.3       1 COA         0.1504
     23 O5B         0.3986    4.1249   -1.6460 O.3       1 COA         0.1618
     24 P1A         0.7670    5.1936   -0.4641 P.3       1 COA        -1.1062
     25 O1A         1.1289    6.5260   -1.0837 O.co2     1 COA         0.3195
     26 O2A         1.6876    4.5161    0.5275 O.co2     1 COA         0.3195
     27 O3A        -0.6886    5.3125    0.2679 O.3       1 COA         0.4672
     28 P2A        -1.1429    6.2040    1.5594 P.3       1 COA        -1.1062
     29 O4A        -2.6377    6.0612    1.7476 O.co2     1 COA         0.3195
     30 O5A        -0.1888    5.9134    2.6974 O.co2     1 COA         0.3195
     31 O6A        -0.8065    7.6957    0.9792 O.3       1 COA         0.1618
     32 CBP        -1.0090    9.5771   -0.5793 C.3       1 COA         0.0000
     33 CCP        -1.4652    8.1470   -0.1994 C.3       1 COA         0.1504
     34 CDP         0.5182    9.5632   -0.8289 C.3       1 COA         0.1179
     35 CEP        -1.6888   10.0085   -1.8940 C.3       1 COA         0.1179
     36 CAP        -1.3149   10.5877    0.5658 C.3       1 COA         0.0611
     37 OAP        -0.8841   11.8921    0.1862 O.3       1 COA        -0.2728
     38 C9P        -2.7940   10.7032    0.9282 C.2       1 COA         0.3561
     39 O9P        -3.5554   11.4723    0.3443 O.2       1 COA        -0.2391
     40 N8P        -3.1652    9.8410    1.9474 N.am      1 COA        -0.1909
     41 C7P        -4.5178    9.7490    2.4468 C.3       1 COA         0.1160
     42 C6P        -4.7105   10.7345    3.5903 C.3       1 COA         0.0286
     43 C5P        -6.1157   10.6894    4.1633 C.2       1 COA         0.3561
     44 O5P        -6.8083    9.6754    4.1659 O.2       1 COA        -0.2391
     45 N4P        -6.5001   11.9226    4.6690 N.am      1 COA        -0.1909
     46 C3P        -7.7925   12.1570    5.2710 C.3       1 COA         0.1160
     47 C2P        -7.7991   11.9007    6.7691 C.3       1 COA         0.2607
     48 S1P        -9.4315   12.1996    7.5132 S.3       1 COA        -0.3539
     49 H2A         3.1287    2.0232    1.3259 H         1 COA        -0.1369
     50 H61A        7.0472   -0.1189    0.2098 H         1 COA         0.2048
     51 H62A        6.7069   -0.9256   -1.2976 H         1 COA         0.2048
     52 H8A         2.8628   -1.2932   -4.1762 H         1 COA        -0.1292
     53 H1B         0.7316   -0.1451   -3.9582 H         1 COA        -0.0393
     54 H2B         0.0098    0.1350   -0.9357 H         1 COA        -0.0393
     55 H3B        -2.1756    1.0002   -1.6070 H         1 COA        -0.0393
     56 H4B        -1.0101    2.7804   -3.3646 H         1 COA        -0.0393
     57 H51A        0.1721    2.3946   -0.5677 H         1 COA        -0.0393
     58 H52A       -1.3279    3.2941   -0.9132 H         1 COA        -0.0393
     59 H121       -1.2324    7.4355   -0.9984 H         1 COA        -0.0393
     60 H122       -2.5440    8.1138   -0.0133 H         1 COA        -0.0393
     61 H131        0.8796   10.5616   -1.1013 H         1 COA        -0.0393
     62 H132        0.7886    8.8842   -1.6454 H         1 COA        -0.0393
     63 H133        1.0681    9.2399    0.0618 H         1 COA        -0.0393
     64 H141       -1.3855   11.0192   -2.1904 H         1 COA        -0.0393
     65 H142       -2.7797   10.0132   -1.7903 H         1 COA        -0.0393
     66 H143       -1.4280    9.3402   -2.7211 H         1 COA        -0.0393
     67 H10        -0.7524   10.3112    1.4665 H         1 COA        -0.0393
     68 HO1        -1.3767   12.1229   -0.6167 H         1 COA         0.2010
     69 HN8        -2.4720    9.2197    2.3532 H         1 COA         0.0865
     70 H71        -5.2173    9.9612    1.6320 H         1 COA        -0.0393
     71 H72        -4.7082    8.7249    2.7833 H         1 COA        -0.0393
     72 H61        -4.5113   11.7565    3.2443 H         1 COA        -0.0393
     73 H62        -4.0007   10.5174    4.3983 H         1 COA        -0.0393
     74 HN4        -5.8435   12.6956    4.6136 H         1 COA         0.0865
     75 H31        -8.0340   13.2051    5.0758 H         1 COA        -0.0393
     76 H32        -8.5212   11.5379    4.7417 H         1 COA        -0.0393
     77 H21        -7.4993   10.8718    6.9930 H         1 COA        -0.0393
     78 H22        -7.0859   12.5745    7.2541 H         1 COA        -0.0393
     79 HS1        -9.5099   13.4898    7.1616 H         1 COA         0.1718
@<TRIPOS>BOND
     1    1    2 ar
     2    1    6 ar
     3    2    3 ar
     4    2   49 1
     5    3    4 ar
     6    4    5 ar
     7    4   10 ar
     8    5    6 ar
     9    5    8 ar
    10    6    7 1
    11    7   50 1
    12    7   51 1
    13    8    9 ar
    14    9   10 ar
    15    9   52 1
    16   10   11 1
    17   11   12 1
    18   11   21 1
    19   11   53 1
    20   12   13 1
    21   12   14 1
    22   12   54 1
    23   14   15 1
    24   14   20 1
    25   14   55 1
    26   15   16 1
    27   16   17 2
    28   16   18 1
    29   16   19 1
    30   20   21 1
    31   20   22 1
    32   20   56 1
    33   22   23 1
    34   22   57 1
    35   22   58 1
    36   23   24 1
    37   24   25 2
    38   24   26 1
    39   24   27 1
    40   27   28 1
    41   28   29 2
    42   28   30 1
    43   28   31 1
    44   31   33 1
    45   32   33 1
    46   32   34 1
    47   32   35 1
    48   32   36 1
    49   33   59 1
    50   33   60 1
    51   34   61 1
    52   34   62 1
    53   34   63 1
    54   35   64 1
    55   35   65 1
    56   35   66 1
    57   36   37 1
    58   36   38 1
    59   36   67 1
    60   37   68 1
    61   38   39 2
    62   38   40 am
    63   40   41 1
    64   40   69 1
    65   41   42 1
    66   41   70 1
    67   41   71 1
    68   42   43 1
    69   42   72 1
    70   42   73 1
    71   43   44 2
    72   43   45 am
    73   45   46 1
    74   45   74 1
    75   46   47 1
    76   46   75 1
    77   46   76 1
    78   47   48 1
    79   47   77 1
    80   47   78 1
    81   48   79 1
@<TRIPOS>SUBSTRUCTURE
     1 COA         1 GROUP 0 A     ****
@<TRIPOS>MOLECULE
[5-(6-aminopurin-9-yl)-2-[[[[3-hydroxy-2,2-dimethyl-4-oxo-4-[[3-oxo-3-(2-sulfanylethylamino)propyl]amino]butoxy]-oxido-phosphoryl]oxy-oxido-phosphoryl]oxymethyl]-4-oxido-tetrahydrofuran-3-yl] phosphate
   79    81     1     0     0
SMALL
USER_CHARGES

@<TRIPOS>ATOM
      1 N1A         5.7146    2.0302   -0.7890 N.ar      1 COA        -0.5260
      2 C2A         4.3962    2.1571   -0.5034 C.ar      1 COA         0.6629
      3 N3A         3.3299    1.7526   -1.2276 N.ar      1 COA        -0.5260
      4 C4A         3.7311    1.1587   -2.3614 C.ar      1 COA         0.5212
      5 C5A         5.0346    0.9576   -2.7868 C.ar      1 COA         0.0088
      6 C6A         6.0470    1.4195   -1.9517 C.ar      1 COA         0.5212
      7 N6A         7.3978    1.2581   -2.3043 N.pl3     1 COA        -0.6025
      8 N7A         5.0562    0.3154   -3.9993 N.2       1 COA        -0.4271
      9 C8A         3.7892    0.1293   -4.3054 C.ar      1 COA         0.5691
     10 N9A         2.9479    0.6234   -3.3440 N.pl3     1 COA        -0.5033
     11 C1B         1.4328    0.5815   -3.3775 C.3       1 COA         0.2693
     12 C2B         0.6799   -0.1567   -2.2458 C.3       1 COA         0.2008
     13 O2B         0.5449   -1.4388   -2.5302 O.co2     1 COA        -0.1615
     14 C3B        -0.6749    0.5672   -2.2968 C.3       1 COA         0.1111
     15 O3B        -1.4782    0.1594   -3.4088 O.3       1 COA         0.1618
     16 P3B        -3.0996    0.4363   -3.3454 P.3       1 COA        -1.1921
     17 O7A        -3.5828   -0.3425   -2.1254 O.co2     1 COA         0.3195
     18 O8A        -3.6001   -0.1211   -4.6746 O.co2     1 COA         0.3195
     19 O9A        -3.2339    1.9510   -3.2185 O.co2     1 COA         0.3195
     20 C4B        -0.2635    2.0121   -2.5599 C.3       1 COA         0.1111
     21 O4B         0.9490    1.9478   -3.3354 O.3       1 COA        -0.1436
     22 C5B         0.0275    2.8029   -1.2913 C.3       1 COA         0.1504
     23 O5B         0.3986    4.1249   -1.6460 O.3       1 COA         0.1618
     24 P1A         0.7670    5.1936   -0.4641 P.3       1 COA        -1.1062
     25 O1A         1.1289    6.5260   -1.0837 O.co2     1 COA         0.3195
     26 O2A         1.6876    4.5161    0.5275 O.co2     1 COA         0.3195
     27 O3A        -0.6886    5.3125    0.2679 O.3       1 COA         0.4672
     28 P2A        -1.1429    6.2040    1.5594 P.3       1 COA        -1.1062
     29 O4A        -2.6377    6.0612    1.7476 O.co2     1 COA         0.3195
     30 O5A        -0.1888    5.9134    2.6974 O.co2     1 COA         0.3195
     31 O6A        -0.8065    7.6957    0.9792 O.3       1 COA         0.1618
     32 CBP        -1.0090    9.5771   -0.5793 C.3       1 COA         0.0000
     33 CCP        -1.4652    8.1470   -0.1994 C.3       1 COA         0.1504
     34 CDP         0.5182    9.5632   -0.8289 C.3       1 COA         0.1179
     35 CEP        -1.6888   10.0085   -1.8940 C.3       1 COA         0.1179
     36 CAP        -1.3149   10.5877    0.5658 C.3       1 COA         0.0611
     37 OAP        -0.6287   10.1955    1.7518 O.3       1 COA        -0.2728
     38 C9P        -0.8916   12.0249    0.2699 C.2       1 COA         0.3561
     39 O9P         0.2422   12.4378    0.5067 O.2       1 COA        -0.2391
     40 N8P        -1.9050   12.7747   -0.3052 N.am      1 COA        -0.1909
     41 C7P        -1.7368   14.1547   -0.6986 C.3       1 COA         0.1160
     42 C6P        -2.1026   15.0674    0.4629 C.3       1 COA         0.0286
     43 C5P        -1.9475   16.5372    0.1157 C.2       1 COA         0.3561
     44 O5P        -1.5666   16.9318   -0.9830 O.2       1 COA        -0.2391
     45 N4P        -2.2853   17.3525    1.1859 N.am      1 COA        -0.1909
     46 C3P        -2.2249   18.7948    1.1250 C.3       1 COA         0.1160
     47 C2P        -0.8726   19.3455    1.5474 C.3       1 COA         0.2607
     48 S1P        -0.4449   18.8903    3.2554 S.3       1 COA        -0.3539
     49 H2A         4.1666    2.6505    0.4351 H         1 COA        -0.1369
     50 H61A        8.1108    1.6399   -1.7121 H         1 COA         0.2048
     51 H62A        7.6305    0.8472   -3.1886 H         1 COA         0.2048
     52 H8A         3.4224   -0.3522   -5.2016 H         1 COA        -0.1292
     53 H1B         1.1905    0.2000   -4.4133 H         1 COA        -0.0393
     54 H2B         1.1486    0.1388   -1.2941 H         1 COA        -0.0393
     55 H3B        -1.2745    0.4471   -1.3878 H         1 COA        -0.0393
     56 H4B        -1.0100    2.5497   -3.1559 H         1 COA        -0.0393
     57 H51A        0.8489    2.3441   -0.7330 H         1 COA        -0.0393
     58 H52A       -0.8601    2.8452   -0.6531 H         1 COA        -0.0393
     59 H121       -1.2324    7.4355   -0.9984 H         1 COA        -0.0393
     60 H122       -2.5440    8.1138   -0.0133 H         1 COA        -0.0393
     61 H131        0.8796   10.5616   -1.1013 H         1 COA        -0.0393
     62 H132        0.7886    8.8842   -1.6454 H         1 COA        -0.0393
     63 H133        1.0681    9.2399    0.0618 H         1 COA        -0.0393
     64 H141       -1.3855   11.0192   -2.1904 H         1 COA        -0.0393
     65 H142       -2.7797   10.0132   -1.7903 H         1 COA        -0.0393
     66 H143       -1.4280    9.3402   -2.7211 H         1 COA        -0.0393
     67 H10        -2.3880   10.5770    0.7950 H         1 COA        -0.0393
     68 HO1         0.3169   10.1957    1.5366 H         1 COA         0.2010
     69 HN8        -2.8042   12.3405   -0.4899 H         1 COA         0.0865
     70 H71        -0.6987   14.3172   -1.0054 H         1 COA        -0.0393
     71 H72        -2.3708   14.3611   -1.5667 H         1 COA        -0.0393
     72 H61        -1.4661   14.8482    1.3291 H         1 COA        -0.0393
     73 H62        -3.1422   14.8920    0.7668 H         1 COA        -0.0393
     74 HN4        -2.5889   16.9159    2.0513 H         1 COA         0.0865
     75 H31        -2.4234   19.0645    0.0845 H         1 COA        -0.0393
     76 H32        -3.0411   19.1863    1.7374 H         1 COA        -0.0393
     77 H21        -0.0783   18.9879    0.8841 H         1 COA        -0.0393
     78 H22        -0.8941   20.4383    1.4916 H         1 COA        -0.0393
     79 HS1        -0.4776   17.5657    3.0581 H         1 COA         0.1718
@<TRIPOS>BOND
     1    1    2 ar
     2    1    6 ar
     3    2    3 ar
     4    2   49 1
     5    3    4 ar
     6    4    5 ar
     7    4   10 ar
     8    5    6 ar
     9    5    8 ar
    10    6    7 1
    11    7   50 1
    12    7   51 1
    13    8    9 ar
    14    9   10 ar
    15    9   52 1
    16   10   11 1
    17   11   12 1
    18   11   21 1
    19   11   53 1
    20   12   13 1
    21   12   14 1
    22   12   54 1
    23   14   15 1
    24   14   20 1
    25   14   55 1
    26   15   16 1
    27   16   17 2
    28   16   18 1
    29   16   19 1
    30   20   21 1
    31   20   22 1
    32   20   56 1
    33   22   23 1
    34   22   57 1
    35   22   58 1
    36   23   24 1
    37   24   25 2
    38   24   26 1
    39   24   27 1
    40   27   28 1
    41   28   29 2
    42   28   30 1
    43   28   31 1
    44   31   33 1
    45   32   33 1
    46   32   34 1
    47   32   35 1
    48   32   36 1
    49   33   59 1
    50   33   60 1
    51   34   61 1
    52   34   62 1
    53   34   63 1
    54   35   64 1
    55   35   65 1
    56   35   66 1
    57   36   37 1
    58   36   38 1
    59   36   67 1
    60   37   68 1
    61   38   39 2
    62   38   40 am
    63   40   41 1
    64   40   69 1
    65   41   42 1
    66   41   70 1
    67   41   71 1
    68   42   43 1
    69   42   72 1
    70   42   73 1
    71   43   44 2
    72   43   45 am
    73   45   46 1
    74   45   74 1
    75   46   47 1
    76   46   75 1
    77   46   76 1
    78   47   48 1
    79   47   77 1
    80   47   78 1
    81   48   79 1
@<TRIPOS>SUBSTRUCTURE
     1 COA         1 GROUP 0 A     ****
@<TRIPOS>MOLECULE
[5-(6-aminopurin-9-yl)-2-[[[[3-hydroxy-2,2-dimethyl-4-oxo-4-[[3-oxo-3-(2-sulfanylethylamino)propyl]amino]butoxy]-oxido-phosphoryl]oxy-oxido-phosphoryl]oxymethyl]-4-oxido-tetrahydrofuran-3-yl] phosphate
   79    81     1     0     0
SMALL
USER_CHARGES

@<TRIPOS>ATOM
      1 N1A         6.3197    3.3711    0.1967 N.ar      1 COA        -0.5260
      2 C2A         5.0033    3.3256    0.5141 C.ar      1 COA         0.6629
      3 N3A         4.0730    2.4196    0.1418 N.ar      1 COA        -0.5260
      4 C4A         4.6208    1.4811   -0.6447 C.ar      1 COA         0.5212
      5 C5A         5.9423    1.3962   -1.0530 C.ar      1 COA         0.0088
      6 C6A         6.8050    2.3902   -0.6021 C.ar      1 COA         0.5212
      7 N6A         8.1621    2.3826   -0.9671 N.pl3     1 COA        -0.6025
      8 N7A         6.1335    0.2987   -1.8543 N.2       1 COA        -0.4271
      9 C8A         4.9500   -0.2731   -1.9316 C.ar      1 COA         0.5691
     10 N9A         4.0006    0.4065   -1.2155 N.pl3     1 COA        -0.5033
     11 C1B         2.5376    0.0288   -1.0907 C.3       1 COA         0.2693
     12 C2B         1.9579   -0.2640    0.3131 C.3       1 COA         0.2008
     13 O2B         2.1299   -1.5323    0.6368 O.co2     1 COA        -0.1615
     14 C3B         0.4729    0.0487    0.0699 C.3       1 COA         0.1111
     15 O3B        -0.1943   -0.9780   -0.6709 O.3       1 COA         0.1618
     16 P3B        -1.8364   -1.0586   -0.5907 P.3       1 COA        -1.1921
     17 O7A        -2.1459   -1.2889    0.8856 O.co2     1 COA         0.3195
     18 O8A        -2.1706   -2.2476   -1.4866 O.co2     1 COA         0.3195
     19 O9A        -2.3217    0.2823   -1.1335 O.co2     1 COA         0.3195
     20 C4B         0.5412    1.2713   -0.8394 C.3       1 COA         0.1111
     21 O4B         1.7485    1.1278   -1.6124 O.3       1 COA        -0.1436
     22 C5B         0.6184    2.5901   -0.0816 C.3       1 COA         0.1504
     23 O5B         0.6777    3.6562   -1.0149 O.3       1 COA         0.1618
     24 P1A         0.7670    5.1936   -0.4641 P.3       1 COA        -1.1062
     25 O1A         0.8194    6.1476   -1.6376 O.co2     1 COA         0.3195
     26 O2A         1.8029    5.2507    0.6375 O.co2     1 COA         0.3195
     27 O3A        -0.6886    5.3125    0.2679 O.3       1 COA         0.4672
     28 P2A        -1.1429    6.2040    1.5594 P.3       1 COA        -1.1062
     29 O4A        -2.6377    6.0612    1.7476 O.co2     1 COA         0.3195
     30 O5A        -0.1888    5.9134    2.6974 O.co2     1 COA         0.3195
     31 O6A        -0.8065    7.6957    0.9792 O.3       1 COA         0.1618
     32 CBP        -1.0090    9.5771   -0.5793 C.3       1 COA         0.0000
     33 CCP        -1.4652    8.1470   -0.1994 C.3       1 COA         0.1504
     34 CDP         0.5182    9.5632   -0.8289 C.3       1 COA         0.1179
     35 CEP        -1.6888   10.0085   -1.8940 C.3       1 COA         0.1179
     36 CAP        -1.3149   10.5877    0.5658 C.3       1 COA         0.0611
     37 OAP        -0.6287   10.1955    1.7518 O.3       1 COA        -0.2728
     38 C9P        -0.8916   12.0249    0.2699 C.2       1 COA         0.3561
     39 O9P         0.2422   12.4378    0.5067 O.2       1 COA        -0.2391
     40 N8P        -1.9050   12.7747   -0.3052 N.am      1 COA        -0.1909
     41 C7P        -1.7368   14.1547   -0.6986 C.3       1 COA         0.1160
     42 C6P        -1.2514   14.2219   -2.1393 C.3       1 COA         0.0286
     43 C5P        -2.2251   13.5770   -3.1093 C.2       1 COA         0.3561
     44 O5P        -3.4380   13.5422   -2.9207 O.2       1 COA        -0.2391
     45 N4P        -1.5707   13.0438   -4.2100 N.am      1 COA        -0.1909
     46 C3P        -2.2618   12.3703   -5.2853 C.3       1 COA         0.1160
     47 C2P        -2.6833   13.3164   -6.3977 C.3       1 COA         0.2607
     48 S1P        -1.2648   14.1641   -7.1573 S.3       1 COA        -0.3539
     49 H2A         4.6492    4.1260    1.1552 H         1 COA        -0.1369
     50 H61A        8.7564    3.1335   -0.6708 H         1 COA         0.2048
     51 H62A        8.4991    1.6788   -1.5963 H         1 COA         0.2048
     52 H8A         4.7208   -1.1726   -2.4865 H         1 COA        -0.1292
     53 H1B         2.4085   -0.8200   -1.8256 H         1 COA        -0.0393
     54 H2B         2.3286    0.5212    0.9904 H         1 COA        -0.0393
     55 H3B        -0.0977    0.2245    0.9885 H         1 COA        -0.0393
     56 H4B        -0.2996    1.3083   -1.5416 H         1 COA        -0.0393
     57 H51A        1.5144    2.6204    0.5455 H         1 COA        -0.0393
     58 H52A       -0.2654    2.7227    0.5494 H         1 COA        -0.0393
     59 H121       -1.2324    7.4355   -0.9984 H         1 COA        -0.0393
     60 H122       -2.5440    8.1138   -0.0133 H         1 COA        -0.0393
     61 H131        0.8796   10.5616   -1.1013 H         1 COA        -0.0393
     62 H132        0.7886    8.8842   -1.6454 H         1 COA        -0.0393
     63 H133        1.0681    9.2399    0.0618 H         1 COA        -0.0393
     64 H141       -1.3855   11.0192   -2.1904 H         1 COA        -0.0393
     65 H142       -2.7797   10.0132   -1.7903 H         1 COA        -0.0393
     66 H143       -1.4280    9.3402   -2.7211 H         1 COA        -0.0393
     67 H10        -2.3880   10.5770    0.7950 H         1 COA        -0.0393
     68 HO1         0.3169   10.1957    1.5366 H         1 COA         0.2010
     69 HN8        -2.8042   12.3405   -0.4899 H         1 COA         0.0865
     70 H71        -2.6911   14.6793   -0.5876 H         1 COA        -0.0393
     71 H72        -1.0190   14.6354   -0.0263 H         1 COA        -0.0393
     72 H61        -0.2828   13.7155   -2.2344 H         1 COA        -0.0393
     73 H62        -1.1061   15.2673   -2.4393 H         1 COA        -0.0393
     74 HN4        -0.5600   13.1307   -4.2624 H         1 COA         0.0865
     75 H31        -1.5630   11.6277   -5.6789 H         1 COA        -0.0393
     76 H32        -3.1114   11.8379   -4.8503 H         1 COA        -0.0393
     77 H21        -3.2285   12.7819   -7.1824 H         1 COA        -0.0393
     78 H22        -3.3466   14.0841   -5.9872 H         1 COA        -0.0393
     79 HS1        -0.8452   14.7642   -6.0356 H         1 COA         0.1718
@<TRIPOS>BOND
     1    1    2 ar
     2    1    6 ar
     3    2    3 ar
     4    2   49 1
     5    3    4 ar
     6    4    5 ar
     7    4   10 ar
     8    5    6 ar
     9    5    8 ar
    10    6    7 1
    11    7   50 1
    12    7   51 1
    13    8    9 ar
    14    9   10 ar
    15    9   52 1
    16   10   11 1
    17   11   12 1
    18   11   21 1
    19   11   53 1
    20   12   13 1
    21   12   14 1
    22   12   54 1
    23   14   15 1
    24   14   20 1
    25   14   55 1
    26   15   16 1
    27   16   17 2
    28   16   18 1
    29   16   19 1
    30   20   21 1
    31   20   22 1
    32   20   56 1
    33   22   23 1
    34   22   57 1
    35   22   58 1
    36   23   24 1
    37   24   25 2
    38   24   26 1
    39   24   27 1
    40   27   28 1
    41   28   29 2
    42   28   30 1
    43   28   31 1
    44   31   33 1
    45   32   33 1
    46   32   34 1
    47   32   35 1
    48   32   36 1
    49   33   59 1
    50   33   60 1
    51   34   61 1
    52   34   62 1
    53   34   63 1
    54   35   64 1
    55   35   65 1
    56   35   66 1
    57   36   37 1
    58   36   38 1
    59   36   67 1
    60   37   68 1
    61   38   39 2
    62   38   40 am
    63   40   41 1
    64   40   69 1
    65   41   42 1
    66   41   70 1
    67   41   71 1
    68   42   43 1
    69   42   72 1
    70   42   73 1
    71   43   44 2
    72   43   45 am
    73   45   46 1
    74   45   74 1
    75   46   47 1
    76   46   75 1
    77   46   76 1
    78   47   48 1
    79   47   77 1
    80   47   78 1
    81   48   79 1
@<TRIPOS>SUBSTRUCTURE
     1 COA         1 GROUP 0 A     ****
@<TRIPOS>MOLECULE
[5-(6-aminopurin-9-yl)-2-[[[[3-hydroxy-2,2-dimethyl-4-oxo-4-[[3-oxo-3-(2-sulfanylethylamino)propyl]amino]butoxy]-oxido-phosphoryl]oxy-oxido-phosphoryl]oxymethyl]-4-oxido-tetrahydrofuran-3-yl] phosphate
   79    81     1     0     0
SMALL
USER_CHARGES

@<TRIPOS>ATOM
      1 N1A         6.3197    3.3711    0.1967 N.ar      1 COA        -0.5260
      2 C2A         5.0033    3.3256    0.5141 C.ar      1 COA         0.6629
      3 N3A         4.0730    2.4196    0.1418 N.ar      1 COA        -0.5260
      4 C4A         4.6208    1.4811   -0.6447 C.ar      1 COA         0.5212
      5 C5A         5.9423    1.3962   -1.0530 C.ar      1 COA         0.0088
      6 C6A         6.8050    2.3902   -0.6021 C.ar      1 COA         0.5212
      7 N6A         8.1621    2.3826   -0.9671 N.pl3     1 COA        -0.6025
      8 N7A         6.1335    0.2987   -1.8543 N.2       1 COA        -0.4271
      9 C8A         4.9500   -0.2731   -1.9316 C.ar      1 COA         0.5691
     10 N9A         4.0006    0.4065   -1.2155 N.pl3     1 COA        -0.5033
     11 C1B         2.5376    0.0288   -1.0907 C.3       1 COA         0.2693
     12 C2B         1.9579   -0.2640    0.3131 C.3       1 COA         0.2008
     13 O2B         2.1299   -1.5323    0.6368 O.co2     1 COA        -0.1615
     14 C3B         0.4729    0.0487    0.0699 C.3       1 COA         0.1111
     15 O3B        -0.1943   -0.9780   -0.6709 O.3       1 COA         0.1618
     16 P3B        -1.8364   -1.0586   -0.5907 P.3       1 COA        -1.1921
     17 O7A        -2.1459   -1.2889    0.8856 O.co2     1 COA         0.3195
     18 O8A        -2.1706   -2.2476   -1.4866 O.co2     1 COA         0.3195
     19 O9A        -2.3217    0.2823   -1.1335 O.co2     1 COA         0.3195
     20 C4B         0.5412    1.2713   -0.8394 C.3       1 COA         0.1111
     21 O4B         1.7485    1.1278   -1.6124 O.3       1 COA        -0.1436
     22 C5B         0.6184    2.5901   -0.0816 C.3       1 COA         0.1504
     23 O5B         0.6777    3.6562   -1.0149 O.3       1 COA         0.1618
     24 P1A         0.7670    5.1936   -0.4641 P.3       1 COA        -1.1062
     25 O1A         0.8194    6.1476   -1.6376 O.co2     1 COA         0.3195
     26 O2A         1.8029    5.2507    0.6375 O.co2     1 COA         0.3195
     27 O3A        -0.6886    5.3125    0.2679 O.3       1 COA         0.4672
     28 P2A        -1.1429    6.2040    1.5594 P.3       1 COA        -1.1062
     29 O4A        -2.6377    6.0612    1.7476 O.co2     1 COA         0.3195
     30 O5A        -0.1888    5.9134    2.6974 O.co2     1 COA         0.3195
     31 O6A        -0.8065    7.6957    0.9792 O.3       1 COA         0.1618
     32 CBP        -1.0090    9.5771   -0.5793 C.3       1 COA         0.0000
     33 CCP        -1.4652    8.1470   -0.1994 C.3       1 COA         0.1504
     34 CDP         0.5182    9.5632   -0.8289 C.3       1 COA         0.1179
     35 CEP        -1.6888   10.0085   -1.8940 C.3       1 COA         0.1179
     36 CAP        -1.3149   10.5877    0.5658 C.3       1 COA         0.0611
     37 OAP        -0.6287   10.1955    1.7518 O.3       1 COA        -0.2728
     38 C9P        -0.8916   12.0249    0.2699 C.2       1 COA         0.3561
     39 O9P         0.2422   12.4378    0.5067 O.2       1 COA        -0.2391
     40 N8P        -1.9050   12.7747   -0.3052 N.am      1 COA        -0.1909
     41 C7P        -1.7368   14.1547   -0.6986 C.3       1 COA         0.1160
     42 C6P        -2.1026   15.0674    0.4629 C.3       1 COA         0.0286
     43 C5P        -1.9475   16.5372    0.1157 C.2       1 COA         0.3561
     44 O5P        -1.5666   16.9318   -0.9830 O.2       1 COA        -0.2391
     45 N4P        -2.2853   17.3525    1.1859 N.am      1 COA        -0.1909
     46 C3P        -2.2249   18.7948    1.1250 C.3       1 COA         0.1160
     47 C2P        -3.5279   19.4191    0.6532 C.3       1 COA         0.2607
     48 S1P        -4.9231   19.0144    1.7473 S.3       1 COA        -0.3539
     49 H2A         4.6492    4.1260    1.1552 H         1 COA        -0.1369
     50 H61A        8.7564    3.1335   -0.6708 H         1 COA         0.2048
     51 H62A        8.4991    1.6788   -1.5963 H         1 COA         0.2048
     52 H8A         4.7208   -1.1726   -2.4865 H         1 COA        -0.1292
     53 H1B         2.4085   -0.8200   -1.8256 H         1 COA        -0.0393
     54 H2B         2.3286    0.5212    0.9904 H         1 COA        -0.0393
     55 H3B        -0.0977    0.2245    0.9885 H         1 COA        -0.0393
     56 H4B        -0.2996    1.3083   -1.5416 H         1 COA        -0.0393
     57 H51A        1.5144    2.6204    0.5455 H         1 COA        -0.0393
     58 H52A       -0.2654    2.7227    0.5494 H         1 COA        -0.0393
     59 H121       -1.2324    7.4355   -0.9984 H         1 COA        -0.0393
     60 H122       -2.5440    8.1138   -0.0133 H         1 COA        -0.0393
     61 H131        0.8796   10.5616   -1.1013 H         1 COA        -0.0393
     62 H132        0.7886    8.8842   -1.6454 H         1 COA        -0.0393
     63 H133        1.0681    9.2399    0.0618 H         1 COA        -0.0393
     64 H141       -1.3855   11.0192   -2.1904 H         1 COA        -0.0393
     65 H142       -2.7797   10.0132   -1.7903 H         1 COA        -0.0393
     66 H143       -1.4280    9.3402   -2.7211 H         1 COA        -0.0393
     67 H10        -2.3880   10.5770    0.7950 H         1 COA        -0.0393
     68 HO1         0.3169   10.1957    1.5366 H         1 COA         0.2010
     69 HN8        -2.8042   12.3405   -0.4899 H         1 COA         0.0865
     70 H71        -0.6987   14.3172   -1.0054 H         1 COA        -0.0393
     71 H72        -2.3708   14.3611   -1.5667 H         1 COA        -0.0393
     72 H61        -1.4661   14.8482    1.3291 H         1 COA        -0.0393
     73 H62        -3.1422   14.8920    0.7668 H         1 COA        -0.0393
     74 HN4        -2.5889   16.9159    2.0513 H         1 COA         0.0865
     75 H31        -2.0008   19.1335    2.1399 H         1 COA        -0.0393
     76 H32        -1.3809   19.0638    0.4848 H         1 COA        -0.0393
     77 H21        -3.4413   20.5087    0.5905 H         1 COA        -0.0393
     78 H22        -3.7693   19.0405   -0.3449 H         1 COA        -0.0393
     79 HS1        -4.8438   17.6868    1.5877 H         1 COA         0.1718
@<TRIPOS>BOND
     1    1    2 ar
     2    1    6 ar
     3    2    3 ar
     4    2   49 1
     5    3    4 ar
     6    4    5 ar
     7    4   10 ar
     8    5    6 ar
     9    5    8 ar
    10    6    7 1
    11    7   50 1
    12    7   51 1
    13    8    9 ar
    14    9   10 ar
    15    9   52 1
    16   10   11 1
    17   11   12 1
    18   11   21 1
    19   11   53 1
    20   12   13 1
    21   12   14 1
    22   12   54 1
    23   14   15 1
    24   14   20 1
    25   14   55 1
    26   15   16 1
    27   16   17 2
    28   16   18 1
    29   16   19 1
    30   20   21 1
    31   20   22 1
    32   20   56 1
    33   22   23 1
    34   22   57 1
    35   22   58 1
    36   23   24 1
    37   24   25 2
    38   24   26 1
    39   24   27 1
    40   27   28 1
    41   28   29 2
    42   28   30 1
    43   28   31 1
    44   31   33 1
    45   32   33 1
    46   32   34 1
    47   32   35 1
    48   32   36 1
    49   33   59 1
    50   33   60 1
    51   34   61 1
    52   34   62 1
    53   34   63 1
    54   35   64 1
    55   35   65 1
    56   35   66 1
    57   36   37 1
    58   36   38 1
    59   36   67 1
    60   37   68 1
    61   38   39 2
    62   38   40 am
    63   40   41 1
    64   40   69 1
    65   41   42 1
    66   41   70 1
    67   41   71 1
    68   42   43 1
    69   42   72 1
    70   42   73 1
    71   43   44 2
    72   43   45 am
    73   45   46 1
    74   45   74 1
    75   46   47 1
    76   46   75 1
    77   46   76 1
    78   47   48 1
    79   47   77 1
    80   47   78 1
    81   48   79 1
@<TRIPOS>SUBSTRUCTURE
     1 COA         1 GROUP 0 A     ****
@<TRIPOS>MOLECULE
[5-(6-aminopurin-9-yl)-2-[[[[3-hydroxy-2,2-dimethyl-4-oxo-4-[[3-oxo-3-(2-sulfanylethylamino)propyl]amino]butoxy]-oxido-phosphoryl]oxy-oxido-phosphoryl]oxymethyl]-4-oxido-tetrahydrofuran-3-yl] phosphate
   79    81     1     0     0
SMALL
USER_CHARGES

@<TRIPOS>ATOM
      1 N1A         6.3197    3.3711    0.1967 N.ar      1 COA        -0.5260
      2 C2A         5.0033    3.3256    0.5141 C.ar      1 COA         0.6629
      3 N3A         4.0730    2.4196    0.1418 N.ar      1 COA        -0.5260
      4 C4A         4.6208    1.4811   -0.6447 C.ar      1 COA         0.5212
      5 C5A         5.9423    1.3962   -1.0530 C.ar      1 COA         0.0088
      6 C6A         6.8050    2.3902   -0.6021 C.ar      1 COA         0.5212
      7 N6A         8.1621    2.3826   -0.9671 N.pl3     1 COA        -0.6025
      8 N7A         6.1335    0.2987   -1.8543 N.2       1 COA        -0.4271
      9 C8A         4.9500   -0.2731   -1.9316 C.ar      1 COA         0.5691
     10 N9A         4.0006    0.4065   -1.2155 N.pl3     1 COA        -0.5033
     11 C1B         2.5376    0.0288   -1.0907 C.3       1 COA         0.2693
     12 C2B         1.9579   -0.2640    0.3131 C.3       1 COA         0.2008
     13 O2B         2.1299   -1.5323    0.6368 O.co2     1 COA        -0.1615
     14 C3B         0.4729    0.0487    0.0699 C.3       1 COA         0.1111
     15 O3B        -0.1943   -0.9780   -0.6709 O.3       1 COA         0.1618
     16 P3B        -1.8364   -1.0586   -0.5907 P.3       1 COA        -1.1921
     17 O7A        -2.1459   -1.2889    0.8856 O.co2     1 COA         0.3195
     18 O8A        -2.1706   -2.2476   -1.4866 O.co2     1 COA         0.3195
     19 O9A        -2.3217    0.2823   -1.1335 O.co2     1 COA         0.3195
     20 C4B         0.5412    1.2713   -0.8394 C.3       1 COA         0.1111
     21 O4B         1.7485    1.1278   -1.6124 O.3       1 COA        -0.1436
     22 C5B         0.6184    2.5901   -0.0816 C.3       1 COA         0.1504
     23 O5B         0.6777    3.6562   -1.0149 O.3       1 COA         0.1618
     24 P1A         0.7670    5.1936   -0.4641 P.3       1 COA        -1.1062
     25 O1A         0.8194    6.1476   -1.6376 O.co2     1 COA         0.3195
     26 O2A         1.8029    5.2507    0.6375 O.co2     1 COA         0.3195
     27 O3A        -0.6886    5.3125    0.2679 O.3       1 COA         0.4672
     28 P2A        -1.1429    6.2040    1.5594 P.3       1 COA        -1.1062
     29 O4A        -2.6377    6.0612    1.7476 O.co2     1 COA         0.3195
     30 O5A        -0.1888    5.9134    2.6974 O.co2     1 COA         0.3195
     31 O6A        -0.8065    7.6957    0.9792 O.3       1 COA         0.1618
     32 CBP        -1.0090    9.5771   -0.5793 C.3       1 COA         0.0000
     33 CCP        -1.4652    8.1470   -0.1994 C.3       1 COA         0.1504
     34 CDP         0.5182    9.5632   -0.8289 C.3       1 COA         0.1179
     35 CEP        -1.6888   10.0085   -1.8940 C.3       1 COA         0.1179
     36 CAP        -1.3149   10.5877    0.5658 C.3       1 COA         0.0611
     37 OAP        -2.7163   10.6149    0.8239 O.3       1 COA        -0.2728
     38 C9P        -0.6314   10.2649    1.8928 C.2       1 COA         0.3561
     39 O9P        -1.1331    9.5097    2.7236 O.2       1 COA        -0.2391
     40 N8P         0.5984   10.8887    2.0282 N.am      1 COA        -0.1909
     41 C7P         1.4450   10.7163    3.1861 C.3       1 COA         0.1160
     42 C6P         2.3820    9.5376    2.9657 C.3       1 COA         0.0286
     43 C5P         3.3027    9.3002    4.1492 C.2       1 COA         0.3561
     44 O5P         3.2843    9.9910    5.1643 O.2       1 COA        -0.2391
     45 N4P         4.1483    8.2228    3.9296 N.am      1 COA        -0.1909
     46 C3P         5.1273    7.7820    4.8964 C.3       1 COA         0.1160
     47 C2P         6.4749    8.4630    4.7219 C.3       1 COA         0.2607
     48 S1P         7.6969    7.8989    5.9451 S.3       1 COA        -0.3539
     49 H2A         4.6492    4.1260    1.1552 H         1 COA        -0.1369
     50 H61A        8.7564    3.1335   -0.6708 H         1 COA         0.2048
     51 H62A        8.4991    1.6788   -1.5963 H         1 COA         0.2048
     52 H8A         4.7208   -1.1726   -2.4865 H         1 COA        -0.1292
     53 H1B         2.4085   -0.8200   -1.8256 H         1 COA        -0.0393
     54 H2B         2.3286    0.5212    0.9904 H         1 COA        -0.0393
     55 H3B        -0.0977    0.2245    0.9885 H         1 COA        -0.0393
     56 H4B        -0.2996    1.3083   -1.5416 H         1 COA        -0.0393
     57 H51A        1.5144    2.6204    0.5455 H         1 COA        -0.0393
     58 H52A       -0.2654    2.7227    0.5494 H         1 COA        -0.0393
     59 H121       -1.2324    7.4355   -0.9984 H         1 COA        -0.0393
     60 H122       -2.5440    8.1138   -0.0133 H         1 COA        -0.0393
     61 H131        0.8796   10.5616   -1.1013 H         1 COA        -0.0393
     62 H132        0.7886    8.8842   -1.6454 H         1 COA        -0.0393
     63 H133        1.0681    9.2399    0.0618 H         1 COA        -0.0393
     64 H141       -1.3855   11.0192   -2.1904 H         1 COA        -0.0393
     65 H142       -2.7797   10.0132   -1.7903 H         1 COA        -0.0393
     66 H143       -1.4280    9.3402   -2.7211 H         1 COA        -0.0393
     67 H10        -1.0237   11.5996    0.2569 H         1 COA        -0.0393
     68 HO1        -2.9668    9.7148    1.0837 H         1 COA         0.2010
     69 HN8         0.9463   11.4752    1.2758 H         1 COA         0.0865
     70 H71         2.0143   11.6358    3.3556 H         1 COA        -0.0393
     71 H72         0.8185   10.5520    4.0685 H         1 COA        -0.0393
     72 H61         3.0005    9.7094    2.0760 H         1 COA        -0.0393
     73 H62         1.8018    8.6229    2.7903 H         1 COA        -0.0393
     74 HN4         4.0760    7.7211    3.0493 H         1 COA         0.0865
     75 H31         4.7162    8.0262    5.8794 H         1 COA        -0.0393
     76 H32         5.2002    6.6941    4.8211 H         1 COA        -0.0393
     77 H21         6.8789    8.2836    3.7202 H         1 COA        -0.0393
     78 H22         6.3531    9.5432    4.8496 H         1 COA        -0.0393
     79 HS1         7.0038    8.2885    7.0231 H         1 COA         0.1718
@<TRIPOS>BOND
     1    1    2 ar
     2    1    6 ar
     3    2    3 ar
     4    2   49 1
     5    3    4 ar
     6    4    5 ar
     7    4   10 ar
     8    5    6 ar
     9    5    8 ar
    10    6    7 1
    11    7   50 1
    12    7   51 1
    13    8    9 ar
    14    9   10 ar
    15    9   52 1
    16   10   11 1
    17   11   12 1
    18   11   21 1
    19   11   53 1
    20   12   13 1
    21   12   14 1
    22   12   54 1
    23   14   15 1
    24   14   20 1
    25   14   55 1
    26   15   16 1
    27   16   17 2
    28   16   18 1
    29   16   19 1
    30   20   21 1
    31   20   22 1
    32   20   56 1
    33   22   23 1
    34   22   57 1
    35   22   58 1
    36   23   24 1
    37   24   25 2
    38   24   26 1
    39   24   27 1
    40   27   28 1
    41   28   29 2
    42   28   30 1
    43   28   31 1
    44   31   33 1
    45   32   33 1
    46   32   34 1
    47   32   35 1
    48   32   36 1
    49   33   59 1
    50   33   60 1
    51   34   61 1
    52   34   62 1
    53   34   63 1
    54   35   64 1
    55   35   65 1
    56   35   66 1
    57   36   37 1
    58   36   38 1
    59   36   67 1
    60   37   68 1
    61   38   39 2
    62   38   40 am
    63   40   41 1
    64   40   69 1
    65   41   42 1
    66   41   70 1
    67   41   71 1
    68   42   43 1
    69   42   72 1
    70   42   73 1
    71   43   44 2
    72   43   45 am
    73   45   46 1
    74   45   74 1
    75   46   47 1
    76   46   75 1
    77   46   76 1
    78   47   48 1
    79   47   77 1
    80   47   78 1
    81   48   79 1
@<TRIPOS>SUBSTRUCTURE
     1 COA         1 GROUP 0 A     ****
@<TRIPOS>MOLECULE
[5-(6-aminopurin-9-yl)-2-[[[[3-hydroxy-2,2-dimethyl-4-oxo-4-[[3-oxo-3-(2-sulfanylethylamino)propyl]amino]butoxy]-oxido-phosphoryl]oxy-oxido-phosphoryl]oxymethyl]-4-oxido-tetrahydrofuran-3-yl] phosphate
   79    81     1     0     0
SMALL
USER_CHARGES

@<TRIPOS>ATOM
      1 N1A         5.7146    2.0302   -0.7890 N.ar      1 COA        -0.5260
      2 C2A         4.3962    2.1571   -0.5034 C.ar      1 COA         0.6629
      3 N3A         3.3299    1.7526   -1.2276 N.ar      1 COA        -0.5260
      4 C4A         3.7311    1.1587   -2.3614 C.ar      1 COA         0.5212
      5 C5A         5.0346    0.9576   -2.7868 C.ar      1 COA         0.0088
      6 C6A         6.0470    1.4195   -1.9517 C.ar      1 COA         0.5212
      7 N6A         7.3978    1.2581   -2.3043 N.pl3     1 COA        -0.6025
      8 N7A         5.0562    0.3154   -3.9993 N.2       1 COA        -0.4271
      9 C8A         3.7892    0.1293   -4.3054 C.ar      1 COA         0.5691
     10 N9A         2.9479    0.6234   -3.3440 N.pl3     1 COA        -0.5033
     11 C1B         1.4328    0.5815   -3.3775 C.3       1 COA         0.2693
     12 C2B         0.6799   -0.1567   -2.2458 C.3       1 COA         0.2008
     13 O2B         0.5449   -1.4388   -2.5302 O.co2     1 COA        -0.1615
     14 C3B        -0.6749    0.5672   -2.2968 C.3       1 COA         0.1111
     15 O3B        -1.4782    0.1594   -3.4088 O.3       1 COA         0.1618
     16 P3B        -3.0996    0.4363   -3.3454 P.3       1 COA        -1.1921
     17 O7A        -3.5828   -0.3425   -2.1254 O.co2     1 COA         0.3195
     18 O8A        -3.6001   -0.1211   -4.6746 O.co2     1 COA         0.3195
     19 O9A        -3.2339    1.9510   -3.2185 O.co2     1 COA         0.3195
     20 C4B        -0.2635    2.0121   -2.5599 C.3       1 COA         0.1111
     21 O4B         0.9490    1.9478   -3.3354 O.3       1 COA        -0.1436
     22 C5B         0.0275    2.8029   -1.2913 C.3       1 COA         0.1504
     23 O5B         0.3986    4.1249   -1.6460 O.3       1 COA         0.1618
     24 P1A         0.7670    5.1936   -0.4641 P.3       1 COA        -1.1062
     25 O1A         1.1289    6.5260   -1.0837 O.co2     1 COA         0.3195
     26 O2A         1.6876    4.5161    0.5275 O.co2     1 COA         0.3195
     27 O3A        -0.6886    5.3125    0.2679 O.3       1 COA         0.4672
     28 P2A        -1.1429    6.2040    1.5594 P.3       1 COA        -1.1062
     29 O4A        -2.6377    6.0612    1.7476 O.co2     1 COA         0.3195
     30 O5A        -0.1888    5.9134    2.6974 O.co2     1 COA         0.3195
     31 O6A        -0.8065    7.6957    0.9792 O.3       1 COA         0.1618
     32 CBP        -1.0090    9.5771   -0.5793 C.3       1 COA         0.0000
     33 CCP        -1.4652    8.1470   -0.1994 C.3       1 COA         0.1504
     34 CDP         0.5182    9.5632   -0.8289 C.3       1 COA         0.1179
     35 CEP        -1.6888   10.0085   -1.8940 C.3       1 COA         0.1179
     36 CAP        -1.3149   10.5877    0.5658 C.3       1 COA         0.0611
     37 OAP        -2.7163   10.6149    0.8239 O.3       1 COA        -0.2728
     38 C9P        -0.6314   10.2649    1.8928 C.2       1 COA         0.3561
     39 O9P        -1.1331    9.5097    2.7236 O.2       1 COA        -0.2391
     40 N8P         0.5984   10.8887    2.0282 N.am      1 COA        -0.1909
     41 C7P         1.4450   10.7163    3.1861 C.3       1 COA         0.1160
     42 C6P         2.3820    9.5376    2.9657 C.3       1 COA         0.0286
     43 C5P         3.3027    9.3002    4.1492 C.2       1 COA         0.3561
     44 O5P         3.2843    9.9910    5.1643 O.2       1 COA        -0.2391
     45 N4P         4.1483    8.2228    3.9296 N.am      1 COA        -0.1909
     46 C3P         5.1273    7.7820    4.8964 C.3       1 COA         0.1160
     47 C2P         4.9057    6.3472    5.3463 C.3       1 COA         0.2607
     48 S1P         3.2794    6.1117    6.1258 S.3       1 COA        -0.3539
     49 H2A         4.1666    2.6505    0.4351 H         1 COA        -0.1369
     50 H61A        8.1108    1.6399   -1.7121 H         1 COA         0.2048
     51 H62A        7.6305    0.8472   -3.1886 H         1 COA         0.2048
     52 H8A         3.4224   -0.3522   -5.2016 H         1 COA        -0.1292
     53 H1B         1.1905    0.2000   -4.4133 H         1 COA        -0.0393
     54 H2B         1.1486    0.1388   -1.2941 H         1 COA        -0.0393
     55 H3B        -1.2745    0.4471   -1.3878 H         1 COA        -0.0393
     56 H4B        -1.0100    2.5497   -3.1559 H         1 COA        -0.0393
     57 H51A        0.8489    2.3441   -0.7330 H         1 COA        -0.0393
     58 H52A       -0.8601    2.8452   -0.6531 H         1 COA        -0.0393
     59 H121       -1.2324    7.4355   -0.9984 H         1 COA        -0.0393
     60 H122       -2.5440    8.1138   -0.0133 H         1 COA        -0.0393
     61 H131        0.8796   10.5616   -1.1013 H         1 COA        -0.0393
     62 H132        0.7886    8.8842   -1.6454 H         1 COA        -0.0393
     63 H133        1.0681    9.2399    0.0618 H         1 COA        -0.0393
     64 H141       -1.3855   11.0192   -2.1904 H         1 COA        -0.0393
     65 H142       -2.7797   10.0132   -1.7903 H         1 COA        -0.0393
     66 H143       -1.4280    9.3402   -2.7211 H         1 COA        -0.0393
     67 H10        -1.0237   11.5996    0.2569 H         1 COA        -0.0393
     68 HO1        -2.9668    9.7148    1.0837 H         1 COA         0.2010
     69 HN8         0.9463   11.4752    1.2758 H         1 COA         0.0865
     70 H71         2.0143   11.6358    3.3556 H         1 COA        -0.0393
     71 H72         0.8185   10.5520    4.0685 H         1 COA        -0.0393
     72 H61         3.0005    9.7094    2.0760 H         1 COA        -0.0393
     73 H62         1.8018    8.6229    2.7903 H         1 COA        -0.0393
     74 HN4         4.0760    7.7211    3.0493 H         1 COA         0.0865
     75 H31         6.1003    7.8677    4.4057 H         1 COA        -0.0393
     76 H32         5.1070    8.4860    5.7322 H         1 COA        -0.0393
     77 H21         4.9896    5.6538    4.5032 H         1 COA        -0.0393
     78 H22         5.6683    6.0779    6.0837 H         1 COA        -0.0393
     79 HS1         3.4730    6.9902    7.1183 H         1 COA         0.1718
@<TRIPOS>BOND
     1    1    2 ar
     2    1    6 ar
     3    2    3 ar
     4    2   49 1
     5    3    4 ar
     6    4    5 ar
     7    4   10 ar
     8    5    6 ar
     9    5    8 ar
    10    6    7 1
    11    7   50 1
    12    7   51 1
    13    8    9 ar
    14    9   10 ar
    15    9   52 1
    16   10   11 1
    17   11   12 1
    18   11   21 1
    19   11   53 1
    20   12   13 1
    21   12   14 1
    22   12   54 1
    23   14   15 1
    24   14   20 1
    25   14   55 1
    26   15   16 1
    27   16   17 2
    28   16   18 1
    29   16   19 1
    30   20   21 1
    31   20   22 1
    32   20   56 1
    33   22   23 1
    34   22   57 1
    35   22   58 1
    36   23   24 1
    37   24   25 2
    38   24   26 1
    39   24   27 1
    40   27   28 1
    41   28   29 2
    42   28   30 1
    43   28   31 1
    44   31   33 1
    45   32   33 1
    46   32   34 1
    47   32   35 1
    48   32   36 1
    49   33   59 1
    50   33   60 1
    51   34   61 1
    52   34   62 1
    53   34   63 1
    54   35   64 1
    55   35   65 1
    56   35   66 1
    57   36   37 1
    58   36   38 1
    59   36   67 1
    60   37   68 1
    61   38   39 2
    62   38   40 am
    63   40   41 1
    64   40   69 1
    65   41   42 1
    66   41   70 1
    67   41   71 1
    68   42   43 1
    69   42   72 1
    70   42   73 1
    71   43   44 2
    72   43   45 am
    73   45   46 1
    74   45   74 1
    75   46   47 1
    76   46   75 1
    77   46   76 1
    78   47   48 1
    79   47   77 1
    80   47   78 1
    81   48   79 1
@<TRIPOS>SUBSTRUCTURE
     1 COA         1 GROUP 0 A     ****
@<TRIPOS>MOLECULE
[5-(6-aminopurin-9-yl)-2-[[[[3-hydroxy-2,2-dimethyl-4-oxo-4-[[3-oxo-3-(2-sulfanylethylamino)propyl]amino]butoxy]-oxido-phosphoryl]oxy-oxido-phosphoryl]oxymethyl]-4-oxido-tetrahydrofuran-3-yl] phosphate
   79    81     1     0     0
SMALL
USER_CHARGES

@<TRIPOS>ATOM
      1 N1A         5.7146    2.0302   -0.7890 N.ar      1 COA        -0.5260
      2 C2A         4.3962    2.1571   -0.5034 C.ar      1 COA         0.6629
      3 N3A         3.3299    1.7526   -1.2276 N.ar      1 COA        -0.5260
      4 C4A         3.7311    1.1587   -2.3614 C.ar      1 COA         0.5212
      5 C5A         5.0346    0.9576   -2.7868 C.ar      1 COA         0.0088
      6 C6A         6.0470    1.4195   -1.9517 C.ar      1 COA         0.5212
      7 N6A         7.3978    1.2581   -2.3043 N.pl3     1 COA        -0.6025
      8 N7A         5.0562    0.3154   -3.9993 N.2       1 COA        -0.4271
      9 C8A         3.7892    0.1293   -4.3054 C.ar      1 COA         0.5691
     10 N9A         2.9479    0.6234   -3.3440 N.pl3     1 COA        -0.5033
     11 C1B         1.4328    0.5815   -3.3775 C.3       1 COA         0.2693
     12 C2B         0.6799   -0.1567   -2.2458 C.3       1 COA         0.2008
     13 O2B         0.5449   -1.4388   -2.5302 O.co2     1 COA        -0.1615
     14 C3B        -0.6749    0.5672   -2.2968 C.3       1 COA         0.1111
     15 O3B        -1.4782    0.1594   -3.4088 O.3       1 COA         0.1618
     16 P3B        -3.0996    0.4363   -3.3454 P.3       1 COA        -1.1921
     17 O7A        -3.5828   -0.3425   -2.1254 O.co2     1 COA         0.3195
     18 O8A        -3.6001   -0.1211   -4.6746 O.co2     1 COA         0.3195
     19 O9A        -3.2339    1.9510   -3.2185 O.co2     1 COA         0.3195
     20 C4B        -0.2635    2.0121   -2.5599 C.3       1 COA         0.1111
     21 O4B         0.9490    1.9478   -3.3354 O.3       1 COA        -0.1436
     22 C5B         0.0275    2.8029   -1.2913 C.3       1 COA         0.1504
     23 O5B         0.3986    4.1249   -1.6460 O.3       1 COA         0.1618
     24 P1A         0.7670    5.1936   -0.4641 P.3       1 COA        -1.1062
     25 O1A         1.1289    6.5260   -1.0837 O.co2     1 COA         0.3195
     26 O2A         1.6876    4.5161    0.5275 O.co2     1 COA         0.3195
     27 O3A        -0.6886    5.3125    0.2679 O.3       1 COA         0.4672
     28 P2A        -1.1429    6.2040    1.5594 P.3       1 COA        -1.1062
     29 O4A        -2.6377    6.0612    1.7476 O.co2     1 COA         0.3195
     30 O5A        -0.1888    5.9134    2.6974 O.co2     1 COA         0.3195
     31 O6A        -0.8065    7.6957    0.9792 O.3       1 COA         0.1618
     32 CBP        -1.0090    9.5771   -0.5793 C.3       1 COA         0.0000
     33 CCP        -1.4652    8.1470   -0.1994 C.3       1 COA         0.1504
     34 CDP         0.5182    9.5632   -0.8289 C.3       1 COA         0.1179
     35 CEP        -1.6888   10.0085   -1.8940 C.3       1 COA         0.1179
     36 CAP        -1.3149   10.5877    0.5658 C.3       1 COA         0.0611
     37 OAP        -0.6287   10.1955    1.7518 O.3       1 COA        -0.2728
     38 C9P        -0.8916   12.0249    0.2699 C.2       1 COA         0.3561
     39 O9P         0.2422   12.4378    0.5067 O.2       1 COA        -0.2391
     40 N8P        -1.9050   12.7747   -0.3052 N.am      1 COA        -0.1909
     41 C7P        -1.7368   14.1547   -0.6986 C.3       1 COA         0.1160
     42 C6P        -2.1026   15.0674    0.4629 C.3       1 COA         0.0286
     43 C5P        -3.5409   14.8840    0.9130 C.2       1 COA         0.3561
     44 O5P        -4.4447   14.5448    0.1541 O.2       1 COA        -0.2391
     45 N4P        -3.6893   15.1482    2.2667 N.am      1 COA        -0.1909
     46 C3P        -4.9575   15.0511    2.9521 C.3       1 COA         0.1160
     47 C2P        -5.2136   13.6657    3.5225 C.3       1 COA         0.2607
     48 S1P        -3.9450   13.1703    4.7278 S.3       1 COA        -0.3539
     49 H2A         4.1666    2.6505    0.4351 H         1 COA        -0.1369
     50 H61A        8.1108    1.6399   -1.7121 H         1 COA         0.2048
     51 H62A        7.6305    0.8472   -3.1886 H         1 COA         0.2048
     52 H8A         3.4224   -0.3522   -5.2016 H         1 COA        -0.1292
     53 H1B         1.1905    0.2000   -4.4133 H         1 COA        -0.0393
     54 H2B         1.1486    0.1388   -1.2941 H         1 COA        -0.0393
     55 H3B        -1.2745    0.4471   -1.3878 H         1 COA        -0.0393
     56 H4B        -1.0100    2.5497   -3.1559 H         1 COA        -0.0393
     57 H51A        0.8489    2.3441   -0.7330 H         1 COA        -0.0393
     58 H52A       -0.8601    2.8452   -0.6531 H         1 COA        -0.0393
     59 H121       -1.2324    7.4355   -0.9984 H         1 COA        -0.0393
     60 H122       -2.5440    8.1138   -0.0133 H         1 COA        -0.0393
     61 H131        0.8796   10.5616   -1.1013 H         1 COA        -0.0393
     62 H132        0.7886    8.8842   -1.6454 H         1 COA        -0.0393
     63 H133        1.0681    9.2399    0.0618 H         1 COA        -0.0393
     64 H141       -1.3855   11.0192   -2.1904 H         1 COA        -0.0393
     65 H142       -2.7797   10.0132   -1.7903 H         1 COA        -0.0393
     66 H143       -1.4280    9.3402   -2.7211 H         1 COA        -0.0393
     67 H10        -2.3880   10.5770    0.7950 H         1 COA        -0.0393
     68 HO1         0.3169   10.1957    1.5366 H         1 COA         0.2010
     69 HN8        -2.8042   12.3405   -0.4899 H         1 COA         0.0865
     70 H71        -0.6987   14.3172   -1.0054 H         1 COA        -0.0393
     71 H72        -2.3708   14.3611   -1.5667 H         1 COA        -0.0393
     72 H61        -1.9618   16.1170    0.1758 H         1 COA        -0.0393
     73 H62        -1.4448   14.8702    1.3186 H         1 COA        -0.0393
     74 HN4        -2.8695   15.4223    2.8001 H         1 COA         0.0865
     75 H31        -4.9221   15.7825    3.7637 H         1 COA        -0.0393
     76 H32        -5.7369   15.3610    2.2513 H         1 COA        -0.0393
     77 H21        -6.1928   13.6165    4.0099 H         1 COA        -0.0393
     78 H22        -5.2024   12.9326    2.7100 H         1 COA        -0.0393
     79 HS1        -2.9106   13.2486    3.8804 H         1 COA         0.1718
@<TRIPOS>BOND
     1    1    2 ar
     2    1    6 ar
     3    2    3 ar
     4    2   49 1
     5    3    4 ar
     6    4    5 ar
     7    4   10 ar
     8    5    6 ar
     9    5    8 ar
    10    6    7 1
    11    7   50 1
    12    7   51 1
    13    8    9 ar
    14    9   10 ar
    15    9   52 1
    16   10   11 1
    17   11   12 1
    18   11   21 1
    19   11   53 1
    20   12   13 1
    21   12   14 1
    22   12   54 1
    23   14   15 1
    24   14   20 1
    25   14   55 1
    26   15   16 1
    27   16   17 2
    28   16   18 1
    29   16   19 1
    30   20   21 1
    31   20   22 1
    32   20   56 1
    33   22   23 1
    34   22   57 1
    35   22   58 1
    36   23   24 1
    37   24   25 2
    38   24   26 1
    39   24   27 1
    40   27   28 1
    41   28   29 2
    42   28   30 1
    43   28   31 1
    44   31   33 1
    45   32   33 1
    46   32   34 1
    47   32   35 1
    48   32   36 1
    49   33   59 1
    50   33   60 1
    51   34   61 1
    52   34   62 1
    53   34   63 1
    54   35   64 1
    55   35   65 1
    56   35   66 1
    57   36   37 1
    58   36   38 1
    59   36   67 1
    60   37   68 1
    61   38   39 2
    62   38   40 am
    63   40   41 1
    64   40   69 1
    65   41   42 1
    66   41   70 1
    67   41   71 1
    68   42   43 1
    69   42   72 1
    70   42   73 1
    71   43   44 2
    72   43   45 am
    73   45   46 1
    74   45   74 1
    75   46   47 1
    76   46   75 1
    77   46   76 1
    78   47   48 1
    79   47   77 1
    80   47   78 1
    81   48   79 1
@<TRIPOS>SUBSTRUCTURE
     1 COA         1 GROUP 0 A     ****
@<TRIPOS>MOLECULE
[5-(6-aminopurin-9-yl)-2-[[[[3-hydroxy-2,2-dimethyl-4-oxo-4-[[3-oxo-3-(2-sulfanylethylamino)propyl]amino]butoxy]-oxido-phosphoryl]oxy-oxido-phosphoryl]oxymethyl]-4-oxido-tetrahydrofuran-3-yl] phosphate
   79    81     1     0     0
SMALL
USER_CHARGES

@<TRIPOS>ATOM
      1 N1A         5.7146    2.0302   -0.7890 N.ar      1 COA        -0.5260
      2 C2A         4.3962    2.1571   -0.5034 C.ar      1 COA         0.6629
      3 N3A         3.3299    1.7526   -1.2276 N.ar      1 COA        -0.5260
      4 C4A         3.7311    1.1587   -2.3614 C.ar      1 COA         0.5212
      5 C5A         5.0346    0.9576   -2.7868 C.ar      1 COA         0.0088
      6 C6A         6.0470    1.4195   -1.9517 C.ar      1 COA         0.5212
      7 N6A         7.3978    1.2581   -2.3043 N.pl3     1 COA        -0.6025
      8 N7A         5.0562    0.3154   -3.9993 N.2       1 COA        -0.4271
      9 C8A         3.7892    0.1293   -4.3054 C.ar      1 COA         0.5691
     10 N9A         2.9479    0.6234   -3.3440 N.pl3     1 COA        -0.5033
     11 C1B         1.4328    0.5815   -3.3775 C.3       1 COA         0.2693
     12 C2B         0.6799   -0.1567   -2.2458 C.3       1 COA         0.2008
     13 O2B         0.5449   -1.4388   -2.5302 O.co2     1 COA        -0.1615
     14 C3B        -0.6749    0.5672   -2.2968 C.3       1 COA         0.1111
     15 O3B        -1.4782    0.1594   -3.4088 O.3       1 COA         0.1618
     16 P3B        -3.0996    0.4363   -3.3454 P.3       1 COA        -1.1921
     17 O7A        -3.5828   -0.3425   -2.1254 O.co2     1 COA         0.3195
     18 O8A        -3.6001   -0.1211   -4.6746 O.co2     1 COA         0.3195
     19 O9A        -3.2339    1.9510   -3.2185 O.co2     1 COA         0.3195
     20 C4B        -0.2635    2.0121   -2.5599 C.3       1 COA         0.1111
     21 O4B         0.9490    1.9478   -3.3354 O.3       1 COA        -0.1436
     22 C5B         0.0275    2.8029   -1.2913 C.3       1 COA         0.1504
     23 O5B         0.3986    4.1249   -1.6460 O.3       1 COA         0.1618
     24 P1A         0.7670    5.1936   -0.4641 P.3       1 COA        -1.1062
     25 O1A         1.1289    6.5260   -1.0837 O.co2     1 COA         0.3195
     26 O2A         1.6876    4.5161    0.5275 O.co2     1 COA         0.3195
     27 O3A        -0.6886    5.3125    0.2679 O.3       1 COA         0.4672
     28 P2A        -1.1429    6.2040    1.5594 P.3       1 COA        -1.1062
     29 O4A        -2.6377    6.0612    1.7476 O.co2     1 COA         0.3195
     30 O5A        -0.1888    5.9134    2.6974 O.co2     1 COA         0.3195
     31 O6A        -0.8065    7.6957    0.9792 O.3       1 COA         0.1618
     32 CBP        -1.0090    9.5771   -0.5793 C.3       1 COA         0.0000
     33 CCP        -1.4652    8.1470   -0.1994 C.3       1 COA         0.1504
     34 CDP         0.5182    9.5632   -0.8289 C.3       1 COA         0.1179
     35 CEP        -1.6888   10.0085   -1.8940 C.3       1 COA         0.1179
     36 CAP        -1.3149   10.5877    0.5658 C.3       1 COA         0.0611
     37 OAP        -0.8841   11.8921    0.1862 O.3       1 COA        -0.2728
     38 C9P        -2.7940   10.7032    0.9282 C.2       1 COA         0.3561
     39 O9P        -3.6519   11.0028    0.0998 O.2       1 COA        -0.2391
     40 N8P        -3.0442   10.4114    2.2595 N.am      1 COA        -0.1909
     41 C7P        -4.3702   10.4275    2.8329 C.3       1 COA         0.1160
     42 C6P        -4.6799   11.8172    3.3701 C.3       1 COA         0.0286
     43 C5P        -3.7021   12.2534    4.4465 C.2       1 COA         0.3561
     44 O5P        -3.1415   11.4663    5.2042 O.2       1 COA        -0.2391
     45 N4P        -3.5356   13.6305    4.4567 N.am      1 COA        -0.1909
     46 C3P        -2.6608   14.3096    5.3846 C.3       1 COA         0.1160
     47 C2P        -3.3634   14.7076    6.6722 C.3       1 COA         0.2607
     48 S1P        -4.7620   15.8319    6.3762 S.3       1 COA        -0.3539
     49 H2A         4.1666    2.6505    0.4351 H         1 COA        -0.1369
     50 H61A        8.1108    1.6399   -1.7121 H         1 COA         0.2048
     51 H62A        7.6305    0.8472   -3.1886 H         1 COA         0.2048
     52 H8A         3.4224   -0.3522   -5.2016 H         1 COA        -0.1292
     53 H1B         1.1905    0.2000   -4.4133 H         1 COA        -0.0393
     54 H2B         1.1486    0.1388   -1.2941 H         1 COA        -0.0393
     55 H3B        -1.2745    0.4471   -1.3878 H         1 COA        -0.0393
     56 H4B        -1.0100    2.5497   -3.1559 H         1 COA        -0.0393
     57 H51A        0.8489    2.3441   -0.7330 H         1 COA        -0.0393
     58 H52A       -0.8601    2.8452   -0.6531 H         1 COA        -0.0393
     59 H121       -1.2324    7.4355   -0.9984 H         1 COA        -0.0393
     60 H122       -2.5440    8.1138   -0.0133 H         1 COA        -0.0393
     61 H131        0.8796   10.5616   -1.1013 H         1 COA        -0.0393
     62 H132        0.7886    8.8842   -1.6454 H         1 COA        -0.0393
     63 H133        1.0681    9.2399    0.0618 H         1 COA        -0.0393
     64 H141       -1.3855   11.0192   -2.1904 H         1 COA        -0.0393
     65 H142       -2.7797   10.0132   -1.7903 H         1 COA        -0.0393
     66 H143       -1.4280    9.3402   -2.7211 H         1 COA        -0.0393
     67 H10        -0.7524   10.3112    1.4665 H         1 COA        -0.0393
     68 HO1        -1.3767   12.1229   -0.6167 H         1 COA         0.2010
     69 HN8        -2.2741   10.1459    2.8657 H         1 COA         0.0865
     70 H71        -5.0969   10.1388    2.0669 H         1 COA        -0.0393
     71 H72        -4.4250    9.6829    3.6333 H         1 COA        -0.0393
     72 H61        -5.6920   11.8406    3.7930 H         1 COA        -0.0393
     73 H62        -4.6475   12.5518    2.5557 H         1 COA        -0.0393
     74 HN4        -4.0520   14.1864    3.7814 H         1 COA         0.0865
     75 H31        -1.8513   13.6098    5.6082 H         1 COA        -0.0393
     76 H32        -2.2304   15.1693    4.8648 H         1 COA        -0.0393
     77 H21        -3.7340   13.8265    7.2060 H         1 COA        -0.0393
     78 H22        -2.6545   15.2260    7.3253 H         1 COA        -0.0393
     79 HS1        -5.4521   14.9916    5.5938 H         1 COA         0.1718
@<TRIPOS>BOND
     1    1    2 ar
     2    1    6 ar
     3    2    3 ar
     4    2   49 1
     5    3    4 ar
     6    4    5 ar
     7    4   10 ar
     8    5    6 ar
     9    5    8 ar
    10    6    7 1
    11    7   50 1
    12    7   51 1
    13    8    9 ar
    14    9   10 ar
    15    9   52 1
    16   10   11 1
    17   11   12 1
    18   11   21 1
    19   11   53 1
    20   12   13 1
    21   12   14 1
    22   12   54 1
    23   14   15 1
    24   14   20 1
    25   14   55 1
    26   15   16 1
    27   16   17 2
    28   16   18 1
    29   16   19 1
    30   20   21 1
    31   20   22 1
    32   20   56 1
    33   22   23 1
    34   22   57 1
    35   22   58 1
    36   23   24 1
    37   24   25 2
    38   24   26 1
    39   24   27 1
    40   27   28 1
    41   28   29 2
    42   28   30 1
    43   28   31 1
    44   31   33 1
    45   32   33 1
    46   32   34 1
    47   32   35 1
    48   32   36 1
    49   33   59 1
    50   33   60 1
    51   34   61 1
    52   34   62 1
    53   34   63 1
    54   35   64 1
    55   35   65 1
    56   35   66 1
    57   36   37 1
    58   36   38 1
    59   36   67 1
    60   37   68 1
    61   38   39 2
    62   38   40 am
    63   40   41 1
    64   40   69 1
    65   41   42 1
    66   41   70 1
    67   41   71 1
    68   42   43 1
    69   42   72 1
    70   42   73 1
    71   43   44 2
    72   43   45 am
    73   45   46 1
    74   45   74 1
    75   46   47 1
    76   46   75 1
    77   46   76 1
    78   47   48 1
    79   47   77 1
    80   47   78 1
    81   48   79 1
@<TRIPOS>SUBSTRUCTURE
     1 COA         1 GROUP 0 A     ****
@<TRIPOS>MOLECULE
[5-(6-aminopurin-9-yl)-2-[[[[3-hydroxy-2,2-dimethyl-4-oxo-4-[[3-oxo-3-(2-sulfanylethylamino)propyl]amino]butoxy]-oxido-phosphoryl]oxy-oxido-phosphoryl]oxymethyl]-4-oxido-tetrahydrofuran-3-yl] phosphate
   79    81     1     0     0
SMALL
USER_CHARGES

@<TRIPOS>ATOM
      1 N1A         6.3197    3.3711    0.1967 N.ar      1 COA        -0.5260
      2 C2A         5.0033    3.3256    0.5141 C.ar      1 COA         0.6629
      3 N3A         4.0730    2.4196    0.1418 N.ar      1 COA        -0.5260
      4 C4A         4.6208    1.4811   -0.6447 C.ar      1 COA         0.5212
      5 C5A         5.9423    1.3962   -1.0530 C.ar      1 COA         0.0088
      6 C6A         6.8050    2.3902   -0.6021 C.ar      1 COA         0.5212
      7 N6A         8.1621    2.3826   -0.9671 N.pl3     1 COA        -0.6025
      8 N7A         6.1335    0.2987   -1.8543 N.2       1 COA        -0.4271
      9 C8A         4.9500   -0.2731   -1.9316 C.ar      1 COA         0.5691
     10 N9A         4.0006    0.4065   -1.2155 N.pl3     1 COA        -0.5033
     11 C1B         2.5376    0.0288   -1.0907 C.3       1 COA         0.2693
     12 C2B         1.9579   -0.2640    0.3131 C.3       1 COA         0.2008
     13 O2B         2.1299   -1.5323    0.6368 O.co2     1 COA        -0.1615
     14 C3B         0.4729    0.0487    0.0699 C.3       1 COA         0.1111
     15 O3B        -0.1943   -0.9780   -0.6709 O.3       1 COA         0.1618
     16 P3B        -1.8364   -1.0586   -0.5907 P.3       1 COA        -1.1921
     17 O7A        -2.1459   -1.2889    0.8856 O.co2     1 COA         0.3195
     18 O8A        -2.1706   -2.2476   -1.4866 O.co2     1 COA         0.3195
     19 O9A        -2.3217    0.2823   -1.1335 O.co2     1 COA         0.3195
     20 C4B         0.5412    1.2713   -0.8394 C.3       1 COA         0.1111
     21 O4B         1.7485    1.1278   -1.6124 O.3       1 COA        -0.1436
     22 C5B         0.6184    2.5901   -0.0816 C.3       1 COA         0.1504
     23 O5B         0.6777    3.6562   -1.0149 O.3       1 COA         0.1618
     24 P1A         0.7670    5.1936   -0.4641 P.3       1 COA        -1.1062
     25 O1A         0.8194    6.1476   -1.6376 O.co2     1 COA         0.3195
     26 O2A         1.8029    5.2507    0.6375 O.co2     1 COA         0.3195
     27 O3A        -0.6886    5.3125    0.2679 O.3       1 COA         0.4672
     28 P2A        -1.1429    6.2040    1.5594 P.3       1 COA        -1.1062
     29 O4A        -2.6377    6.0612    1.7476 O.co2     1 COA         0.3195
     30 O5A        -0.1888    5.9134    2.6974 O.co2     1 COA         0.3195
     31 O6A        -0.8065    7.6957    0.9792 O.3       1 COA         0.1618
     32 CBP        -1.0090    9.5771   -0.5793 C.3       1 COA         0.0000
     33 CCP        -1.4652    8.1470   -0.1994 C.3       1 COA         0.1504
     34 CDP         0.5182    9.5632   -0.8289 C.3       1 COA         0.1179
     35 CEP        -1.6888   10.0085   -1.8940 C.3       1 COA         0.1179
     36 CAP        -1.3149   10.5877    0.5658 C.3       1 COA         0.0611
     37 OAP        -0.8841   11.8921    0.1862 O.3       1 COA        -0.2728
     38 C9P        -2.7940   10.7032    0.9282 C.2       1 COA         0.3561
     39 O9P        -3.6891   10.4664    0.1190 O.2       1 COA        -0.2391
     40 N8P        -2.9952   11.0709    2.2489 N.am      1 COA        -0.1909
     41 C7P        -4.3082   11.2196    2.8331 C.3       1 COA         0.1160
     42 C6P        -4.7588    9.8929    3.4269 C.3       1 COA         0.0286
     43 C5P        -3.8205    9.3954    4.5118 C.2       1 COA         0.3561
     44 O5P        -3.1669   10.1458    5.2312 O.2       1 COA        -0.2391
     45 N4P        -3.8026    8.0098    4.5747 N.am      1 COA        -0.1909
     46 C3P        -2.9915    7.2762    5.5188 C.3       1 COA         0.1160
     47 C2P        -3.7127    7.0058    6.8291 C.3       1 COA         0.2607
     48 S1P        -5.2283    6.0284    6.5938 S.3       1 COA        -0.3539
     49 H2A         4.6492    4.1260    1.1552 H         1 COA        -0.1369
     50 H61A        8.7564    3.1335   -0.6708 H         1 COA         0.2048
     51 H62A        8.4991    1.6788   -1.5963 H         1 COA         0.2048
     52 H8A         4.7208   -1.1726   -2.4865 H         1 COA        -0.1292
     53 H1B         2.4085   -0.8200   -1.8256 H         1 COA        -0.0393
     54 H2B         2.3286    0.5212    0.9904 H         1 COA        -0.0393
     55 H3B        -0.0977    0.2245    0.9885 H         1 COA        -0.0393
     56 H4B        -0.2996    1.3083   -1.5416 H         1 COA        -0.0393
     57 H51A        1.5144    2.6204    0.5455 H         1 COA        -0.0393
     58 H52A       -0.2654    2.7227    0.5494 H         1 COA        -0.0393
     59 H121       -1.2324    7.4355   -0.9984 H         1 COA        -0.0393
     60 H122       -2.5440    8.1138   -0.0133 H         1 COA        -0.0393
     61 H131        0.8796   10.5616   -1.1013 H         1 COA        -0.0393
     62 H132        0.7886    8.8842   -1.6454 H         1 COA        -0.0393
     63 H133        1.0681    9.2399    0.0618 H         1 COA        -0.0393
     64 H141       -1.3855   11.0192   -2.1904 H         1 COA        -0.0393
     65 H142       -2.7797   10.0132   -1.7903 H         1 COA        -0.0393
     66 H143       -1.4280    9.3402   -2.7211 H         1 COA        -0.0393
     67 H10        -0.7524   10.3112    1.4665 H         1 COA        -0.0393
     68 HO1        -1.3767   12.1229   -0.6167 H         1 COA         0.2010
     69 HN8        -2.1931   11.2196    2.8537 H         1 COA         0.0865
     70 H71        -4.2731   11.9958    3.6041 H         1 COA        -0.0393
     71 H72        -5.0090   11.5556    2.0622 H         1 COA        -0.0393
     72 H61        -4.8150    9.1286    2.6418 H         1 COA        -0.0393
     73 H62        -5.7626    9.9948    3.8582 H         1 COA        -0.0393
     74 HN4        -4.3862    7.4873    3.9279 H         1 COA         0.0865
     75 H31        -2.7413    6.3288    5.0342 H         1 COA        -0.0393
     76 H32        -2.0645    7.8367    5.6642 H         1 COA        -0.0393
     77 H21        -3.0634    6.4745    7.5325 H         1 COA        -0.0393
     78 H22        -4.0003    7.9577    7.2863 H         1 COA        -0.0393
     79 HS1        -5.8363    6.9077    5.7866 H         1 COA         0.1718
@<TRIPOS>BOND
     1    1    2 ar
     2    1    6 ar
     3    2    3 ar
     4    2   49 1
     5    3    4 ar
     6    4    5 ar
     7    4   10 ar
     8    5    6 ar
     9    5    8 ar
    10    6    7 1
    11    7   50 1
    12    7   51 1
    13    8    9 ar
    14    9   10 ar
    15    9   52 1
    16   10   11 1
    17   11   12 1
    18   11   21 1
    19   11   53 1
    20   12   13 1
    21   12   14 1
    22   12   54 1
    23   14   15 1
    24   14   20 1
    25   14   55 1
    26   15   16 1
    27   16   17 2
    28   16   18 1
    29   16   19 1
    30   20   21 1
    31   20   22 1
    32   20   56 1
    33   22   23 1
    34   22   57 1
    35   22   58 1
    36   23   24 1
    37   24   25 2
    38   24   26 1
    39   24   27 1
    40   27   28 1
    41   28   29 2
    42   28   30 1
    43   28   31 1
    44   31   33 1
    45   32   33 1
    46   32   34 1
    47   32   35 1
    48   32   36 1
    49   33   59 1
    50   33   60 1
    51   34   61 1
    52   34   62 1
    53   34   63 1
    54   35   64 1
    55   35   65 1
    56   35   66 1
    57   36   37 1
    58   36   38 1
    59   36   67 1
    60   37   68 1
    61   38   39 2
    62   38   40 am
    63   40   41 1
    64   40   69 1
    65   41   42 1
    66   41   70 1
    67   41   71 1
    68   42   43 1
    69   42   72 1
    70   42   73 1
    71   43   44 2
    72   43   45 am
    73   45   46 1
    74   45   74 1
    75   46   47 1
    76   46   75 1
    77   46   76 1
    78   47   48 1
    79   47   77 1
    80   47   78 1
    81   48   79 1
@<TRIPOS>SUBSTRUCTURE
     1 COA         1 GROUP 0 A     ****
@<TRIPOS>MOLECULE
[5-(6-aminopurin-9-yl)-2-[[[[3-hydroxy-2,2-dimethyl-4-oxo-4-[[3-oxo-3-(2-sulfanylethylamino)propyl]amino]butoxy]-oxido-phosphoryl]oxy-oxido-phosphoryl]oxymethyl]-4-oxido-tetrahydrofuran-3-yl] phosphate
   79    81     1     0     0
SMALL
USER_CHARGES

@<TRIPOS>ATOM
      1 N1A         6.3197    3.3711    0.1967 N.ar      1 COA        -0.5260
      2 C2A         5.0033    3.3256    0.5141 C.ar      1 COA         0.6629
      3 N3A         4.0730    2.4196    0.1418 N.ar      1 COA        -0.5260
      4 C4A         4.6208    1.4811   -0.6447 C.ar      1 COA         0.5212
      5 C5A         5.9423    1.3962   -1.0530 C.ar      1 COA         0.0088
      6 C6A         6.8050    2.3902   -0.6021 C.ar      1 COA         0.5212
      7 N6A         8.1621    2.3826   -0.9671 N.pl3     1 COA        -0.6025
      8 N7A         6.1335    0.2987   -1.8543 N.2       1 COA        -0.4271
      9 C8A         4.9500   -0.2731   -1.9316 C.ar      1 COA         0.5691
     10 N9A         4.0006    0.4065   -1.2155 N.pl3     1 COA        -0.5033
     11 C1B         2.5376    0.0288   -1.0907 C.3       1 COA         0.2693
     12 C2B         1.9579   -0.2640    0.3131 C.3       1 COA         0.2008
     13 O2B         2.1299   -1.5323    0.6368 O.co2     1 COA        -0.1615
     14 C3B         0.4729    0.0487    0.0699 C.3       1 COA         0.1111
     15 O3B        -0.1943   -0.9780   -0.6709 O.3       1 COA         0.1618
     16 P3B        -1.8364   -1.0586   -0.5907 P.3       1 COA        -1.1921
     17 O7A        -2.1459   -1.2889    0.8856 O.co2     1 COA         0.3195
     18 O8A        -2.1706   -2.2476   -1.4866 O.co2     1 COA         0.3195
     19 O9A        -2.3217    0.2823   -1.1335 O.co2     1 COA         0.3195
     20 C4B         0.5412    1.2713   -0.8394 C.3       1 COA         0.1111
     21 O4B         1.7485    1.1278   -1.6124 O.3       1 COA        -0.1436
     22 C5B         0.6184    2.5901   -0.0816 C.3       1 COA         0.1504
     23 O5B         0.6777    3.6562   -1.0149 O.3       1 COA         0.1618
     24 P1A         0.7670    5.1936   -0.4641 P.3       1 COA        -1.1062
     25 O1A         0.8194    6.1476   -1.6376 O.co2     1 COA         0.3195
     26 O2A         1.8029    5.2507    0.6375 O.co2     1 COA         0.3195
     27 O3A        -0.6886    5.3125    0.2679 O.3       1 COA         0.4672
     28 P2A        -1.1429    6.2040    1.5594 P.3       1 COA        -1.1062
     29 O4A        -2.6377    6.0612    1.7476 O.co2     1 COA         0.3195
     30 O5A        -0.1888    5.9134    2.6974 O.co2     1 COA         0.3195
     31 O6A        -0.8065    7.6957    0.9792 O.3       1 COA         0.1618
     32 CBP        -1.0090    9.5771   -0.5793 C.3       1 COA         0.0000
     33 CCP        -1.4652    8.1470   -0.1994 C.3       1 COA         0.1504
     34 CDP         0.5182    9.5632   -0.8289 C.3       1 COA         0.1179
     35 CEP        -1.6888   10.0085   -1.8940 C.3       1 COA         0.1179
     36 CAP        -1.3149   10.5877    0.5658 C.3       1 COA         0.0611
     37 OAP        -0.8841   11.8921    0.1862 O.3       1 COA        -0.2728
     38 C9P        -2.7940   10.7032    0.9282 C.2       1 COA         0.3561
     39 O9P        -3.6570   10.0067    0.3969 O.2       1 COA        -0.2391
     40 N8P        -3.0315   11.6427    1.9186 N.am      1 COA        -0.1909
     41 C7P        -4.3486   11.9130    2.4473 C.3       1 COA         0.1160
     42 C6P        -4.6208   11.0029    3.6363 C.3       1 COA         0.0286
     43 C5P        -3.6187   11.2018    4.7593 C.2       1 COA         0.3561
     44 O5P        -3.0619   12.2735    4.9814 O.2       1 COA        -0.2391
     45 N4P        -3.4225   10.0333    5.4807 N.am      1 COA        -0.1909
     46 C3P        -2.5172    9.9452    6.6032 C.3       1 COA         0.1160
     47 C2P        -1.1083    9.5485    6.1933 C.3       1 COA         0.2607
     48 S1P        -1.0593    7.9266    5.3720 S.3       1 COA        -0.3539
     49 H2A         4.6492    4.1260    1.1552 H         1 COA        -0.1369
     50 H61A        8.7564    3.1335   -0.6708 H         1 COA         0.2048
     51 H62A        8.4991    1.6788   -1.5963 H         1 COA         0.2048
     52 H8A         4.7208   -1.1726   -2.4865 H         1 COA        -0.1292
     53 H1B         2.4085   -0.8200   -1.8256 H         1 COA        -0.0393
     54 H2B         2.3286    0.5212    0.9904 H         1 COA        -0.0393
     55 H3B        -0.0977    0.2245    0.9885 H         1 COA        -0.0393
     56 H4B        -0.2996    1.3083   -1.5416 H         1 COA        -0.0393
     57 H51A        1.5144    2.6204    0.5455 H         1 COA        -0.0393
     58 H52A       -0.2654    2.7227    0.5494 H         1 COA        -0.0393
     59 H121       -1.2324    7.4355   -0.9984 H         1 COA        -0.0393
     60 H122       -2.5440    8.1138   -0.0133 H         1 COA        -0.0393
     61 H131        0.8796   10.5616   -1.1013 H         1 COA        -0.0393
     62 H132        0.7886    8.8842   -1.6454 H         1 COA        -0.0393
     63 H133        1.0681    9.2399    0.0618 H         1 COA        -0.0393
     64 H141       -1.3855   11.0192   -2.1904 H         1 COA        -0.0393
     65 H142       -2.7797   10.0132   -1.7903 H         1 COA        -0.0393
     66 H143       -1.4280    9.3402   -2.7211 H         1 COA        -0.0393
     67 H10        -0.7524   10.3112    1.4665 H         1 COA        -0.0393
     68 HO1        -1.3767   12.1229   -0.6167 H         1 COA         0.2010
     69 HN8        -2.2509   12.1532    2.3202 H         1 COA         0.0865
     70 H71        -4.4081   12.9648    2.7445 H         1 COA        -0.0393
     71 H72        -5.0921   11.7528    1.6601 H         1 COA        -0.0393
     72 H61        -4.5839    9.9523    3.3226 H         1 COA        -0.0393
     73 H62        -5.6263   11.1919    4.0328 H         1 COA        -0.0393
     74 HN4        -3.9386    9.2022    5.2074 H         1 COA         0.0865
     75 H31        -2.5016   10.9377    7.0609 H         1 COA        -0.0393
     76 H32        -2.9508    9.2473    7.3240 H         1 COA        -0.0393
     77 H21        -0.6715   10.2920    5.5187 H         1 COA        -0.0393
     78 H22        -0.4764    9.4874    7.0848 H         1 COA        -0.0393
     79 HS1        -1.8686    8.2602    4.3581 H         1 COA         0.1718
@<TRIPOS>BOND
     1    1    2 ar
     2    1    6 ar
     3    2    3 ar
     4    2   49 1
     5    3    4 ar
     6    4    5 ar
     7    4   10 ar
     8    5    6 ar
     9    5    8 ar
    10    6    7 1
    11    7   50 1
    12    7   51 1
    13    8    9 ar
    14    9   10 ar
    15    9   52 1
    16   10   11 1
    17   11   12 1
    18   11   21 1
    19   11   53 1
    20   12   13 1
    21   12   14 1
    22   12   54 1
    23   14   15 1
    24   14   20 1
    25   14   55 1
    26   15   16 1
    27   16   17 2
    28   16   18 1
    29   16   19 1
    30   20   21 1
    31   20   22 1
    32   20   56 1
    33   22   23 1
    34   22   57 1
    35   22   58 1
    36   23   24 1
    37   24   25 2
    38   24   26 1
    39   24   27 1
    40   27   28 1
    41   28   29 2
    42   28   30 1
    43   28   31 1
    44   31   33 1
    45   32   33 1
    46   32   34 1
    47   32   35 1
    48   32   36 1
    49   33   59 1
    50   33   60 1
    51   34   61 1
    52   34   62 1
    53   34   63 1
    54   35   64 1
    55   35   65 1
    56   35   66 1
    57   36   37 1
    58   36   38 1
    59   36   67 1
    60   37   68 1
    61   38   39 2
    62   38   40 am
    63   40   41 1
    64   40   69 1
    65   41   42 1
    66   41   70 1
    67   41   71 1
    68   42   43 1
    69   42   72 1
    70   42   73 1
    71   43   44 2
    72   43   45 am
    73   45   46 1
    74   45   74 1
    75   46   47 1
    76   46   75 1
    77   46   76 1
    78   47   48 1
    79   47   77 1
    80   47   78 1
    81   48   79 1
@<TRIPOS>SUBSTRUCTURE
     1 COA         1 GROUP 0 A     ****
@<TRIPOS>MOLECULE
[5-(6-aminopurin-9-yl)-2-[[[[3-hydroxy-2,2-dimethyl-4-oxo-4-[[3-oxo-3-(2-sulfanylethylamino)propyl]amino]butoxy]-oxido-phosphoryl]oxy-oxido-phosphoryl]oxymethyl]-4-oxido-tetrahydrofuran-3-yl] phosphate
   79    81     1     0     0
SMALL
USER_CHARGES

@<TRIPOS>ATOM
      1 N1A         5.7146    2.0302   -0.7890 N.ar      1 COA        -0.5260
      2 C2A         4.3962    2.1571   -0.5034 C.ar      1 COA         0.6629
      3 N3A         3.3299    1.7526   -1.2276 N.ar      1 COA        -0.5260
      4 C4A         3.7311    1.1587   -2.3614 C.ar      1 COA         0.5212
      5 C5A         5.0346    0.9576   -2.7868 C.ar      1 COA         0.0088
      6 C6A         6.0470    1.4195   -1.9517 C.ar      1 COA         0.5212
      7 N6A         7.3978    1.2581   -2.3043 N.pl3     1 COA        -0.6025
      8 N7A         5.0562    0.3154   -3.9993 N.2       1 COA        -0.4271
      9 C8A         3.7892    0.1293   -4.3054 C.ar      1 COA         0.5691
     10 N9A         2.9479    0.6234   -3.3440 N.pl3     1 COA        -0.5033
     11 C1B         1.4328    0.5815   -3.3775 C.3       1 COA         0.2693
     12 C2B         0.6799   -0.1567   -2.2458 C.3       1 COA         0.2008
     13 O2B         0.5449   -1.4388   -2.5302 O.co2     1 COA        -0.1615
     14 C3B        -0.6749    0.5672   -2.2968 C.3       1 COA         0.1111
     15 O3B        -1.4782    0.1594   -3.4088 O.3       1 COA         0.1618
     16 P3B        -3.0996    0.4363   -3.3454 P.3       1 COA        -1.1921
     17 O7A        -3.5828   -0.3425   -2.1254 O.co2     1 COA         0.3195
     18 O8A        -3.6001   -0.1211   -4.6746 O.co2     1 COA         0.3195
     19 O9A        -3.2339    1.9510   -3.2185 O.co2     1 COA         0.3195
     20 C4B        -0.2635    2.0121   -2.5599 C.3       1 COA         0.1111
     21 O4B         0.9490    1.9478   -3.3354 O.3       1 COA        -0.1436
     22 C5B         0.0275    2.8029   -1.2913 C.3       1 COA         0.1504
     23 O5B         0.3986    4.1249   -1.6460 O.3       1 COA         0.1618
     24 P1A         0.7670    5.1936   -0.4641 P.3       1 COA        -1.1062
     25 O1A         1.1289    6.5260   -1.0837 O.co2     1 COA         0.3195
     26 O2A         1.6876    4.5161    0.5275 O.co2     1 COA         0.3195
     27 O3A        -0.6886    5.3125    0.2679 O.3       1 COA         0.4672
     28 P2A        -1.1429    6.2040    1.5594 P.3       1 COA        -1.1062
     29 O4A        -2.6377    6.0612    1.7476 O.co2     1 COA         0.3195
     30 O5A        -0.1888    5.9134    2.6974 O.co2     1 COA         0.3195
     31 O6A        -0.8065    7.6957    0.9792 O.3       1 COA         0.1618
     32 CBP        -1.0090    9.5771   -0.5793 C.3       1 COA         0.0000
     33 CCP        -1.4652    8.1470   -0.1994 C.3       1 COA         0.1504
     34 CDP         0.5182    9.5632   -0.8289 C.3       1 COA         0.1179
     35 CEP        -1.6888   10.0085   -1.8940 C.3       1 COA         0.1179
     36 CAP        -1.3149   10.5877    0.5658 C.3       1 COA         0.0611
     37 OAP        -2.7163   10.6149    0.8239 O.3       1 COA        -0.2728
     38 C9P        -0.6314   10.2649    1.8928 C.2       1 COA         0.3561
     39 O9P        -1.1331    9.5097    2.7236 O.2       1 COA        -0.2391
     40 N8P         0.5984   10.8887    2.0282 N.am      1 COA        -0.1909
     41 C7P         1.4450   10.7163    3.1861 C.3       1 COA         0.1160
     42 C6P         1.1093   11.7726    4.2289 C.3       1 COA         0.0286
     43 C5P         1.9658   11.6481    5.4762 C.2       1 COA         0.3561
     44 O5P         2.8285   10.7854    5.6158 O.2       1 COA        -0.2391
     45 N4P         1.6453   12.6186    6.4140 N.am      1 COA        -0.1909
     46 C3P         2.3085   12.7249    7.6932 C.3       1 COA         0.1160
     47 C2P         1.6271   11.9083    8.7791 C.3       1 COA         0.2607
     48 S1P        -0.0944   12.4260    9.0543 S.3       1 COA        -0.3539
     49 H2A         4.1666    2.6505    0.4351 H         1 COA        -0.1369
     50 H61A        8.1108    1.6399   -1.7121 H         1 COA         0.2048
     51 H62A        7.6305    0.8472   -3.1886 H         1 COA         0.2048
     52 H8A         3.4224   -0.3522   -5.2016 H         1 COA        -0.1292
     53 H1B         1.1905    0.2000   -4.4133 H         1 COA        -0.0393
     54 H2B         1.1486    0.1388   -1.2941 H         1 COA        -0.0393
     55 H3B        -1.2745    0.4471   -1.3878 H         1 COA        -0.0393
     56 H4B        -1.0100    2.5497   -3.1559 H         1 COA        -0.0393
     57 H51A        0.8489    2.3441   -0.7330 H         1 COA        -0.0393
     58 H52A       -0.8601    2.8452   -0.6531 H         1 COA        -0.0393
     59 H121       -1.2324    7.4355   -0.9984 H         1 COA        -0.0393
     60 H122       -2.5440    8.1138   -0.0133 H         1 COA        -0.0393
     61 H131        0.8796   10.5616   -1.1013 H         1 COA        -0.0393
     62 H132        0.7886    8.8842   -1.6454 H         1 COA        -0.0393
     63 H133        1.0681    9.2399    0.0618 H         1 COA        -0.0393
     64 H141       -1.3855   11.0192   -2.1904 H         1 COA        -0.0393
     65 H142       -2.7797   10.0132   -1.7903 H         1 COA        -0.0393
     66 H143       -1.4280    9.3402   -2.7211 H         1 COA        -0.0393
     67 H10        -1.0237   11.5996    0.2569 H         1 COA        -0.0393
     68 HO1        -2.9668    9.7148    1.0837 H         1 COA         0.2010
     69 HN8         0.9463   11.4752    1.2758 H         1 COA         0.0865
     70 H71         1.2973    9.7110    3.5932 H         1 COA        -0.0393
     71 H72         2.4931   10.7948    2.8803 H         1 COA        -0.0393
     72 H61         0.0558   11.6893    4.5237 H         1 COA        -0.0393
     73 H62         1.2542   12.7758    3.8089 H         1 COA        -0.0393
     74 HN4         0.9112   13.2845    6.1914 H         1 COA         0.0865
     75 H31         3.3265   12.3572    7.5403 H         1 COA        -0.0393
     76 H32         2.3670   13.7861    7.9483 H         1 COA        -0.0393
     77 H21         1.6330   10.8420    8.5306 H         1 COA        -0.0393
     78 H22         2.1670   12.0394    9.7221 H         1 COA        -0.0393
     79 HS1        -0.5165   12.1713    7.8088 H         1 COA         0.1718
@<TRIPOS>BOND
     1    1    2 ar
     2    1    6 ar
     3    2    3 ar
     4    2   49 1
     5    3    4 ar
     6    4    5 ar
     7    4   10 ar
     8    5    6 ar
     9    5    8 ar
    10    6    7 1
    11    7   50 1
    12    7   51 1
    13    8    9 ar
    14    9   10 ar
    15    9   52 1
    16   10   11 1
    17   11   12 1
    18   11   21 1
    19   11   53 1
    20   12   13 1
    21   12   14 1
    22   12   54 1
    23   14   15 1
    24   14   20 1
    25   14   55 1
    26   15   16 1
    27   16   17 2
    28   16   18 1
    29   16   19 1
    30   20   21 1
    31   20   22 1
    32   20   56 1
    33   22   23 1
    34   22   57 1
    35   22   58 1
    36   23   24 1
    37   24   25 2
    38   24   26 1
    39   24   27 1
    40   27   28 1
    41   28   29 2
    42   28   30 1
    43   28   31 1
    44   31   33 1
    45   32   33 1
    46   32   34 1
    47   32   35 1
    48   32   36 1
    49   33   59 1
    50   33   60 1
    51   34   61 1
    52   34   62 1
    53   34   63 1
    54   35   64 1
    55   35   65 1
    56   35   66 1
    57   36   37 1
    58   36   38 1
    59   36   67 1
    60   37   68 1
    61   38   39 2
    62   38   40 am
    63   40   41 1
    64   40   69 1
    65   41   42 1
    66   41   70 1
    67   41   71 1
    68   42   43 1
    69   42   72 1
    70   42   73 1
    71   43   44 2
    72   43   45 am
    73   45   46 1
    74   45   74 1
    75   46   47 1
    76   46   75 1
    77   46   76 1
    78   47   48 1
    79   47   77 1
    80   47   78 1
    81   48   79 1
@<TRIPOS>SUBSTRUCTURE
     1 COA         1 GROUP 0 A     ****
@<TRIPOS>MOLECULE
[5-(6-aminopurin-9-yl)-2-[[[[3-hydroxy-2,2-dimethyl-4-oxo-4-[[3-oxo-3-(2-sulfanylethylamino)propyl]amino]butoxy]-oxido-phosphoryl]oxy-oxido-phosphoryl]oxymethyl]-4-oxido-tetrahydrofuran-3-yl] phosphate
   79    81     1     0     0
SMALL
USER_CHARGES

@<TRIPOS>ATOM
      1 N1A         4.6908    0.9263    0.5284 N.ar      1 COA        -0.5260
      2 C2A         3.4193    1.3931    0.4919 C.ar      1 COA         0.6629
      3 N3A         2.4653    1.1803   -0.4405 N.ar      1 COA        -0.5260
      4 C4A         2.9338    0.3916   -1.4192 C.ar      1 COA         0.5212
      5 C5A         4.2020   -0.1580   -1.5185 C.ar      1 COA         0.0088
      6 C6A         5.0963    0.1348   -0.4937 C.ar      1 COA         0.5212
      7 N6A         6.4038   -0.3801   -0.5131 N.pl3     1 COA        -0.6025
      8 N7A         4.3170   -0.9111   -2.6598 N.2       1 COA        -0.4271
      9 C8A         3.1403   -0.8212   -3.2436 C.ar      1 COA         0.5691
     10 N9A         2.2683   -0.0422   -2.5302 N.pl3     1 COA        -0.5033
     11 C1B         0.8363    0.2748   -2.9142 C.3       1 COA         0.2693
     12 C2B        -0.3043   -0.1391   -1.9549 C.3       1 COA         0.2008
     13 O2B        -0.6991   -1.3747   -2.2004 O.co2     1 COA        -0.1615
     14 C3B        -1.3853    0.8773   -2.3558 C.3       1 COA         0.1111
     15 O3B        -2.0094    0.5576   -3.6033 O.3       1 COA         0.1618
     16 P3B        -3.4806    1.2180   -3.9334 P.3       1 COA        -1.1921
     17 O7A        -4.3962    0.7100   -2.8235 O.co2     1 COA         0.3195
     18 O8A        -3.8112    0.6588   -5.3140 O.co2     1 COA         0.3195
     19 O9A        -3.2466    2.7257   -3.9151 O.co2     1 COA         0.3195
     20 C4B        -0.5713    2.1464   -2.5855 C.3       1 COA         0.1111
     21 O4B         0.7211    1.7136   -3.0526 O.3       1 COA        -0.1436
     22 C5B        -0.3655    2.9745   -1.3239 C.3       1 COA         0.1504
     23 O5B         0.3986    4.1249   -1.6460 O.3       1 COA         0.1618
     24 P1A         0.7670    5.1936   -0.4641 P.3       1 COA        -1.1062
     25 O1A         1.1289    6.5260   -1.0837 O.co2     1 COA         0.3195
     26 O2A         1.6876    4.5161    0.5275 O.co2     1 COA         0.3195
     27 O3A        -0.6886    5.3125    0.2679 O.3       1 COA         0.4672
     28 P2A        -1.1429    6.2040    1.5594 P.3       1 COA        -1.1062
     29 O4A        -2.6377    6.0612    1.7476 O.co2     1 COA         0.3195
     30 O5A        -0.1888    5.9134    2.6974 O.co2     1 COA         0.3195
     31 O6A        -0.8065    7.6957    0.9792 O.3       1 COA         0.1618
     32 CBP        -1.0090    9.5771   -0.5793 C.3       1 COA         0.0000
     33 CCP        -1.4652    8.1470   -0.1994 C.3       1 COA         0.1504
     34 CDP         0.5182    9.5632   -0.8289 C.3       1 COA         0.1179
     35 CEP        -1.6888   10.0085   -1.8940 C.3       1 COA         0.1179
     36 CAP        -1.3149   10.5877    0.5658 C.3       1 COA         0.0611
     37 OAP        -2.7163   10.6149    0.8239 O.3       1 COA        -0.2728
     38 C9P        -0.6314   10.2649    1.8928 C.2       1 COA         0.3561
     39 O9P        -1.1331    9.5097    2.7236 O.2       1 COA        -0.2391
     40 N8P         0.5984   10.8887    2.0282 N.am      1 COA        -0.1909
     41 C7P         1.4450   10.7163    3.1861 C.3       1 COA         0.1160
     42 C6P         2.3820    9.5376    2.9657 C.3       1 COA         0.0286
     43 C5P         3.2803    9.7298    1.7570 C.2       1 COA         0.3561
     44 O5P         3.2433   10.7289    1.0441 O.2       1 COA        -0.2391
     45 N4P         4.1262    8.6460    1.5727 N.am      1 COA        -0.1909
     46 C3P         5.0832    8.5705    0.4929 C.3       1 COA         0.1160
     47 C2P         4.5093    7.9254   -0.7581 C.3       1 COA         0.2607
     48 S1P         5.7244    7.8371   -2.1084 S.3       1 COA        -0.3539
     49 H2A         3.1287    2.0232    1.3259 H         1 COA        -0.1369
     50 H61A        7.0472   -0.1189    0.2098 H         1 COA         0.2048
     51 H62A        6.7069   -0.9256   -1.2976 H         1 COA         0.2048
     52 H8A         2.8628   -1.2932   -4.1762 H         1 COA        -0.1292
     53 H1B         0.7316   -0.1451   -3.9582 H         1 COA        -0.0393
     54 H2B         0.0098    0.1350   -0.9357 H         1 COA        -0.0393
     55 H3B        -2.1756    1.0002   -1.6070 H         1 COA        -0.0393
     56 H4B        -1.0101    2.7804   -3.3646 H         1 COA        -0.0393
     57 H51A        0.1721    2.3946   -0.5677 H         1 COA        -0.0393
     58 H52A       -1.3279    3.2941   -0.9132 H         1 COA        -0.0393
     59 H121       -1.2324    7.4355   -0.9984 H         1 COA        -0.0393
     60 H122       -2.5440    8.1138   -0.0133 H         1 COA        -0.0393
     61 H131        0.8796   10.5616   -1.1013 H         1 COA        -0.0393
     62 H132        0.7886    8.8842   -1.6454 H         1 COA        -0.0393
     63 H133        1.0681    9.2399    0.0618 H         1 COA        -0.0393
     64 H141       -1.3855   11.0192   -2.1904 H         1 COA        -0.0393
     65 H142       -2.7797   10.0132   -1.7903 H         1 COA        -0.0393
     66 H143       -1.4280    9.3402   -2.7211 H         1 COA        -0.0393
     67 H10        -1.0237   11.5996    0.2569 H         1 COA        -0.0393
     68 HO1        -2.9668    9.7148    1.0837 H         1 COA         0.2010
     69 HN8         0.9463   11.4752    1.2758 H         1 COA         0.0865
     70 H71         2.0143   11.6358    3.3556 H         1 COA        -0.0393
     71 H72         0.8185   10.5520    4.0685 H         1 COA        -0.0393
     72 H61         1.8021    8.6173    2.8222 H         1 COA        -0.0393
     73 H62         3.0170    9.3910    3.8484 H         1 COA        -0.0393
     74 HN4         4.0704    7.8705    2.2264 H         1 COA         0.0865
     75 H31         5.3776    9.6002    0.2740 H         1 COA        -0.0393
     76 H32         5.9624    8.0396    0.8665 H         1 COA        -0.0393
     77 H21         4.1500    6.9127   -0.5483 H         1 COA        -0.0393
     78 H22         3.6614    8.5188   -1.1141 H         1 COA        -0.0393
     79 HS1         5.9282    9.1580   -2.1981 H         1 COA         0.1718
@<TRIPOS>BOND
     1    1    2 ar
     2    1    6 ar
     3    2    3 ar
     4    2   49 1
     5    3    4 ar
     6    4    5 ar
     7    4   10 ar
     8    5    6 ar
     9    5    8 ar
    10    6    7 1
    11    7   50 1
    12    7   51 1
    13    8    9 ar
    14    9   10 ar
    15    9   52 1
    16   10   11 1
    17   11   12 1
    18   11   21 1
    19   11   53 1
    20   12   13 1
    21   12   14 1
    22   12   54 1
    23   14   15 1
    24   14   20 1
    25   14   55 1
    26   15   16 1
    27   16   17 2
    28   16   18 1
    29   16   19 1
    30   20   21 1
    31   20   22 1
    32   20   56 1
    33   22   23 1
    34   22   57 1
    35   22   58 1
    36   23   24 1
    37   24   25 2
    38   24   26 1
    39   24   27 1
    40   27   28 1
    41   28   29 2
    42   28   30 1
    43   28   31 1
    44   31   33 1
    45   32   33 1
    46   32   34 1
    47   32   35 1
    48   32   36 1
    49   33   59 1
    50   33   60 1
    51   34   61 1
    52   34   62 1
    53   34   63 1
    54   35   64 1
    55   35   65 1
    56   35   66 1
    57   36   37 1
    58   36   38 1
    59   36   67 1
    60   37   68 1
    61   38   39 2
    62   38   40 am
    63   40   41 1
    64   40   69 1
    65   41   42 1
    66   41   70 1
    67   41   71 1
    68   42   43 1
    69   42   72 1
    70   42   73 1
    71   43   44 2
    72   43   45 am
    73   45   46 1
    74   45   74 1
    75   46   47 1
    76   46   75 1
    77   46   76 1
    78   47   48 1
    79   47   77 1
    80   47   78 1
    81   48   79 1
@<TRIPOS>SUBSTRUCTURE
     1 COA         1 GROUP 0 A     ****
@<TRIPOS>MOLECULE
[5-(6-aminopurin-9-yl)-2-[[[[3-hydroxy-2,2-dimethyl-4-oxo-4-[[3-oxo-3-(2-sulfanylethylamino)propyl]amino]butoxy]-oxido-phosphoryl]oxy-oxido-phosphoryl]oxymethyl]-4-oxido-tetrahydrofuran-3-yl] phosphate
   79    81     1     0     0
SMALL
USER_CHARGES

@<TRIPOS>ATOM
      1 N1A         5.7146    2.0302   -0.7890 N.ar      1 COA        -0.5260
      2 C2A         4.3962    2.1571   -0.5034 C.ar      1 COA         0.6629
      3 N3A         3.3299    1.7526   -1.2276 N.ar      1 COA        -0.5260
      4 C4A         3.7311    1.1587   -2.3614 C.ar      1 COA         0.5212
      5 C5A         5.0346    0.9576   -2.7868 C.ar      1 COA         0.0088
      6 C6A         6.0470    1.4195   -1.9517 C.ar      1 COA         0.5212
      7 N6A         7.3978    1.2581   -2.3043 N.pl3     1 COA        -0.6025
      8 N7A         5.0562    0.3154   -3.9993 N.2       1 COA        -0.4271
      9 C8A         3.7892    0.1293   -4.3054 C.ar      1 COA         0.5691
     10 N9A         2.9479    0.6234   -3.3440 N.pl3     1 COA        -0.5033
     11 C1B         1.4328    0.5815   -3.3775 C.3       1 COA         0.2693
     12 C2B         0.6799   -0.1567   -2.2458 C.3       1 COA         0.2008
     13 O2B         0.5449   -1.4388   -2.5302 O.co2     1 COA        -0.1615
     14 C3B        -0.6749    0.5672   -2.2968 C.3       1 COA         0.1111
     15 O3B        -1.4782    0.1594   -3.4088 O.3       1 COA         0.1618
     16 P3B        -3.0996    0.4363   -3.3454 P.3       1 COA        -1.1921
     17 O7A        -3.5828   -0.3425   -2.1254 O.co2     1 COA         0.3195
     18 O8A        -3.6001   -0.1211   -4.6746 O.co2     1 COA         0.3195
     19 O9A        -3.2339    1.9510   -3.2185 O.co2     1 COA         0.3195
     20 C4B        -0.2635    2.0121   -2.5599 C.3       1 COA         0.1111
     21 O4B         0.9490    1.9478   -3.3354 O.3       1 COA        -0.1436
     22 C5B         0.0275    2.8029   -1.2913 C.3       1 COA         0.1504
     23 O5B         0.3986    4.1249   -1.6460 O.3       1 COA         0.1618
     24 P1A         0.7670    5.1936   -0.4641 P.3       1 COA        -1.1062
     25 O1A         1.1289    6.5260   -1.0837 O.co2     1 COA         0.3195
     26 O2A         1.6876    4.5161    0.5275 O.co2     1 COA         0.3195
     27 O3A        -0.6886    5.3125    0.2679 O.3       1 COA         0.4672
     28 P2A        -1.1429    6.2040    1.5594 P.3       1 COA        -1.1062
     29 O4A        -2.6377    6.0612    1.7476 O.co2     1 COA         0.3195
     30 O5A        -0.1888    5.9134    2.6974 O.co2     1 COA         0.3195
     31 O6A        -0.8065    7.6957    0.9792 O.3       1 COA         0.1618
     32 CBP        -1.0090    9.5771   -0.5793 C.3       1 COA         0.0000
     33 CCP        -1.4652    8.1470   -0.1994 C.3       1 COA         0.1504
     34 CDP         0.5182    9.5632   -0.8289 C.3       1 COA         0.1179
     35 CEP        -1.6888   10.0085   -1.8940 C.3       1 COA         0.1179
     36 CAP        -1.3149   10.5877    0.5658 C.3       1 COA         0.0611
     37 OAP        -0.6287   10.1955    1.7518 O.3       1 COA        -0.2728
     38 C9P        -0.8916   12.0249    0.2699 C.2       1 COA         0.3561
     39 O9P         0.2422   12.4378    0.5067 O.2       1 COA        -0.2391
     40 N8P        -1.9050   12.7747   -0.3052 N.am      1 COA        -0.1909
     41 C7P        -1.7368   14.1547   -0.6986 C.3       1 COA         0.1160
     42 C6P        -2.1026   15.0674    0.4629 C.3       1 COA         0.0286
     43 C5P        -3.5409   14.8840    0.9130 C.2       1 COA         0.3561
     44 O5P        -4.3128   14.0858    0.3885 O.2       1 COA        -0.2391
     45 N4P        -3.8551   15.7237    1.9714 N.am      1 COA        -0.1909
     46 C3P        -5.1602   15.7533    2.5907 C.3       1 COA         0.1160
     47 C2P        -6.0991   16.7543    1.9374 C.3       1 COA         0.2607
     48 S1P        -5.4593   18.4549    2.0180 S.3       1 COA        -0.3539
     49 H2A         4.1666    2.6505    0.4351 H         1 COA        -0.1369
     50 H61A        8.1108    1.6399   -1.7121 H         1 COA         0.2048
     51 H62A        7.6305    0.8472   -3.1886 H         1 COA         0.2048
     52 H8A         3.4224   -0.3522   -5.2016 H         1 COA        -0.1292
     53 H1B         1.1905    0.2000   -4.4133 H         1 COA        -0.0393
     54 H2B         1.1486    0.1388   -1.2941 H         1 COA        -0.0393
     55 H3B        -1.2745    0.4471   -1.3878 H         1 COA        -0.0393
     56 H4B        -1.0100    2.5497   -3.1559 H         1 COA        -0.0393
     57 H51A        0.8489    2.3441   -0.7330 H         1 COA        -0.0393
     58 H52A       -0.8601    2.8452   -0.6531 H         1 COA        -0.0393
     59 H121       -1.2324    7.4355   -0.9984 H         1 COA        -0.0393
     60 H122       -2.5440    8.1138   -0.0133 H         1 COA        -0.0393
     61 H131        0.8796   10.5616   -1.1013 H         1 COA        -0.0393
     62 H132        0.7886    8.8842   -1.6454 H         1 COA        -0.0393
     63 H133        1.0681    9.2399    0.0618 H         1 COA        -0.0393
     64 H141       -1.3855   11.0192   -2.1904 H         1 COA        -0.0393
     65 H142       -2.7797   10.0132   -1.7903 H         1 COA        -0.0393
     66 H143       -1.4280    9.3402   -2.7211 H         1 COA        -0.0393
     67 H10        -2.3880   10.5770    0.7950 H         1 COA        -0.0393
     68 HO1         0.3169   10.1957    1.5366 H         1 COA         0.2010
     69 HN8        -2.8042   12.3405   -0.4899 H         1 COA         0.0865
     70 H71        -0.6987   14.3172   -1.0054 H         1 COA        -0.0393
     71 H72        -2.3708   14.3611   -1.5667 H         1 COA        -0.0393
     72 H61        -1.9618   16.1170    0.1758 H         1 COA        -0.0393
     73 H62        -1.4448   14.8702    1.3186 H         1 COA        -0.0393
     74 HN4        -3.1353   16.3459    2.3272 H         1 COA         0.0865
     75 H31        -5.5689   14.7446    2.4886 H         1 COA        -0.0393
     76 H32        -5.0167   15.9539    3.6554 H         1 COA        -0.0393
     77 H21        -6.2756   16.4998    0.8873 H         1 COA        -0.0393
     78 H22        -7.0624   16.7381    2.4565 H         1 COA        -0.0393
     79 HS1        -4.3321   18.2113    1.3365 H         1 COA         0.1718
@<TRIPOS>BOND
     1    1    2 ar
     2    1    6 ar
     3    2    3 ar
     4    2   49 1
     5    3    4 ar
     6    4    5 ar
     7    4   10 ar
     8    5    6 ar
     9    5    8 ar
    10    6    7 1
    11    7   50 1
    12    7   51 1
    13    8    9 ar
    14    9   10 ar
    15    9   52 1
    16   10   11 1
    17   11   12 1
    18   11   21 1
    19   11   53 1
    20   12   13 1
    21   12   14 1
    22   12   54 1
    23   14   15 1
    24   14   20 1
    25   14   55 1
    26   15   16 1
    27   16   17 2
    28   16   18 1
    29   16   19 1
    30   20   21 1
    31   20   22 1
    32   20   56 1
    33   22   23 1
    34   22   57 1
    35   22   58 1
    36   23   24 1
    37   24   25 2
    38   24   26 1
    39   24   27 1
    40   27   28 1
    41   28   29 2
    42   28   30 1
    43   28   31 1
    44   31   33 1
    45   32   33 1
    46   32   34 1
    47   32   35 1
    48   32   36 1
    49   33   59 1
    50   33   60 1
    51   34   61 1
    52   34   62 1
    53   34   63 1
    54   35   64 1
    55   35   65 1
    56   35   66 1
    57   36   37 1
    58   36   38 1
    59   36   67 1
    60   37   68 1
    61   38   39 2
    62   38   40 am
    63   40   41 1
    64   40   69 1
    65   41   42 1
    66   41   70 1
    67   41   71 1
    68   42   43 1
    69   42   72 1
    70   42   73 1
    71   43   44 2
    72   43   45 am
    73   45   46 1
    74   45   74 1
    75   46   47 1
    76   46   75 1
    77   46   76 1
    78   47   48 1
    79   47   77 1
    80   47   78 1
    81   48   79 1
@<TRIPOS>SUBSTRUCTURE
     1 COA         1 GROUP 0 A     ****
@<TRIPOS>MOLECULE
[5-(6-aminopurin-9-yl)-2-[[[[3-hydroxy-2,2-dimethyl-4-oxo-4-[[3-oxo-3-(2-sulfanylethylamino)propyl]amino]butoxy]-oxido-phosphoryl]oxy-oxido-phosphoryl]oxymethyl]-4-oxido-tetrahydrofuran-3-yl] phosphate
   79    81     1     0     0
SMALL
USER_CHARGES

@<TRIPOS>ATOM
      1 N1A         6.3197    3.3711    0.1967 N.ar      1 COA        -0.5260
      2 C2A         5.0033    3.3256    0.5141 C.ar      1 COA         0.6629
      3 N3A         4.0730    2.4196    0.1418 N.ar      1 COA        -0.5260
      4 C4A         4.6208    1.4811   -0.6447 C.ar      1 COA         0.5212
      5 C5A         5.9423    1.3962   -1.0530 C.ar      1 COA         0.0088
      6 C6A         6.8050    2.3902   -0.6021 C.ar      1 COA         0.5212
      7 N6A         8.1621    2.3826   -0.9671 N.pl3     1 COA        -0.6025
      8 N7A         6.1335    0.2987   -1.8543 N.2       1 COA        -0.4271
      9 C8A         4.9500   -0.2731   -1.9316 C.ar      1 COA         0.5691
     10 N9A         4.0006    0.4065   -1.2155 N.pl3     1 COA        -0.5033
     11 C1B         2.5376    0.0288   -1.0907 C.3       1 COA         0.2693
     12 C2B         1.9579   -0.2640    0.3131 C.3       1 COA         0.2008
     13 O2B         2.1299   -1.5323    0.6368 O.co2     1 COA        -0.1615
     14 C3B         0.4729    0.0487    0.0699 C.3       1 COA         0.1111
     15 O3B        -0.1943   -0.9780   -0.6709 O.3       1 COA         0.1618
     16 P3B        -1.8364   -1.0586   -0.5907 P.3       1 COA        -1.1921
     17 O7A        -2.1459   -1.2889    0.8856 O.co2     1 COA         0.3195
     18 O8A        -2.1706   -2.2476   -1.4866 O.co2     1 COA         0.3195
     19 O9A        -2.3217    0.2823   -1.1335 O.co2     1 COA         0.3195
     20 C4B         0.5412    1.2713   -0.8394 C.3       1 COA         0.1111
     21 O4B         1.7485    1.1278   -1.6124 O.3       1 COA        -0.1436
     22 C5B         0.6184    2.5901   -0.0816 C.3       1 COA         0.1504
     23 O5B         0.6777    3.6562   -1.0149 O.3       1 COA         0.1618
     24 P1A         0.7670    5.1936   -0.4641 P.3       1 COA        -1.1062
     25 O1A         0.8194    6.1476   -1.6376 O.co2     1 COA         0.3195
     26 O2A         1.8029    5.2507    0.6375 O.co2     1 COA         0.3195
     27 O3A        -0.6886    5.3125    0.2679 O.3       1 COA         0.4672
     28 P2A        -1.1429    6.2040    1.5594 P.3       1 COA        -1.1062
     29 O4A        -2.6377    6.0612    1.7476 O.co2     1 COA         0.3195
     30 O5A        -0.1888    5.9134    2.6974 O.co2     1 COA         0.3195
     31 O6A        -0.8065    7.6957    0.9792 O.3       1 COA         0.1618
     32 CBP        -1.0090    9.5771   -0.5793 C.3       1 COA         0.0000
     33 CCP        -1.4652    8.1470   -0.1994 C.3       1 COA         0.1504
     34 CDP         0.5182    9.5632   -0.8289 C.3       1 COA         0.1179
     35 CEP        -1.6888   10.0085   -1.8940 C.3       1 COA         0.1179
     36 CAP        -1.3149   10.5877    0.5658 C.3       1 COA         0.0611
     37 OAP        -2.7163   10.6149    0.8239 O.3       1 COA        -0.2728
     38 C9P        -0.6314   10.2649    1.8928 C.2       1 COA         0.3561
     39 O9P        -1.1331    9.5097    2.7236 O.2       1 COA        -0.2391
     40 N8P         0.5984   10.8887    2.0282 N.am      1 COA        -0.1909
     41 C7P         1.4450   10.7163    3.1861 C.3       1 COA         0.1160
     42 C6P         1.1093   11.7726    4.2289 C.3       1 COA         0.0286
     43 C5P         1.9658   11.6481    5.4762 C.2       1 COA         0.3561
     44 O5P         2.8285   10.7854    5.6158 O.2       1 COA        -0.2391
     45 N4P         1.6453   12.6186    6.4140 N.am      1 COA        -0.1909
     46 C3P         2.3085   12.7249    7.6932 C.3       1 COA         0.1160
     47 C2P         3.5301   13.6283    7.6495 C.3       1 COA         0.2607
     48 S1P         3.1149   15.3268    7.1493 S.3       1 COA        -0.3539
     49 H2A         4.6492    4.1260    1.1552 H         1 COA        -0.1369
     50 H61A        8.7564    3.1335   -0.6708 H         1 COA         0.2048
     51 H62A        8.4991    1.6788   -1.5963 H         1 COA         0.2048
     52 H8A         4.7208   -1.1726   -2.4865 H         1 COA        -0.1292
     53 H1B         2.4085   -0.8200   -1.8256 H         1 COA        -0.0393
     54 H2B         2.3286    0.5212    0.9904 H         1 COA        -0.0393
     55 H3B        -0.0977    0.2245    0.9885 H         1 COA        -0.0393
     56 H4B        -0.2996    1.3083   -1.5416 H         1 COA        -0.0393
     57 H51A        1.5144    2.6204    0.5455 H         1 COA        -0.0393
     58 H52A       -0.2654    2.7227    0.5494 H         1 COA        -0.0393
     59 H121       -1.2324    7.4355   -0.9984 H         1 COA        -0.0393
     60 H122       -2.5440    8.1138   -0.0133 H         1 COA        -0.0393
     61 H131        0.8796   10.5616   -1.1013 H         1 COA        -0.0393
     62 H132        0.7886    8.8842   -1.6454 H         1 COA        -0.0393
     63 H133        1.0681    9.2399    0.0618 H         1 COA        -0.0393
     64 H141       -1.3855   11.0192   -2.1904 H         1 COA        -0.0393
     65 H142       -2.7797   10.0132   -1.7903 H         1 COA        -0.0393
     66 H143       -1.4280    9.3402   -2.7211 H         1 COA        -0.0393
     67 H10        -1.0237   11.5996    0.2569 H         1 COA        -0.0393
     68 HO1        -2.9668    9.7148    1.0837 H         1 COA         0.2010
     69 HN8         0.9463   11.4752    1.2758 H         1 COA         0.0865
     70 H71         1.2973    9.7110    3.5932 H         1 COA        -0.0393
     71 H72         2.4931   10.7948    2.8803 H         1 COA        -0.0393
     72 H61         0.0558   11.6893    4.5237 H         1 COA        -0.0393
     73 H62         1.2542   12.7758    3.8089 H         1 COA        -0.0393
     74 HN4         0.9112   13.2845    6.1914 H         1 COA         0.0865
     75 H31         1.5703   13.1376    8.3859 H         1 COA        -0.0393
     76 H32         2.5536   11.7125    8.0240 H         1 COA        -0.0393
     77 H21         4.0260   13.6656    8.6249 H         1 COA        -0.0393
     78 H22         4.2451   13.2340    6.9208 H         1 COA        -0.0393
     79 HS1         2.6126   14.9996    5.9514 H         1 COA         0.1718
@<TRIPOS>BOND
     1    1    2 ar
     2    1    6 ar
     3    2    3 ar
     4    2   49 1
     5    3    4 ar
     6    4    5 ar
     7    4   10 ar
     8    5    6 ar
     9    5    8 ar
    10    6    7 1
    11    7   50 1
    12    7   51 1
    13    8    9 ar
    14    9   10 ar
    15    9   52 1
    16   10   11 1
    17   11   12 1
    18   11   21 1
    19   11   53 1
    20   12   13 1
    21   12   14 1
    22   12   54 1
    23   14   15 1
    24   14   20 1
    25   14   55 1
    26   15   16 1
    27   16   17 2
    28   16   18 1
    29   16   19 1
    30   20   21 1
    31   20   22 1
    32   20   56 1
    33   22   23 1
    34   22   57 1
    35   22   58 1
    36   23   24 1
    37   24   25 2
    38   24   26 1
    39   24   27 1
    40   27   28 1
    41   28   29 2
    42   28   30 1
    43   28   31 1
    44   31   33 1
    45   32   33 1
    46   32   34 1
    47   32   35 1
    48   32   36 1
    49   33   59 1
    50   33   60 1
    51   34   61 1
    52   34   62 1
    53   34   63 1
    54   35   64 1
    55   35   65 1
    56   35   66 1
    57   36   37 1
    58   36   38 1
    59   36   67 1
    60   37   68 1
    61   38   39 2
    62   38   40 am
    63   40   41 1
    64   40   69 1
    65   41   42 1
    66   41   70 1
    67   41   71 1
    68   42   43 1
    69   42   72 1
    70   42   73 1
    71   43   44 2
    72   43   45 am
    73   45   46 1
    74   45   74 1
    75   46   47 1
    76   46   75 1
    77   46   76 1
    78   47   48 1
    79   47   77 1
    80   47   78 1
    81   48   79 1
@<TRIPOS>SUBSTRUCTURE
     1 COA         1 GROUP 0 A     ****
@<TRIPOS>MOLECULE
[5-(6-aminopurin-9-yl)-2-[[[[3-hydroxy-2,2-dimethyl-4-oxo-4-[[3-oxo-3-(2-sulfanylethylamino)propyl]amino]butoxy]-oxido-phosphoryl]oxy-oxido-phosphoryl]oxymethyl]-4-oxido-tetrahydrofuran-3-yl] phosphate
   79    81     1     0     0
SMALL
USER_CHARGES

@<TRIPOS>ATOM
      1 N1A         6.1093    3.4221   -2.1706 N.ar      1 COA        -0.5260
      2 C2A         4.9028    3.1932   -1.5982 C.ar      1 COA         0.6629
      3 N3A         3.8250    2.5648   -2.1163 N.ar      1 COA        -0.5260
      4 C4A         4.0802    2.1492   -3.3659 C.ar      1 COA         0.5212
      5 C5A         5.2577    2.3095   -4.0788 C.ar      1 COA         0.0088
      6 C6A         6.2970    2.9741   -3.4353 C.ar      1 COA         0.5212
      7 N6A         7.5267    3.1813   -4.0834 N.pl3     1 COA        -0.6025
      8 N7A         5.1483    1.7539   -5.3288 N.2       1 COA        -0.4271
      9 C8A         3.9267    1.2647   -5.3749 C.ar      1 COA         0.5691
     10 N9A         3.2402    1.4796   -4.2093 N.pl3     1 COA        -0.5033
     11 C1B         1.8139    1.0528   -3.9225 C.3       1 COA         0.2693
     12 C2B         1.5441    0.0924   -2.7404 C.3       1 COA         0.2008
     13 O2B         1.6560   -1.1661   -3.1231 O.co2     1 COA        -0.1615
     14 C3B         0.0825    0.4469   -2.4241 C.3       1 COA         0.1111
     15 O3B        -0.8371   -0.0985   -3.3754 O.3       1 COA         0.1618
     16 P3B        -2.4169   -0.2494   -2.9382 P.3       1 COA        -1.1921
     17 O7A        -2.4022   -1.1842   -1.7323 O.co2     1 COA         0.3195
     18 O8A        -3.0660   -0.8511   -4.1810 O.co2     1 COA         0.3195
     19 O9A        -2.8748    1.1724   -2.6264 O.co2     1 COA         0.3195
     20 C4B         0.0646    1.9600   -2.6151 C.3       1 COA         0.1111
     21 O4B         1.0421    2.2460   -3.6341 O.3       1 COA        -0.1436
     22 C5B         0.4465    2.7364   -1.3618 C.3       1 COA         0.1504
     23 O5B         0.3986    4.1249   -1.6460 O.3       1 COA         0.1618
     24 P1A         0.7670    5.1936   -0.4641 P.3       1 COA        -1.1062
     25 O1A         1.1289    6.5260   -1.0837 O.co2     1 COA         0.3195
     26 O2A         1.6876    4.5161    0.5275 O.co2     1 COA         0.3195
     27 O3A        -0.6886    5.3125    0.2679 O.3       1 COA         0.4672
     28 P2A        -1.1429    6.2040    1.5594 P.3       1 COA        -1.1062
     29 O4A        -2.6377    6.0612    1.7476 O.co2     1 COA         0.3195
     30 O5A        -0.1888    5.9134    2.6974 O.co2     1 COA         0.3195
     31 O6A        -0.8065    7.6957    0.9792 O.3       1 COA         0.1618
     32 CBP        -1.0090    9.5771   -0.5793 C.3       1 COA         0.0000
     33 CCP        -1.4652    8.1470   -0.1994 C.3       1 COA         0.1504
     34 CDP         0.5182    9.5632   -0.8289 C.3       1 COA         0.1179
     35 CEP        -1.6888   10.0085   -1.8940 C.3       1 COA         0.1179
     36 CAP        -1.3149   10.5877    0.5658 C.3       1 COA         0.0611
     37 OAP        -0.8841   11.8921    0.1862 O.3       1 COA        -0.2728
     38 C9P        -2.7940   10.7032    0.9282 C.2       1 COA         0.3561
     39 O9P        -3.5554   11.4723    0.3443 O.2       1 COA        -0.2391
     40 N8P        -3.1652    9.8410    1.9474 N.am      1 COA        -0.1909
     41 C7P        -4.5178    9.7490    2.4468 C.3       1 COA         0.1160
     42 C6P        -5.4538    9.3366    1.3201 C.3       1 COA         0.0286
     43 C5P        -6.8965    9.2209    1.7785 C.2       1 COA         0.3561
     44 O5P        -7.2542    9.4371    2.9331 O.2       1 COA        -0.2391
     45 N4P        -7.7335    8.8444    0.7384 N.am      1 COA        -0.1909
     46 C3P        -9.1571    8.6598    0.9025 C.3       1 COA         0.1160
     47 C2P        -9.9484    9.9329    0.6515 C.3       1 COA         0.2607
     48 S1P       -11.7380    9.6859    0.8615 S.3       1 COA        -0.3539
     49 H2A         4.7878    3.5651   -0.5856 H         1 COA        -0.1369
     50 H61A        8.2460    3.7037   -3.6204 H         1 COA         0.2048
     51 H62A        7.6376    2.8871   -5.0353 H         1 COA         0.2048
     52 H8A         3.4866    0.7495   -6.2177 H         1 COA        -0.1292
     53 H1B         1.4348    0.6728   -4.9170 H         1 COA        -0.0393
     54 H2B         2.1376    0.4515   -1.8851 H         1 COA        -0.0393
     55 H3B        -0.2421    0.1333   -1.4258 H         1 COA        -0.0393
     56 H4B        -0.9063    2.3168   -2.9777 H         1 COA        -0.0393
     57 H51A        1.4605    2.4765   -1.0434 H         1 COA        -0.0393
     58 H52A       -0.2515    2.5189   -0.5478 H         1 COA        -0.0393
     59 H121       -1.2324    7.4355   -0.9984 H         1 COA        -0.0393
     60 H122       -2.5440    8.1138   -0.0133 H         1 COA        -0.0393
     61 H131        0.8796   10.5616   -1.1013 H         1 COA        -0.0393
     62 H132        0.7886    8.8842   -1.6454 H         1 COA        -0.0393
     63 H133        1.0681    9.2399    0.0618 H         1 COA        -0.0393
     64 H141       -1.3855   11.0192   -2.1904 H         1 COA        -0.0393
     65 H142       -2.7797   10.0132   -1.7903 H         1 COA        -0.0393
     66 H143       -1.4280    9.3402   -2.7211 H         1 COA        -0.0393
     67 H10        -0.7524   10.3112    1.4665 H         1 COA        -0.0393
     68 HO1        -1.3767   12.1229   -0.6167 H         1 COA         0.2010
     69 HN8        -2.4720    9.2197    2.3532 H         1 COA         0.0865
     70 H71        -4.5511    9.0203    3.2629 H         1 COA        -0.0393
     71 H72        -4.8150   10.7178    2.8608 H         1 COA        -0.0393
     72 H61        -5.1436    8.3681    0.9083 H         1 COA        -0.0393
     73 H62        -5.4079   10.0696    0.5049 H         1 COA        -0.0393
     74 HN4        -7.3273    8.6915   -0.1800 H         1 COA         0.0865
     75 H31        -9.4507    7.8952    0.1786 H         1 COA        -0.0393
     76 H32        -9.3252    8.2585    1.9052 H         1 COA        -0.0393
     77 H21        -9.6277   10.7341    1.3252 H         1 COA        -0.0393
     78 H22        -9.7789   10.2669   -0.3769 H         1 COA        -0.0393
     79 HS1       -11.6756    9.3046    2.1441 H         1 COA         0.1718
@<TRIPOS>BOND
     1    1    2 ar
     2    1    6 ar
     3    2    3 ar
     4    2   49 1
     5    3    4 ar
     6    4    5 ar
     7    4   10 ar
     8    5    6 ar
     9    5    8 ar
    10    6    7 1
    11    7   50 1
    12    7   51 1
    13    8    9 ar
    14    9   10 ar
    15    9   52 1
    16   10   11 1
    17   11   12 1
    18   11   21 1
    19   11   53 1
    20   12   13 1
    21   12   14 1
    22   12   54 1
    23   14   15 1
    24   14   20 1
    25   14   55 1
    26   15   16 1
    27   16   17 2
    28   16   18 1
    29   16   19 1
    30   20   21 1
    31   20   22 1
    32   20   56 1
    33   22   23 1
    34   22   57 1
    35   22   58 1
    36   23   24 1
    37   24   25 2
    38   24   26 1
    39   24   27 1
    40   27   28 1
    41   28   29 2
    42   28   30 1
    43   28   31 1
    44   31   33 1
    45   32   33 1
    46   32   34 1
    47   32   35 1
    48   32   36 1
    49   33   59 1
    50   33   60 1
    51   34   61 1
    52   34   62 1
    53   34   63 1
    54   35   64 1
    55   35   65 1
    56   35   66 1
    57   36   37 1
    58   36   38 1
    59   36   67 1
    60   37   68 1
    61   38   39 2
    62   38   40 am
    63   40   41 1
    64   40   69 1
    65   41   42 1
    66   41   70 1
    67   41   71 1
    68   42   43 1
    69   42   72 1
    70   42   73 1
    71   43   44 2
    72   43   45 am
    73   45   46 1
    74   45   74 1
    75   46   47 1
    76   46   75 1
    77   46   76 1
    78   47   48 1
    79   47   77 1
    80   47   78 1
    81   48   79 1
@<TRIPOS>SUBSTRUCTURE
     1 COA         1 GROUP 0 A     ****
@<TRIPOS>MOLECULE
[5-(6-aminopurin-9-yl)-2-[[[[3-hydroxy-2,2-dimethyl-4-oxo-4-[[3-oxo-3-(2-sulfanylethylamino)propyl]amino]butoxy]-oxido-phosphoryl]oxy-oxido-phosphoryl]oxymethyl]-4-oxido-tetrahydrofuran-3-yl] phosphate
   79    81     1     0     0
SMALL
USER_CHARGES

@<TRIPOS>ATOM
      1 N1A         6.3197    3.3711    0.1967 N.ar      1 COA        -0.5260
      2 C2A         5.0033    3.3256    0.5141 C.ar      1 COA         0.6629
      3 N3A         4.0730    2.4196    0.1418 N.ar      1 COA        -0.5260
      4 C4A         4.6208    1.4811   -0.6447 C.ar      1 COA         0.5212
      5 C5A         5.9423    1.3962   -1.0530 C.ar      1 COA         0.0088
      6 C6A         6.8050    2.3902   -0.6021 C.ar      1 COA         0.5212
      7 N6A         8.1621    2.3826   -0.9671 N.pl3     1 COA        -0.6025
      8 N7A         6.1335    0.2987   -1.8543 N.2       1 COA        -0.4271
      9 C8A         4.9500   -0.2731   -1.9316 C.ar      1 COA         0.5691
     10 N9A         4.0006    0.4065   -1.2155 N.pl3     1 COA        -0.5033
     11 C1B         2.5376    0.0288   -1.0907 C.3       1 COA         0.2693
     12 C2B         1.9579   -0.2640    0.3131 C.3       1 COA         0.2008
     13 O2B         2.1299   -1.5323    0.6368 O.co2     1 COA        -0.1615
     14 C3B         0.4729    0.0487    0.0699 C.3       1 COA         0.1111
     15 O3B        -0.1943   -0.9780   -0.6709 O.3       1 COA         0.1618
     16 P3B        -1.8364   -1.0586   -0.5907 P.3       1 COA        -1.1921
     17 O7A        -2.1459   -1.2889    0.8856 O.co2     1 COA         0.3195
     18 O8A        -2.1706   -2.2476   -1.4866 O.co2     1 COA         0.3195
     19 O9A        -2.3217    0.2823   -1.1335 O.co2     1 COA         0.3195
     20 C4B         0.5412    1.2713   -0.8394 C.3       1 COA         0.1111
     21 O4B         1.7485    1.1278   -1.6124 O.3       1 COA        -0.1436
     22 C5B         0.6184    2.5901   -0.0816 C.3       1 COA         0.1504
     23 O5B         0.6777    3.6562   -1.0149 O.3       1 COA         0.1618
     24 P1A         0.7670    5.1936   -0.4641 P.3       1 COA        -1.1062
     25 O1A         0.8194    6.1476   -1.6376 O.co2     1 COA         0.3195
     26 O2A         1.8029    5.2507    0.6375 O.co2     1 COA         0.3195
     27 O3A        -0.6886    5.3125    0.2679 O.3       1 COA         0.4672
     28 P2A        -1.1429    6.2040    1.5594 P.3       1 COA        -1.1062
     29 O4A        -2.6377    6.0612    1.7476 O.co2     1 COA         0.3195
     30 O5A        -0.1888    5.9134    2.6974 O.co2     1 COA         0.3195
     31 O6A        -0.8065    7.6957    0.9792 O.3       1 COA         0.1618
     32 CBP        -1.0090    9.5771   -0.5793 C.3       1 COA         0.0000
     33 CCP        -1.4652    8.1470   -0.1994 C.3       1 COA         0.1504
     34 CDP         0.5182    9.5632   -0.8289 C.3       1 COA         0.1179
     35 CEP        -1.6888   10.0085   -1.8940 C.3       1 COA         0.1179
     36 CAP        -1.3149   10.5877    0.5658 C.3       1 COA         0.0611
     37 OAP        -0.6287   10.1955    1.7518 O.3       1 COA        -0.2728
     38 C9P        -0.8916   12.0249    0.2699 C.2       1 COA         0.3561
     39 O9P         0.2422   12.4378    0.5067 O.2       1 COA        -0.2391
     40 N8P        -1.9050   12.7747   -0.3052 N.am      1 COA        -0.1909
     41 C7P        -1.7368   14.1547   -0.6986 C.3       1 COA         0.1160
     42 C6P        -2.1026   15.0674    0.4629 C.3       1 COA         0.0286
     43 C5P        -3.5409   14.8840    0.9130 C.2       1 COA         0.3561
     44 O5P        -4.4447   14.5448    0.1541 O.2       1 COA        -0.2391
     45 N4P        -3.6893   15.1482    2.2667 N.am      1 COA        -0.1909
     46 C3P        -4.9575   15.0511    2.9521 C.3       1 COA         0.1160
     47 C2P        -5.7346   16.3573    2.9400 C.3       1 COA         0.2607
     48 S1P        -4.8236   17.7098    3.7454 S.3       1 COA        -0.3539
     49 H2A         4.6492    4.1260    1.1552 H         1 COA        -0.1369
     50 H61A        8.7564    3.1335   -0.6708 H         1 COA         0.2048
     51 H62A        8.4991    1.6788   -1.5963 H         1 COA         0.2048
     52 H8A         4.7208   -1.1726   -2.4865 H         1 COA        -0.1292
     53 H1B         2.4085   -0.8200   -1.8256 H         1 COA        -0.0393
     54 H2B         2.3286    0.5212    0.9904 H         1 COA        -0.0393
     55 H3B        -0.0977    0.2245    0.9885 H         1 COA        -0.0393
     56 H4B        -0.2996    1.3083   -1.5416 H         1 COA        -0.0393
     57 H51A        1.5144    2.6204    0.5455 H         1 COA        -0.0393
     58 H52A       -0.2654    2.7227    0.5494 H         1 COA        -0.0393
     59 H121       -1.2324    7.4355   -0.9984 H         1 COA        -0.0393
     60 H122       -2.5440    8.1138   -0.0133 H         1 COA        -0.0393
     61 H131        0.8796   10.5616   -1.1013 H         1 COA        -0.0393
     62 H132        0.7886    8.8842   -1.6454 H         1 COA        -0.0393
     63 H133        1.0681    9.2399    0.0618 H         1 COA        -0.0393
     64 H141       -1.3855   11.0192   -2.1904 H         1 COA        -0.0393
     65 H142       -2.7797   10.0132   -1.7903 H         1 COA        -0.0393
     66 H143       -1.4280    9.3402   -2.7211 H         1 COA        -0.0393
     67 H10        -2.3880   10.5770    0.7950 H         1 COA        -0.0393
     68 HO1         0.3169   10.1957    1.5366 H         1 COA         0.2010
     69 HN8        -2.8042   12.3405   -0.4899 H         1 COA         0.0865
     70 H71        -0.6987   14.3172   -1.0054 H         1 COA        -0.0393
     71 H72        -2.3708   14.3611   -1.5667 H         1 COA        -0.0393
     72 H61        -1.9618   16.1170    0.1758 H         1 COA        -0.0393
     73 H62        -1.4448   14.8702    1.3186 H         1 COA        -0.0393
     74 HN4        -2.8695   15.4223    2.8001 H         1 COA         0.0865
     75 H31        -5.5279   14.2787    2.4296 H         1 COA        -0.0393
     76 H32        -4.7589   14.6967    3.9667 H         1 COA        -0.0393
     77 H21        -5.9743   16.6623    1.9162 H         1 COA        -0.0393
     78 H22        -6.6755   16.2229    3.4825 H         1 COA        -0.0393
     79 HS1        -4.7312   17.1198    4.9445 H         1 COA         0.1718
@<TRIPOS>BOND
     1    1    2 ar
     2    1    6 ar
     3    2    3 ar
     4    2   49 1
     5    3    4 ar
     6    4    5 ar
     7    4   10 ar
     8    5    6 ar
     9    5    8 ar
    10    6    7 1
    11    7   50 1
    12    7   51 1
    13    8    9 ar
    14    9   10 ar
    15    9   52 1
    16   10   11 1
    17   11   12 1
    18   11   21 1
    19   11   53 1
    20   12   13 1
    21   12   14 1
    22   12   54 1
    23   14   15 1
    24   14   20 1
    25   14   55 1
    26   15   16 1
    27   16   17 2
    28   16   18 1
    29   16   19 1
    30   20   21 1
    31   20   22 1
    32   20   56 1
    33   22   23 1
    34   22   57 1
    35   22   58 1
    36   23   24 1
    37   24   25 2
    38   24   26 1
    39   24   27 1
    40   27   28 1
    41   28   29 2
    42   28   30 1
    43   28   31 1
    44   31   33 1
    45   32   33 1
    46   32   34 1
    47   32   35 1
    48   32   36 1
    49   33   59 1
    50   33   60 1
    51   34   61 1
    52   34   62 1
    53   34   63 1
    54   35   64 1
    55   35   65 1
    56   35   66 1
    57   36   37 1
    58   36   38 1
    59   36   67 1
    60   37   68 1
    61   38   39 2
    62   38   40 am
    63   40   41 1
    64   40   69 1
    65   41   42 1
    66   41   70 1
    67   41   71 1
    68   42   43 1
    69   42   72 1
    70   42   73 1
    71   43   44 2
    72   43   45 am
    73   45   46 1
    74   45   74 1
    75   46   47 1
    76   46   75 1
    77   46   76 1
    78   47   48 1
    79   47   77 1
    80   47   78 1
    81   48   79 1
@<TRIPOS>SUBSTRUCTURE
     1 COA         1 GROUP 0 A     ****
@<TRIPOS>MOLECULE
[5-(6-aminopurin-9-yl)-2-[[[[3-hydroxy-2,2-dimethyl-4-oxo-4-[[3-oxo-3-(2-sulfanylethylamino)propyl]amino]butoxy]-oxido-phosphoryl]oxy-oxido-phosphoryl]oxymethyl]-4-oxido-tetrahydrofuran-3-yl] phosphate
   79    81     1     0     0
SMALL
USER_CHARGES

@<TRIPOS>ATOM
      1 N1A         5.7146    2.0302   -0.7890 N.ar      1 COA        -0.5260
      2 C2A         4.3962    2.1571   -0.5034 C.ar      1 COA         0.6629
      3 N3A         3.3299    1.7526   -1.2276 N.ar      1 COA        -0.5260
      4 C4A         3.7311    1.1587   -2.3614 C.ar      1 COA         0.5212
      5 C5A         5.0346    0.9576   -2.7868 C.ar      1 COA         0.0088
      6 C6A         6.0470    1.4195   -1.9517 C.ar      1 COA         0.5212
      7 N6A         7.3978    1.2581   -2.3043 N.pl3     1 COA        -0.6025
      8 N7A         5.0562    0.3154   -3.9993 N.2       1 COA        -0.4271
      9 C8A         3.7892    0.1293   -4.3054 C.ar      1 COA         0.5691
     10 N9A         2.9479    0.6234   -3.3440 N.pl3     1 COA        -0.5033
     11 C1B         1.4328    0.5815   -3.3775 C.3       1 COA         0.2693
     12 C2B         0.6799   -0.1567   -2.2458 C.3       1 COA         0.2008
     13 O2B         0.5449   -1.4388   -2.5302 O.co2     1 COA        -0.1615
     14 C3B        -0.6749    0.5672   -2.2968 C.3       1 COA         0.1111
     15 O3B        -1.4782    0.1594   -3.4088 O.3       1 COA         0.1618
     16 P3B        -3.0996    0.4363   -3.3454 P.3       1 COA        -1.1921
     17 O7A        -3.5828   -0.3425   -2.1254 O.co2     1 COA         0.3195
     18 O8A        -3.6001   -0.1211   -4.6746 O.co2     1 COA         0.3195
     19 O9A        -3.2339    1.9510   -3.2185 O.co2     1 COA         0.3195
     20 C4B        -0.2635    2.0121   -2.5599 C.3       1 COA         0.1111
     21 O4B         0.9490    1.9478   -3.3354 O.3       1 COA        -0.1436
     22 C5B         0.0275    2.8029   -1.2913 C.3       1 COA         0.1504
     23 O5B         0.3986    4.1249   -1.6460 O.3       1 COA         0.1618
     24 P1A         0.7670    5.1936   -0.4641 P.3       1 COA        -1.1062
     25 O1A         1.1289    6.5260   -1.0837 O.co2     1 COA         0.3195
     26 O2A         1.6876    4.5161    0.5275 O.co2     1 COA         0.3195
     27 O3A        -0.6886    5.3125    0.2679 O.3       1 COA         0.4672
     28 P2A        -1.1429    6.2040    1.5594 P.3       1 COA        -1.1062
     29 O4A        -2.6377    6.0612    1.7476 O.co2     1 COA         0.3195
     30 O5A        -0.1888    5.9134    2.6974 O.co2     1 COA         0.3195
     31 O6A        -0.8065    7.6957    0.9792 O.3       1 COA         0.1618
     32 CBP        -1.0090    9.5771   -0.5793 C.3       1 COA         0.0000
     33 CCP        -1.4652    8.1470   -0.1994 C.3       1 COA         0.1504
     34 CDP         0.5182    9.5632   -0.8289 C.3       1 COA         0.1179
     35 CEP        -1.6888   10.0085   -1.8940 C.3       1 COA         0.1179
     36 CAP        -1.3149   10.5877    0.5658 C.3       1 COA         0.0611
     37 OAP        -2.7163   10.6149    0.8239 O.3       1 COA        -0.2728
     38 C9P        -0.6314   10.2649    1.8928 C.2       1 COA         0.3561
     39 O9P        -1.1331    9.5097    2.7236 O.2       1 COA        -0.2391
     40 N8P         0.5984   10.8887    2.0282 N.am      1 COA        -0.1909
     41 C7P         1.4450   10.7163    3.1861 C.3       1 COA         0.1160
     42 C6P         1.1093   11.7726    4.2289 C.3       1 COA         0.0286
     43 C5P         1.3130   13.1846    3.7096 C.2       1 COA         0.3561
     44 O5P         2.1523   13.4742    2.8613 O.2       1 COA        -0.2391
     45 N4P         0.4426   14.0804    4.3129 N.am      1 COA        -0.1909
     46 C3P         0.4265   15.4913    4.0019 C.3       1 COA         0.1160
     47 C2P        -0.5216   15.8323    2.8638 C.3       1 COA         0.2607
     48 S1P        -2.2415   15.3744    3.2377 S.3       1 COA        -0.3539
     49 H2A         4.1666    2.6505    0.4351 H         1 COA        -0.1369
     50 H61A        8.1108    1.6399   -1.7121 H         1 COA         0.2048
     51 H62A        7.6305    0.8472   -3.1886 H         1 COA         0.2048
     52 H8A         3.4224   -0.3522   -5.2016 H         1 COA        -0.1292
     53 H1B         1.1905    0.2000   -4.4133 H         1 COA        -0.0393
     54 H2B         1.1486    0.1388   -1.2941 H         1 COA        -0.0393
     55 H3B        -1.2745    0.4471   -1.3878 H         1 COA        -0.0393
     56 H4B        -1.0100    2.5497   -3.1559 H         1 COA        -0.0393
     57 H51A        0.8489    2.3441   -0.7330 H         1 COA        -0.0393
     58 H52A       -0.8601    2.8452   -0.6531 H         1 COA        -0.0393
     59 H121       -1.2324    7.4355   -0.9984 H         1 COA        -0.0393
     60 H122       -2.5440    8.1138   -0.0133 H         1 COA        -0.0393
     61 H131        0.8796   10.5616   -1.1013 H         1 COA        -0.0393
     62 H132        0.7886    8.8842   -1.6454 H         1 COA        -0.0393
     63 H133        1.0681    9.2399    0.0618 H         1 COA        -0.0393
     64 H141       -1.3855   11.0192   -2.1904 H         1 COA        -0.0393
     65 H142       -2.7797   10.0132   -1.7903 H         1 COA        -0.0393
     66 H143       -1.4280    9.3402   -2.7211 H         1 COA        -0.0393
     67 H10        -1.0237   11.5996    0.2569 H         1 COA        -0.0393
     68 HO1        -2.9668    9.7148    1.0837 H         1 COA         0.2010
     69 HN8         0.9463   11.4752    1.2758 H         1 COA         0.0865
     70 H71         1.2973    9.7110    3.5932 H         1 COA        -0.0393
     71 H72         2.4931   10.7948    2.8803 H         1 COA        -0.0393
     72 H61         1.7381   11.6375    5.1178 H         1 COA        -0.0393
     73 H62         0.0644   11.6688    4.5472 H         1 COA        -0.0393
     74 HN4        -0.2130   13.7287    5.0045 H         1 COA         0.0865
     75 H31         0.1049   16.0008    4.9139 H         1 COA        -0.0393
     76 H32         1.4547   15.7950    3.7895 H         1 COA        -0.0393
     77 H21        -0.4900   16.9022    2.6335 H         1 COA        -0.0393
     78 H22        -0.2206   15.2834    1.9661 H         1 COA        -0.0393
     79 HS1        -2.0042   14.0662    3.4010 H         1 COA         0.1718
@<TRIPOS>BOND
     1    1    2 ar
     2    1    6 ar
     3    2    3 ar
     4    2   49 1
     5    3    4 ar
     6    4    5 ar
     7    4   10 ar
     8    5    6 ar
     9    5    8 ar
    10    6    7 1
    11    7   50 1
    12    7   51 1
    13    8    9 ar
    14    9   10 ar
    15    9   52 1
    16   10   11 1
    17   11   12 1
    18   11   21 1
    19   11   53 1
    20   12   13 1
    21   12   14 1
    22   12   54 1
    23   14   15 1
    24   14   20 1
    25   14   55 1
    26   15   16 1
    27   16   17 2
    28   16   18 1
    29   16   19 1
    30   20   21 1
    31   20   22 1
    32   20   56 1
    33   22   23 1
    34   22   57 1
    35   22   58 1
    36   23   24 1
    37   24   25 2
    38   24   26 1
    39   24   27 1
    40   27   28 1
    41   28   29 2
    42   28   30 1
    43   28   31 1
    44   31   33 1
    45   32   33 1
    46   32   34 1
    47   32   35 1
    48   32   36 1
    49   33   59 1
    50   33   60 1
    51   34   61 1
    52   34   62 1
    53   34   63 1
    54   35   64 1
    55   35   65 1
    56   35   66 1
    57   36   37 1
    58   36   38 1
    59   36   67 1
    60   37   68 1
    61   38   39 2
    62   38   40 am
    63   40   41 1
    64   40   69 1
    65   41   42 1
    66   41   70 1
    67   41   71 1
    68   42   43 1
    69   42   72 1
    70   42   73 1
    71   43   44 2
    72   43   45 am
    73   45   46 1
    74   45   74 1
    75   46   47 1
    76   46   75 1
    77   46   76 1
    78   47   48 1
    79   47   77 1
    80   47   78 1
    81   48   79 1
@<TRIPOS>SUBSTRUCTURE
     1 COA         1 GROUP 0 A     ****
@<TRIPOS>MOLECULE
[5-(6-aminopurin-9-yl)-2-[[[[3-hydroxy-2,2-dimethyl-4-oxo-4-[[3-oxo-3-(2-sulfanylethylamino)propyl]amino]butoxy]-oxido-phosphoryl]oxy-oxido-phosphoryl]oxymethyl]-4-oxido-tetrahydrofuran-3-yl] phosphate
   79    81     1     0     0
SMALL
USER_CHARGES

@<TRIPOS>ATOM
      1 N1A         6.3197    3.3711    0.1967 N.ar      1 COA        -0.5260
      2 C2A         5.0033    3.3256    0.5141 C.ar      1 COA         0.6629
      3 N3A         4.0730    2.4196    0.1418 N.ar      1 COA        -0.5260
      4 C4A         4.6208    1.4811   -0.6447 C.ar      1 COA         0.5212
      5 C5A         5.9423    1.3962   -1.0530 C.ar      1 COA         0.0088
      6 C6A         6.8050    2.3902   -0.6021 C.ar      1 COA         0.5212
      7 N6A         8.1621    2.3826   -0.9671 N.pl3     1 COA        -0.6025
      8 N7A         6.1335    0.2987   -1.8543 N.2       1 COA        -0.4271
      9 C8A         4.9500   -0.2731   -1.9316 C.ar      1 COA         0.5691
     10 N9A         4.0006    0.4065   -1.2155 N.pl3     1 COA        -0.5033
     11 C1B         2.5376    0.0288   -1.0907 C.3       1 COA         0.2693
     12 C2B         1.9579   -0.2640    0.3131 C.3       1 COA         0.2008
     13 O2B         2.1299   -1.5323    0.6368 O.co2     1 COA        -0.1615
     14 C3B         0.4729    0.0487    0.0699 C.3       1 COA         0.1111
     15 O3B        -0.1943   -0.9780   -0.6709 O.3       1 COA         0.1618
     16 P3B        -1.8364   -1.0586   -0.5907 P.3       1 COA        -1.1921
     17 O7A        -2.1459   -1.2889    0.8856 O.co2     1 COA         0.3195
     18 O8A        -2.1706   -2.2476   -1.4866 O.co2     1 COA         0.3195
     19 O9A        -2.3217    0.2823   -1.1335 O.co2     1 COA         0.3195
     20 C4B         0.5412    1.2713   -0.8394 C.3       1 COA         0.1111
     21 O4B         1.7485    1.1278   -1.6124 O.3       1 COA        -0.1436
     22 C5B         0.6184    2.5901   -0.0816 C.3       1 COA         0.1504
     23 O5B         0.6777    3.6562   -1.0149 O.3       1 COA         0.1618
     24 P1A         0.7670    5.1936   -0.4641 P.3       1 COA        -1.1062
     25 O1A         0.8194    6.1476   -1.6376 O.co2     1 COA         0.3195
     26 O2A         1.8029    5.2507    0.6375 O.co2     1 COA         0.3195
     27 O3A        -0.6886    5.3125    0.2679 O.3       1 COA         0.4672
     28 P2A        -1.1429    6.2040    1.5594 P.3       1 COA        -1.1062
     29 O4A        -2.6377    6.0612    1.7476 O.co2     1 COA         0.3195
     30 O5A        -0.1888    5.9134    2.6974 O.co2     1 COA         0.3195
     31 O6A        -0.8065    7.6957    0.9792 O.3       1 COA         0.1618
     32 CBP        -1.0090    9.5771   -0.5793 C.3       1 COA         0.0000
     33 CCP        -1.4652    8.1470   -0.1994 C.3       1 COA         0.1504
     34 CDP         0.5182    9.5632   -0.8289 C.3       1 COA         0.1179
     35 CEP        -1.6888   10.0085   -1.8940 C.3       1 COA         0.1179
     36 CAP        -1.3149   10.5877    0.5658 C.3       1 COA         0.0611
     37 OAP        -0.8841   11.8921    0.1862 O.3       1 COA        -0.2728
     38 C9P        -2.7940   10.7032    0.9282 C.2       1 COA         0.3561
     39 O9P        -3.6519   11.0028    0.0998 O.2       1 COA        -0.2391
     40 N8P        -3.0442   10.4114    2.2595 N.am      1 COA        -0.1909
     41 C7P        -4.3702   10.4275    2.8329 C.3       1 COA         0.1160
     42 C6P        -4.6799   11.8172    3.3701 C.3       1 COA         0.0286
     43 C5P        -3.7021   12.2534    4.4465 C.2       1 COA         0.3561
     44 O5P        -2.7707   11.5524    4.8326 O.2       1 COA        -0.2391
     45 N4P        -4.0006   13.5214    4.9233 N.am      1 COA        -0.1909
     46 C3P        -3.2282   14.1754    5.9544 C.3       1 COA         0.1160
     47 C2P        -2.0839   15.0051    5.3957 C.3       1 COA         0.2607
     48 S1P        -1.1208   15.8222    6.7043 S.3       1 COA        -0.3539
     49 H2A         4.6492    4.1260    1.1552 H         1 COA        -0.1369
     50 H61A        8.7564    3.1335   -0.6708 H         1 COA         0.2048
     51 H62A        8.4991    1.6788   -1.5963 H         1 COA         0.2048
     52 H8A         4.7208   -1.1726   -2.4865 H         1 COA        -0.1292
     53 H1B         2.4085   -0.8200   -1.8256 H         1 COA        -0.0393
     54 H2B         2.3286    0.5212    0.9904 H         1 COA        -0.0393
     55 H3B        -0.0977    0.2245    0.9885 H         1 COA        -0.0393
     56 H4B        -0.2996    1.3083   -1.5416 H         1 COA        -0.0393
     57 H51A        1.5144    2.6204    0.5455 H         1 COA        -0.0393
     58 H52A       -0.2654    2.7227    0.5494 H         1 COA        -0.0393
     59 H121       -1.2324    7.4355   -0.9984 H         1 COA        -0.0393
     60 H122       -2.5440    8.1138   -0.0133 H         1 COA        -0.0393
     61 H131        0.8796   10.5616   -1.1013 H         1 COA        -0.0393
     62 H132        0.7886    8.8842   -1.6454 H         1 COA        -0.0393
     63 H133        1.0681    9.2399    0.0618 H         1 COA        -0.0393
     64 H141       -1.3855   11.0192   -2.1904 H         1 COA        -0.0393
     65 H142       -2.7797   10.0132   -1.7903 H         1 COA        -0.0393
     66 H143       -1.4280    9.3402   -2.7211 H         1 COA        -0.0393
     67 H10        -0.7524   10.3112    1.4665 H         1 COA        -0.0393
     68 HO1        -1.3767   12.1229   -0.6167 H         1 COA         0.2010
     69 HN8        -2.2741   10.1459    2.8657 H         1 COA         0.0865
     70 H71        -5.0969   10.1388    2.0669 H         1 COA        -0.0393
     71 H72        -4.4250    9.6829    3.6333 H         1 COA        -0.0393
     72 H61        -5.6920   11.8406    3.7930 H         1 COA        -0.0393
     73 H62        -4.6475   12.5518    2.5557 H         1 COA        -0.0393
     74 HN4        -4.7981   14.0122    4.5298 H         1 COA         0.0865
     75 H31        -3.9249   14.8240    6.4919 H         1 COA        -0.0393
     76 H32        -2.8812   13.4044    6.6470 H         1 COA        -0.0393
     77 H21        -1.4046   14.3867    4.8001 H         1 COA        -0.0393
     78 H22        -2.4885   15.7869    4.7453 H         1 COA        -0.0393
     79 HS1        -2.1406   16.5325    7.2040 H         1 COA         0.1718
@<TRIPOS>BOND
     1    1    2 ar
     2    1    6 ar
     3    2    3 ar
     4    2   49 1
     5    3    4 ar
     6    4    5 ar
     7    4   10 ar
     8    5    6 ar
     9    5    8 ar
    10    6    7 1
    11    7   50 1
    12    7   51 1
    13    8    9 ar
    14    9   10 ar
    15    9   52 1
    16   10   11 1
    17   11   12 1
    18   11   21 1
    19   11   53 1
    20   12   13 1
    21   12   14 1
    22   12   54 1
    23   14   15 1
    24   14   20 1
    25   14   55 1
    26   15   16 1
    27   16   17 2
    28   16   18 1
    29   16   19 1
    30   20   21 1
    31   20   22 1
    32   20   56 1
    33   22   23 1
    34   22   57 1
    35   22   58 1
    36   23   24 1
    37   24   25 2
    38   24   26 1
    39   24   27 1
    40   27   28 1
    41   28   29 2
    42   28   30 1
    43   28   31 1
    44   31   33 1
    45   32   33 1
    46   32   34 1
    47   32   35 1
    48   32   36 1
    49   33   59 1
    50   33   60 1
    51   34   61 1
    52   34   62 1
    53   34   63 1
    54   35   64 1
    55   35   65 1
    56   35   66 1
    57   36   37 1
    58   36   38 1
    59   36   67 1
    60   37   68 1
    61   38   39 2
    62   38   40 am
    63   40   41 1
    64   40   69 1
    65   41   42 1
    66   41   70 1
    67   41   71 1
    68   42   43 1
    69   42   72 1
    70   42   73 1
    71   43   44 2
    72   43   45 am
    73   45   46 1
    74   45   74 1
    75   46   47 1
    76   46   75 1
    77   46   76 1
    78   47   48 1
    79   47   77 1
    80   47   78 1
    81   48   79 1
@<TRIPOS>SUBSTRUCTURE
     1 COA         1 GROUP 0 A     ****
@<TRIPOS>MOLECULE
[5-(6-aminopurin-9-yl)-2-[[[[3-hydroxy-2,2-dimethyl-4-oxo-4-[[3-oxo-3-(2-sulfanylethylamino)propyl]amino]butoxy]-oxido-phosphoryl]oxy-oxido-phosphoryl]oxymethyl]-4-oxido-tetrahydrofuran-3-yl] phosphate
   79    81     1     0     0
SMALL
USER_CHARGES

@<TRIPOS>ATOM
      1 N1A         6.3197    3.3711    0.1967 N.ar      1 COA        -0.5260
      2 C2A         5.0033    3.3256    0.5141 C.ar      1 COA         0.6629
      3 N3A         4.0730    2.4196    0.1418 N.ar      1 COA        -0.5260
      4 C4A         4.6208    1.4811   -0.6447 C.ar      1 COA         0.5212
      5 C5A         5.9423    1.3962   -1.0530 C.ar      1 COA         0.0088
      6 C6A         6.8050    2.3902   -0.6021 C.ar      1 COA         0.5212
      7 N6A         8.1621    2.3826   -0.9671 N.pl3     1 COA        -0.6025
      8 N7A         6.1335    0.2987   -1.8543 N.2       1 COA        -0.4271
      9 C8A         4.9500   -0.2731   -1.9316 C.ar      1 COA         0.5691
     10 N9A         4.0006    0.4065   -1.2155 N.pl3     1 COA        -0.5033
     11 C1B         2.5376    0.0288   -1.0907 C.3       1 COA         0.2693
     12 C2B         1.9579   -0.2640    0.3131 C.3       1 COA         0.2008
     13 O2B         2.1299   -1.5323    0.6368 O.co2     1 COA        -0.1615
     14 C3B         0.4729    0.0487    0.0699 C.3       1 COA         0.1111
     15 O3B        -0.1943   -0.9780   -0.6709 O.3       1 COA         0.1618
     16 P3B        -1.8364   -1.0586   -0.5907 P.3       1 COA        -1.1921
     17 O7A        -2.1459   -1.2889    0.8856 O.co2     1 COA         0.3195
     18 O8A        -2.1706   -2.2476   -1.4866 O.co2     1 COA         0.3195
     19 O9A        -2.3217    0.2823   -1.1335 O.co2     1 COA         0.3195
     20 C4B         0.5412    1.2713   -0.8394 C.3       1 COA         0.1111
     21 O4B         1.7485    1.1278   -1.6124 O.3       1 COA        -0.1436
     22 C5B         0.6184    2.5901   -0.0816 C.3       1 COA         0.1504
     23 O5B         0.6777    3.6562   -1.0149 O.3       1 COA         0.1618
     24 P1A         0.7670    5.1936   -0.4641 P.3       1 COA        -1.1062
     25 O1A         0.8194    6.1476   -1.6376 O.co2     1 COA         0.3195
     26 O2A         1.8029    5.2507    0.6375 O.co2     1 COA         0.3195
     27 O3A        -0.6886    5.3125    0.2679 O.3       1 COA         0.4672
     28 P2A        -1.1429    6.2040    1.5594 P.3       1 COA        -1.1062
     29 O4A        -2.6377    6.0612    1.7476 O.co2     1 COA         0.3195
     30 O5A        -0.1888    5.9134    2.6974 O.co2     1 COA         0.3195
     31 O6A        -0.8065    7.6957    0.9792 O.3       1 COA         0.1618
     32 CBP        -1.0090    9.5771   -0.5793 C.3       1 COA         0.0000
     33 CCP        -1.4652    8.1470   -0.1994 C.3       1 COA         0.1504
     34 CDP         0.5182    9.5632   -0.8289 C.3       1 COA         0.1179
     35 CEP        -1.6888   10.0085   -1.8940 C.3       1 COA         0.1179
     36 CAP        -1.3149   10.5877    0.5658 C.3       1 COA         0.0611
     37 OAP        -0.6287   10.1955    1.7518 O.3       1 COA        -0.2728
     38 C9P        -0.8916   12.0249    0.2699 C.2       1 COA         0.3561
     39 O9P         0.2422   12.4378    0.5067 O.2       1 COA        -0.2391
     40 N8P        -1.9050   12.7747   -0.3052 N.am      1 COA        -0.1909
     41 C7P        -1.7368   14.1547   -0.6986 C.3       1 COA         0.1160
     42 C6P        -1.9874   14.2964   -2.1929 C.3       1 COA         0.0286
     43 C5P        -1.8264   15.7273   -2.6741 C.2       1 COA         0.3561
     44 O5P        -1.5288   16.6573   -1.9296 O.2       1 COA        -0.2391
     45 N4P        -2.0586   15.8361   -4.0373 N.am      1 COA        -0.1909
     46 C3P        -1.9737   17.0891   -4.7516 C.3       1 COA         0.1160
     47 C2P        -3.2980   17.8341   -4.7924 C.3       1 COA         0.2607
     48 S1P        -4.6068   16.8710   -5.6091 S.3       1 COA        -0.3539
     49 H2A         4.6492    4.1260    1.1552 H         1 COA        -0.1369
     50 H61A        8.7564    3.1335   -0.6708 H         1 COA         0.2048
     51 H62A        8.4991    1.6788   -1.5963 H         1 COA         0.2048
     52 H8A         4.7208   -1.1726   -2.4865 H         1 COA        -0.1292
     53 H1B         2.4085   -0.8200   -1.8256 H         1 COA        -0.0393
     54 H2B         2.3286    0.5212    0.9904 H         1 COA        -0.0393
     55 H3B        -0.0977    0.2245    0.9885 H         1 COA        -0.0393
     56 H4B        -0.2996    1.3083   -1.5416 H         1 COA        -0.0393
     57 H51A        1.5144    2.6204    0.5455 H         1 COA        -0.0393
     58 H52A       -0.2654    2.7227    0.5494 H         1 COA        -0.0393
     59 H121       -1.2324    7.4355   -0.9984 H         1 COA        -0.0393
     60 H122       -2.5440    8.1138   -0.0133 H         1 COA        -0.0393
     61 H131        0.8796   10.5616   -1.1013 H         1 COA        -0.0393
     62 H132        0.7886    8.8842   -1.6454 H         1 COA        -0.0393
     63 H133        1.0681    9.2399    0.0618 H         1 COA        -0.0393
     64 H141       -1.3855   11.0192   -2.1904 H         1 COA        -0.0393
     65 H142       -2.7797   10.0132   -1.7903 H         1 COA        -0.0393
     66 H143       -1.4280    9.3402   -2.7211 H         1 COA        -0.0393
     67 H10        -2.3880   10.5770    0.7950 H         1 COA        -0.0393
     68 HO1         0.3169   10.1957    1.5366 H         1 COA         0.2010
     69 HN8        -2.8042   12.3405   -0.4899 H         1 COA         0.0865
     70 H71        -2.4332   14.7785   -0.1293 H         1 COA        -0.0393
     71 H72        -0.7231   14.4802   -0.4443 H         1 COA        -0.0393
     72 H61        -3.0031   13.9619   -2.4378 H         1 COA        -0.0393
     73 H62        -1.2890   13.6626   -2.7536 H         1 COA        -0.0393
     74 HN4        -2.2991   14.9970   -4.5569 H         1 COA         0.0865
     75 H31        -1.2291   17.6908   -4.2240 H         1 COA        -0.0393
     76 H32        -1.5883   16.8745   -5.7515 H         1 COA        -0.0393
     77 H21        -3.6353   18.0913   -3.7831 H         1 COA        -0.0393
     78 H22        -3.1718   18.7646   -5.3548 H         1 COA        -0.0393
     79 HS1        -3.9837   16.7638   -6.7900 H         1 COA         0.1718
@<TRIPOS>BOND
     1    1    2 ar
     2    1    6 ar
     3    2    3 ar
     4    2   49 1
     5    3    4 ar
     6    4    5 ar
     7    4   10 ar
     8    5    6 ar
     9    5    8 ar
    10    6    7 1
    11    7   50 1
    12    7   51 1
    13    8    9 ar
    14    9   10 ar
    15    9   52 1
    16   10   11 1
    17   11   12 1
    18   11   21 1
    19   11   53 1
    20   12   13 1
    21   12   14 1
    22   12   54 1
    23   14   15 1
    24   14   20 1
    25   14   55 1
    26   15   16 1
    27   16   17 2
    28   16   18 1
    29   16   19 1
    30   20   21 1
    31   20   22 1
    32   20   56 1
    33   22   23 1
    34   22   57 1
    35   22   58 1
    36   23   24 1
    37   24   25 2
    38   24   26 1
    39   24   27 1
    40   27   28 1
    41   28   29 2
    42   28   30 1
    43   28   31 1
    44   31   33 1
    45   32   33 1
    46   32   34 1
    47   32   35 1
    48   32   36 1
    49   33   59 1
    50   33   60 1
    51   34   61 1
    52   34   62 1
    53   34   63 1
    54   35   64 1
    55   35   65 1
    56   35   66 1
    57   36   37 1
    58   36   38 1
    59   36   67 1
    60   37   68 1
    61   38   39 2
    62   38   40 am
    63   40   41 1
    64   40   69 1
    65   41   42 1
    66   41   70 1
    67   41   71 1
    68   42   43 1
    69   42   72 1
    70   42   73 1
    71   43   44 2
    72   43   45 am
    73   45   46 1
    74   45   74 1
    75   46   47 1
    76   46   75 1
    77   46   76 1
    78   47   48 1
    79   47   77 1
    80   47   78 1
    81   48   79 1
@<TRIPOS>SUBSTRUCTURE
     1 COA         1 GROUP 0 A     ****
@<TRIPOS>MOLECULE
[5-(6-aminopurin-9-yl)-2-[[[[3-hydroxy-2,2-dimethyl-4-oxo-4-[[3-oxo-3-(2-sulfanylethylamino)propyl]amino]butoxy]-oxido-phosphoryl]oxy-oxido-phosphoryl]oxymethyl]-4-oxido-tetrahydrofuran-3-yl] phosphate
   79    81     1     0     0
SMALL
USER_CHARGES

@<TRIPOS>ATOM
      1 N1A         5.7146    2.0302   -0.7890 N.ar      1 COA        -0.5260
      2 C2A         4.3962    2.1571   -0.5034 C.ar      1 COA         0.6629
      3 N3A         3.3299    1.7526   -1.2276 N.ar      1 COA        -0.5260
      4 C4A         3.7311    1.1587   -2.3614 C.ar      1 COA         0.5212
      5 C5A         5.0346    0.9576   -2.7868 C.ar      1 COA         0.0088
      6 C6A         6.0470    1.4195   -1.9517 C.ar      1 COA         0.5212
      7 N6A         7.3978    1.2581   -2.3043 N.pl3     1 COA        -0.6025
      8 N7A         5.0562    0.3154   -3.9993 N.2       1 COA        -0.4271
      9 C8A         3.7892    0.1293   -4.3054 C.ar      1 COA         0.5691
     10 N9A         2.9479    0.6234   -3.3440 N.pl3     1 COA        -0.5033
     11 C1B         1.4328    0.5815   -3.3775 C.3       1 COA         0.2693
     12 C2B         0.6799   -0.1567   -2.2458 C.3       1 COA         0.2008
     13 O2B         0.5449   -1.4388   -2.5302 O.co2     1 COA        -0.1615
     14 C3B        -0.6749    0.5672   -2.2968 C.3       1 COA         0.1111
     15 O3B        -1.4782    0.1594   -3.4088 O.3       1 COA         0.1618
     16 P3B        -3.0996    0.4363   -3.3454 P.3       1 COA        -1.1921
     17 O7A        -3.5828   -0.3425   -2.1254 O.co2     1 COA         0.3195
     18 O8A        -3.6001   -0.1211   -4.6746 O.co2     1 COA         0.3195
     19 O9A        -3.2339    1.9510   -3.2185 O.co2     1 COA         0.3195
     20 C4B        -0.2635    2.0121   -2.5599 C.3       1 COA         0.1111
     21 O4B         0.9490    1.9478   -3.3354 O.3       1 COA        -0.1436
     22 C5B         0.0275    2.8029   -1.2913 C.3       1 COA         0.1504
     23 O5B         0.3986    4.1249   -1.6460 O.3       1 COA         0.1618
     24 P1A         0.7670    5.1936   -0.4641 P.3       1 COA        -1.1062
     25 O1A         1.1289    6.5260   -1.0837 O.co2     1 COA         0.3195
     26 O2A         1.6876    4.5161    0.5275 O.co2     1 COA         0.3195
     27 O3A        -0.6886    5.3125    0.2679 O.3       1 COA         0.4672
     28 P2A        -1.1429    6.2040    1.5594 P.3       1 COA        -1.1062
     29 O4A        -2.6377    6.0612    1.7476 O.co2     1 COA         0.3195
     30 O5A        -0.1888    5.9134    2.6974 O.co2     1 COA         0.3195
     31 O6A        -0.8065    7.6957    0.9792 O.3       1 COA         0.1618
     32 CBP        -1.0090    9.5771   -0.5793 C.3       1 COA         0.0000
     33 CCP        -1.4652    8.1470   -0.1994 C.3       1 COA         0.1504
     34 CDP         0.5182    9.5632   -0.8289 C.3       1 COA         0.1179
     35 CEP        -1.6888   10.0085   -1.8940 C.3       1 COA         0.1179
     36 CAP        -1.3149   10.5877    0.5658 C.3       1 COA         0.0611
     37 OAP        -0.8841   11.8921    0.1862 O.3       1 COA        -0.2728
     38 C9P        -2.7940   10.7032    0.9282 C.2       1 COA         0.3561
     39 O9P        -3.6570   10.0067    0.3969 O.2       1 COA        -0.2391
     40 N8P        -3.0315   11.6427    1.9186 N.am      1 COA        -0.1909
     41 C7P        -4.3486   11.9130    2.4473 C.3       1 COA         0.1160
     42 C6P        -5.0118   13.0149    1.6339 C.3       1 COA         0.0286
     43 C5P        -4.2232   14.3118    1.6641 C.2       1 COA         0.3561
     44 O5P        -3.5267   14.6530    2.6162 O.2       1 COA        -0.2391
     45 N4P        -4.3958   15.0411    0.4968 N.am      1 COA        -0.1909
     46 C3P        -3.7584   16.3169    0.2655 C.3       1 COA         0.1160
     47 C2P        -2.3982   16.1833   -0.3996 C.3       1 COA         0.2607
     48 S1P        -2.5000   15.3645   -2.0204 S.3       1 COA        -0.3539
     49 H2A         4.1666    2.6505    0.4351 H         1 COA        -0.1369
     50 H61A        8.1108    1.6399   -1.7121 H         1 COA         0.2048
     51 H62A        7.6305    0.8472   -3.1886 H         1 COA         0.2048
     52 H8A         3.4224   -0.3522   -5.2016 H         1 COA        -0.1292
     53 H1B         1.1905    0.2000   -4.4133 H         1 COA        -0.0393
     54 H2B         1.1486    0.1388   -1.2941 H         1 COA        -0.0393
     55 H3B        -1.2745    0.4471   -1.3878 H         1 COA        -0.0393
     56 H4B        -1.0100    2.5497   -3.1559 H         1 COA        -0.0393
     57 H51A        0.8489    2.3441   -0.7330 H         1 COA        -0.0393
     58 H52A       -0.8601    2.8452   -0.6531 H         1 COA        -0.0393
     59 H121       -1.2324    7.4355   -0.9984 H         1 COA        -0.0393
     60 H122       -2.5440    8.1138   -0.0133 H         1 COA        -0.0393
     61 H131        0.8796   10.5616   -1.1013 H         1 COA        -0.0393
     62 H132        0.7886    8.8842   -1.6454 H         1 COA        -0.0393
     63 H133        1.0681    9.2399    0.0618 H         1 COA        -0.0393
     64 H141       -1.3855   11.0192   -2.1904 H         1 COA        -0.0393
     65 H142       -2.7797   10.0132   -1.7903 H         1 COA        -0.0393
     66 H143       -1.4280    9.3402   -2.7211 H         1 COA        -0.0393
     67 H10        -0.7524   10.3112    1.4665 H         1 COA        -0.0393
     68 HO1        -1.3767   12.1229   -0.6167 H         1 COA         0.2010
     69 HN8        -2.2509   12.1532    2.3202 H         1 COA         0.0865
     70 H71        -4.9450   10.9957    2.4135 H         1 COA        -0.0393
     71 H72        -4.2610   12.2077    3.4979 H         1 COA        -0.0393
     72 H61        -6.0190   13.2142    2.0205 H         1 COA        -0.0393
     73 H62        -5.1181   12.6993    0.5884 H         1 COA        -0.0393
     74 HN4        -4.9974   14.6610   -0.2281 H         1 COA         0.0865
     75 H31        -4.4322   16.8808   -0.3849 H         1 COA        -0.0393
     76 H32        -3.7009   16.8368    1.2251 H         1 COA        -0.0393
     77 H21        -1.9294   17.1633   -0.5352 H         1 COA        -0.0393
     78 H22        -1.7431   15.5793    0.2358 H         1 COA        -0.0393
     79 HS1        -3.0193   14.2173   -1.5637 H         1 COA         0.1718
@<TRIPOS>BOND
     1    1    2 ar
     2    1    6 ar
     3    2    3 ar
     4    2   49 1
     5    3    4 ar
     6    4    5 ar
     7    4   10 ar
     8    5    6 ar
     9    5    8 ar
    10    6    7 1
    11    7   50 1
    12    7   51 1
    13    8    9 ar
    14    9   10 ar
    15    9   52 1
    16   10   11 1
    17   11   12 1
    18   11   21 1
    19   11   53 1
    20   12   13 1
    21   12   14 1
    22   12   54 1
    23   14   15 1
    24   14   20 1
    25   14   55 1
    26   15   16 1
    27   16   17 2
    28   16   18 1
    29   16   19 1
    30   20   21 1
    31   20   22 1
    32   20   56 1
    33   22   23 1
    34   22   57 1
    35   22   58 1
    36   23   24 1
    37   24   25 2
    38   24   26 1
    39   24   27 1
    40   27   28 1
    41   28   29 2
    42   28   30 1
    43   28   31 1
    44   31   33 1
    45   32   33 1
    46   32   34 1
    47   32   35 1
    48   32   36 1
    49   33   59 1
    50   33   60 1
    51   34   61 1
    52   34   62 1
    53   34   63 1
    54   35   64 1
    55   35   65 1
    56   35   66 1
    57   36   37 1
    58   36   38 1
    59   36   67 1
    60   37   68 1
    61   38   39 2
    62   38   40 am
    63   40   41 1
    64   40   69 1
    65   41   42 1
    66   41   70 1
    67   41   71 1
    68   42   43 1
    69   42   72 1
    70   42   73 1
    71   43   44 2
    72   43   45 am
    73   45   46 1
    74   45   74 1
    75   46   47 1
    76   46   75 1
    77   46   76 1
    78   47   48 1
    79   47   77 1
    80   47   78 1
    81   48   79 1
@<TRIPOS>SUBSTRUCTURE
     1 COA         1 GROUP 0 A     ****
@<TRIPOS>MOLECULE
[5-(6-aminopurin-9-yl)-2-[[[[3-hydroxy-2,2-dimethyl-4-oxo-4-[[3-oxo-3-(2-sulfanylethylamino)propyl]amino]butoxy]-oxido-phosphoryl]oxy-oxido-phosphoryl]oxymethyl]-4-oxido-tetrahydrofuran-3-yl] phosphate
   79    81     1     0     0
SMALL
USER_CHARGES

@<TRIPOS>ATOM
      1 N1A         5.7146    2.0302   -0.7890 N.ar      1 COA        -0.5260
      2 C2A         4.3962    2.1571   -0.5034 C.ar      1 COA         0.6629
      3 N3A         3.3299    1.7526   -1.2276 N.ar      1 COA        -0.5260
      4 C4A         3.7311    1.1587   -2.3614 C.ar      1 COA         0.5212
      5 C5A         5.0346    0.9576   -2.7868 C.ar      1 COA         0.0088
      6 C6A         6.0470    1.4195   -1.9517 C.ar      1 COA         0.5212
      7 N6A         7.3978    1.2581   -2.3043 N.pl3     1 COA        -0.6025
      8 N7A         5.0562    0.3154   -3.9993 N.2       1 COA        -0.4271
      9 C8A         3.7892    0.1293   -4.3054 C.ar      1 COA         0.5691
     10 N9A         2.9479    0.6234   -3.3440 N.pl3     1 COA        -0.5033
     11 C1B         1.4328    0.5815   -3.3775 C.3       1 COA         0.2693
     12 C2B         0.6799   -0.1567   -2.2458 C.3       1 COA         0.2008
     13 O2B         0.5449   -1.4388   -2.5302 O.co2     1 COA        -0.1615
     14 C3B        -0.6749    0.5672   -2.2968 C.3       1 COA         0.1111
     15 O3B        -1.4782    0.1594   -3.4088 O.3       1 COA         0.1618
     16 P3B        -3.0996    0.4363   -3.3454 P.3       1 COA        -1.1921
     17 O7A        -3.5828   -0.3425   -2.1254 O.co2     1 COA         0.3195
     18 O8A        -3.6001   -0.1211   -4.6746 O.co2     1 COA         0.3195
     19 O9A        -3.2339    1.9510   -3.2185 O.co2     1 COA         0.3195
     20 C4B        -0.2635    2.0121   -2.5599 C.3       1 COA         0.1111
     21 O4B         0.9490    1.9478   -3.3354 O.3       1 COA        -0.1436
     22 C5B         0.0275    2.8029   -1.2913 C.3       1 COA         0.1504
     23 O5B         0.3986    4.1249   -1.6460 O.3       1 COA         0.1618
     24 P1A         0.7670    5.1936   -0.4641 P.3       1 COA        -1.1062
     25 O1A         1.1289    6.5260   -1.0837 O.co2     1 COA         0.3195
     26 O2A         1.6876    4.5161    0.5275 O.co2     1 COA         0.3195
     27 O3A        -0.6886    5.3125    0.2679 O.3       1 COA         0.4672
     28 P2A        -1.1429    6.2040    1.5594 P.3       1 COA        -1.1062
     29 O4A        -2.6377    6.0612    1.7476 O.co2     1 COA         0.3195
     30 O5A        -0.1888    5.9134    2.6974 O.co2     1 COA         0.3195
     31 O6A        -0.8065    7.6957    0.9792 O.3       1 COA         0.1618
     32 CBP        -1.0090    9.5771   -0.5793 C.3       1 COA         0.0000
     33 CCP        -1.4652    8.1470   -0.1994 C.3       1 COA         0.1504
     34 CDP         0.5182    9.5632   -0.8289 C.3       1 COA         0.1179
     35 CEP        -1.6888   10.0085   -1.8940 C.3       1 COA         0.1179
     36 CAP        -1.3149   10.5877    0.5658 C.3       1 COA         0.0611
     37 OAP        -0.3519   11.6382    0.5524 O.3       1 COA        -0.2728
     38 C9P        -2.6876   11.2507    0.4734 C.2       1 COA         0.3561
     39 O9P        -2.8806   12.2731   -0.1822 O.2       1 COA        -0.2391
     40 N8P        -3.6636   10.5632    1.1768 N.am      1 COA        -0.1909
     41 C7P        -5.0458   10.9816    1.2180 C.3       1 COA         0.1160
     42 C6P        -5.8119   10.3347    0.0732 C.3       1 COA         0.0286
     43 C5P        -7.2766   10.7336    0.0579 C.2       1 COA         0.3561
     44 O5P        -7.7751   11.4930    0.8842 O.2       1 COA        -0.2391
     45 N4P        -7.9575   10.1345   -0.9917 N.am      1 COA        -0.1909
     46 C3P        -9.3662   10.3429   -1.2357 C.3       1 COA         0.1160
     47 C2P       -10.2442    9.3341   -0.5134 C.3       1 COA         0.2607
     48 S1P        -9.8885    7.6234   -1.0180 S.3       1 COA        -0.3539
     49 H2A         4.1666    2.6505    0.4351 H         1 COA        -0.1369
     50 H61A        8.1108    1.6399   -1.7121 H         1 COA         0.2048
     51 H62A        7.6305    0.8472   -3.1886 H         1 COA         0.2048
     52 H8A         3.4224   -0.3522   -5.2016 H         1 COA        -0.1292
     53 H1B         1.1905    0.2000   -4.4133 H         1 COA        -0.0393
     54 H2B         1.1486    0.1388   -1.2941 H         1 COA        -0.0393
     55 H3B        -1.2745    0.4471   -1.3878 H         1 COA        -0.0393
     56 H4B        -1.0100    2.5497   -3.1559 H         1 COA        -0.0393
     57 H51A        0.8489    2.3441   -0.7330 H         1 COA        -0.0393
     58 H52A       -0.8601    2.8452   -0.6531 H         1 COA        -0.0393
     59 H121       -1.2324    7.4355   -0.9984 H         1 COA        -0.0393
     60 H122       -2.5440    8.1138   -0.0133 H         1 COA        -0.0393
     61 H131        0.8796   10.5616   -1.1013 H         1 COA        -0.0393
     62 H132        0.7886    8.8842   -1.6454 H         1 COA        -0.0393
     63 H133        1.0681    9.2399    0.0618 H         1 COA        -0.0393
     64 H141       -1.3855   11.0192   -2.1904 H         1 COA        -0.0393
     65 H142       -2.7797   10.0132   -1.7903 H         1 COA        -0.0393
     66 H143       -1.4280    9.3402   -2.7211 H         1 COA        -0.0393
     67 H10        -1.2314   10.0854    1.5378 H         1 COA        -0.0393
     68 HO1        -0.4241   12.0681   -0.3139 H         1 COA         0.2010
     69 HN8        -3.4169    9.7096    1.6684 H         1 COA         0.0865
     70 H71        -5.4791   10.6972    2.1821 H         1 COA        -0.0393
     71 H72        -5.0936   12.0728    1.1469 H         1 COA        -0.0393
     72 H61        -5.7524    9.2419    0.1503 H         1 COA        -0.0393
     73 H62        -5.3658   10.6206   -0.8876 H         1 COA        -0.0393
     74 HN4        -7.4425    9.5215   -1.6169 H         1 COA         0.0865
     75 H31        -9.5918   11.3506   -0.8769 H         1 COA        -0.0393
     76 H32        -9.5206   10.3267   -2.3175 H         1 COA        -0.0393
     77 H21       -10.1177    9.4089    0.5715 H         1 COA        -0.0393
     78 H22       -11.2942    9.5365   -0.7468 H         1 COA        -0.0393
     79 HS1        -8.6050    7.6300   -0.6349 H         1 COA         0.1718
@<TRIPOS>BOND
     1    1    2 ar
     2    1    6 ar
     3    2    3 ar
     4    2   49 1
     5    3    4 ar
     6    4    5 ar
     7    4   10 ar
     8    5    6 ar
     9    5    8 ar
    10    6    7 1
    11    7   50 1
    12    7   51 1
    13    8    9 ar
    14    9   10 ar
    15    9   52 1
    16   10   11 1
    17   11   12 1
    18   11   21 1
    19   11   53 1
    20   12   13 1
    21   12   14 1
    22   12   54 1
    23   14   15 1
    24   14   20 1
    25   14   55 1
    26   15   16 1
    27   16   17 2
    28   16   18 1
    29   16   19 1
    30   20   21 1
    31   20   22 1
    32   20   56 1
    33   22   23 1
    34   22   57 1
    35   22   58 1
    36   23   24 1
    37   24   25 2
    38   24   26 1
    39   24   27 1
    40   27   28 1
    41   28   29 2
    42   28   30 1
    43   28   31 1
    44   31   33 1
    45   32   33 1
    46   32   34 1
    47   32   35 1
    48   32   36 1
    49   33   59 1
    50   33   60 1
    51   34   61 1
    52   34   62 1
    53   34   63 1
    54   35   64 1
    55   35   65 1
    56   35   66 1
    57   36   37 1
    58   36   38 1
    59   36   67 1
    60   37   68 1
    61   38   39 2
    62   38   40 am
    63   40   41 1
    64   40   69 1
    65   41   42 1
    66   41   70 1
    67   41   71 1
    68   42   43 1
    69   42   72 1
    70   42   73 1
    71   43   44 2
    72   43   45 am
    73   45   46 1
    74   45   74 1
    75   46   47 1
    76   46   75 1
    77   46   76 1
    78   47   48 1
    79   47   77 1
    80   47   78 1
    81   48   79 1
@<TRIPOS>SUBSTRUCTURE
     1 COA         1 GROUP 0 A     ****
@<TRIPOS>MOLECULE
[5-(6-aminopurin-9-yl)-2-[[[[3-hydroxy-2,2-dimethyl-4-oxo-4-[[3-oxo-3-(2-sulfanylethylamino)propyl]amino]butoxy]-oxido-phosphoryl]oxy-oxido-phosphoryl]oxymethyl]-4-oxido-tetrahydrofuran-3-yl] phosphate
   79    81     1     0     0
SMALL
USER_CHARGES

@<TRIPOS>ATOM
      1 N1A         5.7146    2.0302   -0.7890 N.ar      1 COA        -0.5260
      2 C2A         4.3962    2.1571   -0.5034 C.ar      1 COA         0.6629
      3 N3A         3.3299    1.7526   -1.2276 N.ar      1 COA        -0.5260
      4 C4A         3.7311    1.1587   -2.3614 C.ar      1 COA         0.5212
      5 C5A         5.0346    0.9576   -2.7868 C.ar      1 COA         0.0088
      6 C6A         6.0470    1.4195   -1.9517 C.ar      1 COA         0.5212
      7 N6A         7.3978    1.2581   -2.3043 N.pl3     1 COA        -0.6025
      8 N7A         5.0562    0.3154   -3.9993 N.2       1 COA        -0.4271
      9 C8A         3.7892    0.1293   -4.3054 C.ar      1 COA         0.5691
     10 N9A         2.9479    0.6234   -3.3440 N.pl3     1 COA        -0.5033
     11 C1B         1.4328    0.5815   -3.3775 C.3       1 COA         0.2693
     12 C2B         0.6799   -0.1567   -2.2458 C.3       1 COA         0.2008
     13 O2B         0.5449   -1.4388   -2.5302 O.co2     1 COA        -0.1615
     14 C3B        -0.6749    0.5672   -2.2968 C.3       1 COA         0.1111
     15 O3B        -1.4782    0.1594   -3.4088 O.3       1 COA         0.1618
     16 P3B        -3.0996    0.4363   -3.3454 P.3       1 COA        -1.1921
     17 O7A        -3.5828   -0.3425   -2.1254 O.co2     1 COA         0.3195
     18 O8A        -3.6001   -0.1211   -4.6746 O.co2     1 COA         0.3195
     19 O9A        -3.2339    1.9510   -3.2185 O.co2     1 COA         0.3195
     20 C4B        -0.2635    2.0121   -2.5599 C.3       1 COA         0.1111
     21 O4B         0.9490    1.9478   -3.3354 O.3       1 COA        -0.1436
     22 C5B         0.0275    2.8029   -1.2913 C.3       1 COA         0.1504
     23 O5B         0.3986    4.1249   -1.6460 O.3       1 COA         0.1618
     24 P1A         0.7670    5.1936   -0.4641 P.3       1 COA        -1.1062
     25 O1A         1.1289    6.5260   -1.0837 O.co2     1 COA         0.3195
     26 O2A         1.6876    4.5161    0.5275 O.co2     1 COA         0.3195
     27 O3A        -0.6886    5.3125    0.2679 O.3       1 COA         0.4672
     28 P2A        -1.1429    6.2040    1.5594 P.3       1 COA        -1.1062
     29 O4A        -2.6377    6.0612    1.7476 O.co2     1 COA         0.3195
     30 O5A        -0.1888    5.9134    2.6974 O.co2     1 COA         0.3195
     31 O6A        -0.8065    7.6957    0.9792 O.3       1 COA         0.1618
     32 CBP        -1.0090    9.5771   -0.5793 C.3       1 COA         0.0000
     33 CCP        -1.4652    8.1470   -0.1994 C.3       1 COA         0.1504
     34 CDP         0.5182    9.5632   -0.8289 C.3       1 COA         0.1179
     35 CEP        -1.6888   10.0085   -1.8940 C.3       1 COA         0.1179
     36 CAP        -1.3149   10.5877    0.5658 C.3       1 COA         0.0611
     37 OAP        -0.8841   11.8921    0.1862 O.3       1 COA        -0.2728
     38 C9P        -2.7940   10.7032    0.9282 C.2       1 COA         0.3561
     39 O9P        -3.6891   10.4664    0.1190 O.2       1 COA        -0.2391
     40 N8P        -2.9952   11.0709    2.2489 N.am      1 COA        -0.1909
     41 C7P        -4.3082   11.2196    2.8331 C.3       1 COA         0.1160
     42 C6P        -4.7588    9.8929    3.4269 C.3       1 COA         0.0286
     43 C5P        -3.8205    9.3954    4.5118 C.2       1 COA         0.3561
     44 O5P        -3.1669   10.1458    5.2312 O.2       1 COA        -0.2391
     45 N4P        -3.8026    8.0098    4.5747 N.am      1 COA        -0.1909
     46 C3P        -2.9915    7.2762    5.5188 C.3       1 COA         0.1160
     47 C2P        -3.7127    7.0058    6.8291 C.3       1 COA         0.2607
     48 S1P        -2.6802    6.0821    8.0074 S.3       1 COA        -0.3539
     49 H2A         4.1666    2.6505    0.4351 H         1 COA        -0.1369
     50 H61A        8.1108    1.6399   -1.7121 H         1 COA         0.2048
     51 H62A        7.6305    0.8472   -3.1886 H         1 COA         0.2048
     52 H8A         3.4224   -0.3522   -5.2016 H         1 COA        -0.1292
     53 H1B         1.1905    0.2000   -4.4133 H         1 COA        -0.0393
     54 H2B         1.1486    0.1388   -1.2941 H         1 COA        -0.0393
     55 H3B        -1.2745    0.4471   -1.3878 H         1 COA        -0.0393
     56 H4B        -1.0100    2.5497   -3.1559 H         1 COA        -0.0393
     57 H51A        0.8489    2.3441   -0.7330 H         1 COA        -0.0393
     58 H52A       -0.8601    2.8452   -0.6531 H         1 COA        -0.0393
     59 H121       -1.2324    7.4355   -0.9984 H         1 COA        -0.0393
     60 H122       -2.5440    8.1138   -0.0133 H         1 COA        -0.0393
     61 H131        0.8796   10.5616   -1.1013 H         1 COA        -0.0393
     62 H132        0.7886    8.8842   -1.6454 H         1 COA        -0.0393
     63 H133        1.0681    9.2399    0.0618 H         1 COA        -0.0393
     64 H141       -1.3855   11.0192   -2.1904 H         1 COA        -0.0393
     65 H142       -2.7797   10.0132   -1.7903 H         1 COA        -0.0393
     66 H143       -1.4280    9.3402   -2.7211 H         1 COA        -0.0393
     67 H10        -0.7524   10.3112    1.4665 H         1 COA        -0.0393
     68 HO1        -1.3767   12.1229   -0.6167 H         1 COA         0.2010
     69 HN8        -2.1931   11.2196    2.8537 H         1 COA         0.0865
     70 H71        -4.2731   11.9958    3.6041 H         1 COA        -0.0393
     71 H72        -5.0090   11.5556    2.0622 H         1 COA        -0.0393
     72 H61        -4.8150    9.1286    2.6418 H         1 COA        -0.0393
     73 H62        -5.7626    9.9948    3.8582 H         1 COA        -0.0393
     74 HN4        -4.3862    7.4873    3.9279 H         1 COA         0.0865
     75 H31        -2.7413    6.3288    5.0342 H         1 COA        -0.0393
     76 H32        -2.0645    7.8367    5.6642 H         1 COA        -0.0393
     77 H21        -4.0286    7.9405    7.3037 H         1 COA        -0.0393
     78 H22        -4.6071    6.4066    6.6323 H         1 COA        -0.0393
     79 HS1        -1.7024    6.9948    8.0800 H         1 COA         0.1718
@<TRIPOS>BOND
     1    1    2 ar
     2    1    6 ar
     3    2    3 ar
     4    2   49 1
     5    3    4 ar
     6    4    5 ar
     7    4   10 ar
     8    5    6 ar
     9    5    8 ar
    10    6    7 1
    11    7   50 1
    12    7   51 1
    13    8    9 ar
    14    9   10 ar
    15    9   52 1
    16   10   11 1
    17   11   12 1
    18   11   21 1
    19   11   53 1
    20   12   13 1
    21   12   14 1
    22   12   54 1
    23   14   15 1
    24   14   20 1
    25   14   55 1
    26   15   16 1
    27   16   17 2
    28   16   18 1
    29   16   19 1
    30   20   21 1
    31   20   22 1
    32   20   56 1
    33   22   23 1
    34   22   57 1
    35   22   58 1
    36   23   24 1
    37   24   25 2
    38   24   26 1
    39   24   27 1
    40   27   28 1
    41   28   29 2
    42   28   30 1
    43   28   31 1
    44   31   33 1
    45   32   33 1
    46   32   34 1
    47   32   35 1
    48   32   36 1
    49   33   59 1
    50   33   60 1
    51   34   61 1
    52   34   62 1
    53   34   63 1
    54   35   64 1
    55   35   65 1
    56   35   66 1
    57   36   37 1
    58   36   38 1
    59   36   67 1
    60   37   68 1
    61   38   39 2
    62   38   40 am
    63   40   41 1
    64   40   69 1
    65   41   42 1
    66   41   70 1
    67   41   71 1
    68   42   43 1
    69   42   72 1
    70   42   73 1
    71   43   44 2
    72   43   45 am
    73   45   46 1
    74   45   74 1
    75   46   47 1
    76   46   75 1
    77   46   76 1
    78   47   48 1
    79   47   77 1
    80   47   78 1
    81   48   79 1
@<TRIPOS>SUBSTRUCTURE
     1 COA         1 GROUP 0 A     ****
@<TRIPOS>MOLECULE
[5-(6-aminopurin-9-yl)-2-[[[[3-hydroxy-2,2-dimethyl-4-oxo-4-[[3-oxo-3-(2-sulfanylethylamino)propyl]amino]butoxy]-oxido-phosphoryl]oxy-oxido-phosphoryl]oxymethyl]-4-oxido-tetrahydrofuran-3-yl] phosphate
   79    81     1     0     0
SMALL
USER_CHARGES

@<TRIPOS>ATOM
      1 N1A         6.3197    3.3711    0.1967 N.ar      1 COA        -0.5260
      2 C2A         5.0033    3.3256    0.5141 C.ar      1 COA         0.6629
      3 N3A         4.0730    2.4196    0.1418 N.ar      1 COA        -0.5260
      4 C4A         4.6208    1.4811   -0.6447 C.ar      1 COA         0.5212
      5 C5A         5.9423    1.3962   -1.0530 C.ar      1 COA         0.0088
      6 C6A         6.8050    2.3902   -0.6021 C.ar      1 COA         0.5212
      7 N6A         8.1621    2.3826   -0.9671 N.pl3     1 COA        -0.6025
      8 N7A         6.1335    0.2987   -1.8543 N.2       1 COA        -0.4271
      9 C8A         4.9500   -0.2731   -1.9316 C.ar      1 COA         0.5691
     10 N9A         4.0006    0.4065   -1.2155 N.pl3     1 COA        -0.5033
     11 C1B         2.5376    0.0288   -1.0907 C.3       1 COA         0.2693
     12 C2B         1.9579   -0.2640    0.3131 C.3       1 COA         0.2008
     13 O2B         2.1299   -1.5323    0.6368 O.co2     1 COA        -0.1615
     14 C3B         0.4729    0.0487    0.0699 C.3       1 COA         0.1111
     15 O3B        -0.1943   -0.9780   -0.6709 O.3       1 COA         0.1618
     16 P3B        -1.8364   -1.0586   -0.5907 P.3       1 COA        -1.1921
     17 O7A        -2.1459   -1.2889    0.8856 O.co2     1 COA         0.3195
     18 O8A        -2.1706   -2.2476   -1.4866 O.co2     1 COA         0.3195
     19 O9A        -2.3217    0.2823   -1.1335 O.co2     1 COA         0.3195
     20 C4B         0.5412    1.2713   -0.8394 C.3       1 COA         0.1111
     21 O4B         1.7485    1.1278   -1.6124 O.3       1 COA        -0.1436
     22 C5B         0.6184    2.5901   -0.0816 C.3       1 COA         0.1504
     23 O5B         0.6777    3.6562   -1.0149 O.3       1 COA         0.1618
     24 P1A         0.7670    5.1936   -0.4641 P.3       1 COA        -1.1062
     25 O1A         0.8194    6.1476   -1.6376 O.co2     1 COA         0.3195
     26 O2A         1.8029    5.2507    0.6375 O.co2     1 COA         0.3195
     27 O3A        -0.6886    5.3125    0.2679 O.3       1 COA         0.4672
     28 P2A        -1.1429    6.2040    1.5594 P.3       1 COA        -1.1062
     29 O4A        -2.6377    6.0612    1.7476 O.co2     1 COA         0.3195
     30 O5A        -0.1888    5.9134    2.6974 O.co2     1 COA         0.3195
     31 O6A        -0.8065    7.6957    0.9792 O.3       1 COA         0.1618
     32 CBP        -1.0090    9.5771   -0.5793 C.3       1 COA         0.0000
     33 CCP        -1.4652    8.1470   -0.1994 C.3       1 COA         0.1504
     34 CDP         0.5182    9.5632   -0.8289 C.3       1 COA         0.1179
     35 CEP        -1.6888   10.0085   -1.8940 C.3       1 COA         0.1179
     36 CAP        -1.3149   10.5877    0.5658 C.3       1 COA         0.0611
     37 OAP        -0.3519   11.6382    0.5524 O.3       1 COA        -0.2728
     38 C9P        -2.6876   11.2507    0.4734 C.2       1 COA         0.3561
     39 O9P        -2.8806   12.2731   -0.1822 O.2       1 COA        -0.2391
     40 N8P        -3.6636   10.5632    1.1768 N.am      1 COA        -0.1909
     41 C7P        -5.0458   10.9816    1.2180 C.3       1 COA         0.1160
     42 C6P        -5.8119   10.3347    0.0732 C.3       1 COA         0.0286
     43 C5P        -7.2766   10.7336    0.0579 C.2       1 COA         0.3561
     44 O5P        -7.7751   11.4930    0.8842 O.2       1 COA        -0.2391
     45 N4P        -7.9575   10.1345   -0.9917 N.am      1 COA        -0.1909
     46 C3P        -9.3662   10.3429   -1.2357 C.3       1 COA         0.1160
     47 C2P        -9.6359   11.5216   -2.1567 C.3       1 COA         0.2607
     48 S1P        -8.8626   11.3126   -3.7895 S.3       1 COA        -0.3539
     49 H2A         4.6492    4.1260    1.1552 H         1 COA        -0.1369
     50 H61A        8.7564    3.1335   -0.6708 H         1 COA         0.2048
     51 H62A        8.4991    1.6788   -1.5963 H         1 COA         0.2048
     52 H8A         4.7208   -1.1726   -2.4865 H         1 COA        -0.1292
     53 H1B         2.4085   -0.8200   -1.8256 H         1 COA        -0.0393
     54 H2B         2.3286    0.5212    0.9904 H         1 COA        -0.0393
     55 H3B        -0.0977    0.2245    0.9885 H         1 COA        -0.0393
     56 H4B        -0.2996    1.3083   -1.5416 H         1 COA        -0.0393
     57 H51A        1.5144    2.6204    0.5455 H         1 COA        -0.0393
     58 H52A       -0.2654    2.7227    0.5494 H         1 COA        -0.0393
     59 H121       -1.2324    7.4355   -0.9984 H         1 COA        -0.0393
     60 H122       -2.5440    8.1138   -0.0133 H         1 COA        -0.0393
     61 H131        0.8796   10.5616   -1.1013 H         1 COA        -0.0393
     62 H132        0.7886    8.8842   -1.6454 H         1 COA        -0.0393
     63 H133        1.0681    9.2399    0.0618 H         1 COA        -0.0393
     64 H141       -1.3855   11.0192   -2.1904 H         1 COA        -0.0393
     65 H142       -2.7797   10.0132   -1.7903 H         1 COA        -0.0393
     66 H143       -1.4280    9.3402   -2.7211 H         1 COA        -0.0393
     67 H10        -1.2314   10.0854    1.5378 H         1 COA        -0.0393
     68 HO1        -0.4241   12.0681   -0.3139 H         1 COA         0.2010
     69 HN8        -3.4169    9.7096    1.6684 H         1 COA         0.0865
     70 H71        -5.4791   10.6972    2.1821 H         1 COA        -0.0393
     71 H72        -5.0936   12.0728    1.1469 H         1 COA        -0.0393
     72 H61        -5.7524    9.2419    0.1503 H         1 COA        -0.0393
     73 H62        -5.3658   10.6206   -0.8876 H         1 COA        -0.0393
     74 HN4        -7.4425    9.5215   -1.6169 H         1 COA         0.0865
     75 H31        -9.7350    9.4232   -1.6973 H         1 COA        -0.0393
     76 H32        -9.8571   10.4546   -0.2655 H         1 COA        -0.0393
     77 H21       -10.7111   11.6709   -2.2990 H         1 COA        -0.0393
     78 H22        -9.2238   12.4314   -1.7093 H         1 COA        -0.0393
     79 HS1        -7.6047   11.2270   -3.3371 H         1 COA         0.1718
@<TRIPOS>BOND
     1    1    2 ar
     2    1    6 ar
     3    2    3 ar
     4    2   49 1
     5    3    4 ar
     6    4    5 ar
     7    4   10 ar
     8    5    6 ar
     9    5    8 ar
    10    6    7 1
    11    7   50 1
    12    7   51 1
    13    8    9 ar
    14    9   10 ar
    15    9   52 1
    16   10   11 1
    17   11   12 1
    18   11   21 1
    19   11   53 1
    20   12   13 1
    21   12   14 1
    22   12   54 1
    23   14   15 1
    24   14   20 1
    25   14   55 1
    26   15   16 1
    27   16   17 2
    28   16   18 1
    29   16   19 1
    30   20   21 1
    31   20   22 1
    32   20   56 1
    33   22   23 1
    34   22   57 1
    35   22   58 1
    36   23   24 1
    37   24   25 2
    38   24   26 1
    39   24   27 1
    40   27   28 1
    41   28   29 2
    42   28   30 1
    43   28   31 1
    44   31   33 1
    45   32   33 1
    46   32   34 1
    47   32   35 1
    48   32   36 1
    49   33   59 1
    50   33   60 1
    51   34   61 1
    52   34   62 1
    53   34   63 1
    54   35   64 1
    55   35   65 1
    56   35   66 1
    57   36   37 1
    58   36   38 1
    59   36   67 1
    60   37   68 1
    61   38   39 2
    62   38   40 am
    63   40   41 1
    64   40   69 1
    65   41   42 1
    66   41   70 1
    67   41   71 1
    68   42   43 1
    69   42   72 1
    70   42   73 1
    71   43   44 2
    72   43   45 am
    73   45   46 1
    74   45   74 1
    75   46   47 1
    76   46   75 1
    77   46   76 1
    78   47   48 1
    79   47   77 1
    80   47   78 1
    81   48   79 1
@<TRIPOS>SUBSTRUCTURE
     1 COA         1 GROUP 0 A     ****
@<TRIPOS>MOLECULE
[5-(6-aminopurin-9-yl)-2-[[[[3-hydroxy-2,2-dimethyl-4-oxo-4-[[3-oxo-3-(2-sulfanylethylamino)propyl]amino]butoxy]-oxido-phosphoryl]oxy-oxido-phosphoryl]oxymethyl]-4-oxido-tetrahydrofuran-3-yl] phosphate
   79    81     1     0     0
SMALL
USER_CHARGES

@<TRIPOS>ATOM
      1 N1A         5.7146    2.0302   -0.7890 N.ar      1 COA        -0.5260
      2 C2A         4.3962    2.1571   -0.5034 C.ar      1 COA         0.6629
      3 N3A         3.3299    1.7526   -1.2276 N.ar      1 COA        -0.5260
      4 C4A         3.7311    1.1587   -2.3614 C.ar      1 COA         0.5212
      5 C5A         5.0346    0.9576   -2.7868 C.ar      1 COA         0.0088
      6 C6A         6.0470    1.4195   -1.9517 C.ar      1 COA         0.5212
      7 N6A         7.3978    1.2581   -2.3043 N.pl3     1 COA        -0.6025
      8 N7A         5.0562    0.3154   -3.9993 N.2       1 COA        -0.4271
      9 C8A         3.7892    0.1293   -4.3054 C.ar      1 COA         0.5691
     10 N9A         2.9479    0.6234   -3.3440 N.pl3     1 COA        -0.5033
     11 C1B         1.4328    0.5815   -3.3775 C.3       1 COA         0.2693
     12 C2B         0.6799   -0.1567   -2.2458 C.3       1 COA         0.2008
     13 O2B         0.5449   -1.4388   -2.5302 O.co2     1 COA        -0.1615
     14 C3B        -0.6749    0.5672   -2.2968 C.3       1 COA         0.1111
     15 O3B        -1.4782    0.1594   -3.4088 O.3       1 COA         0.1618
     16 P3B        -3.0996    0.4363   -3.3454 P.3       1 COA        -1.1921
     17 O7A        -3.5828   -0.3425   -2.1254 O.co2     1 COA         0.3195
     18 O8A        -3.6001   -0.1211   -4.6746 O.co2     1 COA         0.3195
     19 O9A        -3.2339    1.9510   -3.2185 O.co2     1 COA         0.3195
     20 C4B        -0.2635    2.0121   -2.5599 C.3       1 COA         0.1111
     21 O4B         0.9490    1.9478   -3.3354 O.3       1 COA        -0.1436
     22 C5B         0.0275    2.8029   -1.2913 C.3       1 COA         0.1504
     23 O5B         0.3986    4.1249   -1.6460 O.3       1 COA         0.1618
     24 P1A         0.7670    5.1936   -0.4641 P.3       1 COA        -1.1062
     25 O1A         1.1289    6.5260   -1.0837 O.co2     1 COA         0.3195
     26 O2A         1.6876    4.5161    0.5275 O.co2     1 COA         0.3195
     27 O3A        -0.6886    5.3125    0.2679 O.3       1 COA         0.4672
     28 P2A        -1.1429    6.2040    1.5594 P.3       1 COA        -1.1062
     29 O4A        -2.6377    6.0612    1.7476 O.co2     1 COA         0.3195
     30 O5A        -0.1888    5.9134    2.6974 O.co2     1 COA         0.3195
     31 O6A        -0.8065    7.6957    0.9792 O.3       1 COA         0.1618
     32 CBP        -1.0090    9.5771   -0.5793 C.3       1 COA         0.0000
     33 CCP        -1.4652    8.1470   -0.1994 C.3       1 COA         0.1504
     34 CDP         0.5182    9.5632   -0.8289 C.3       1 COA         0.1179
     35 CEP        -1.6888   10.0085   -1.8940 C.3       1 COA         0.1179
     36 CAP        -1.3149   10.5877    0.5658 C.3       1 COA         0.0611
     37 OAP        -0.8841   11.8921    0.1862 O.3       1 COA        -0.2728
     38 C9P        -2.7940   10.7032    0.9282 C.2       1 COA         0.3561
     39 O9P        -3.6570   10.0067    0.3969 O.2       1 COA        -0.2391
     40 N8P        -3.0315   11.6427    1.9186 N.am      1 COA        -0.1909
     41 C7P        -4.3486   11.9130    2.4473 C.3       1 COA         0.1160
     42 C6P        -5.0118   13.0149    1.6339 C.3       1 COA         0.0286
     43 C5P        -6.4041   13.3494    2.1383 C.2       1 COA         0.3561
     44 O5P        -6.9257   12.7846    3.0959 O.2       1 COA        -0.2391
     45 N4P        -6.9917   14.3550    1.3849 N.am      1 COA        -0.1909
     46 C3P        -8.3180   14.8631    1.6502 C.3       1 COA         0.1160
     47 C2P        -9.3996   14.1074    0.8956 C.3       1 COA         0.2607
     48 S1P        -9.1728   14.1945   -0.9068 S.3       1 COA        -0.3539
     49 H2A         4.1666    2.6505    0.4351 H         1 COA        -0.1369
     50 H61A        8.1108    1.6399   -1.7121 H         1 COA         0.2048
     51 H62A        7.6305    0.8472   -3.1886 H         1 COA         0.2048
     52 H8A         3.4224   -0.3522   -5.2016 H         1 COA        -0.1292
     53 H1B         1.1905    0.2000   -4.4133 H         1 COA        -0.0393
     54 H2B         1.1486    0.1388   -1.2941 H         1 COA        -0.0393
     55 H3B        -1.2745    0.4471   -1.3878 H         1 COA        -0.0393
     56 H4B        -1.0100    2.5497   -3.1559 H         1 COA        -0.0393
     57 H51A        0.8489    2.3441   -0.7330 H         1 COA        -0.0393
     58 H52A       -0.8601    2.8452   -0.6531 H         1 COA        -0.0393
     59 H121       -1.2324    7.4355   -0.9984 H         1 COA        -0.0393
     60 H122       -2.5440    8.1138   -0.0133 H         1 COA        -0.0393
     61 H131        0.8796   10.5616   -1.1013 H         1 COA        -0.0393
     62 H132        0.7886    8.8842   -1.6454 H         1 COA        -0.0393
     63 H133        1.0681    9.2399    0.0618 H         1 COA        -0.0393
     64 H141       -1.3855   11.0192   -2.1904 H         1 COA        -0.0393
     65 H142       -2.7797   10.0132   -1.7903 H         1 COA        -0.0393
     66 H143       -1.4280    9.3402   -2.7211 H         1 COA        -0.0393
     67 H10        -0.7524   10.3112    1.4665 H         1 COA        -0.0393
     68 HO1        -1.3767   12.1229   -0.6167 H         1 COA         0.2010
     69 HN8        -2.2509   12.1532    2.3202 H         1 COA         0.0865
     70 H71        -4.9450   10.9957    2.4135 H         1 COA        -0.0393
     71 H72        -4.2610   12.2077    3.4979 H         1 COA        -0.0393
     72 H61        -5.0890   12.7122    0.5822 H         1 COA        -0.0393
     73 H62        -4.4031   13.9272    1.6689 H         1 COA        -0.0393
     74 HN4        -6.4659   14.7521    0.6118 H         1 COA         0.0865
     75 H31        -8.4761   14.7550    2.7264 H         1 COA        -0.0393
     76 H32        -8.3168   15.9302    1.4141 H         1 COA        -0.0393
     77 H21        -9.4218   13.0536    1.1917 H         1 COA        -0.0393
     78 H22       -10.3753   14.5453    1.1280 H         1 COA        -0.0393
     79 HS1        -7.9650   13.6155   -0.9226 H         1 COA         0.1718
@<TRIPOS>BOND
     1    1    2 ar
     2    1    6 ar
     3    2    3 ar
     4    2   49 1
     5    3    4 ar
     6    4    5 ar
     7    4   10 ar
     8    5    6 ar
     9    5    8 ar
    10    6    7 1
    11    7   50 1
    12    7   51 1
    13    8    9 ar
    14    9   10 ar
    15    9   52 1
    16   10   11 1
    17   11   12 1
    18   11   21 1
    19   11   53 1
    20   12   13 1
    21   12   14 1
    22   12   54 1
    23   14   15 1
    24   14   20 1
    25   14   55 1
    26   15   16 1
    27   16   17 2
    28   16   18 1
    29   16   19 1
    30   20   21 1
    31   20   22 1
    32   20   56 1
    33   22   23 1
    34   22   57 1
    35   22   58 1
    36   23   24 1
    37   24   25 2
    38   24   26 1
    39   24   27 1
    40   27   28 1
    41   28   29 2
    42   28   30 1
    43   28   31 1
    44   31   33 1
    45   32   33 1
    46   32   34 1
    47   32   35 1
    48   32   36 1
    49   33   59 1
    50   33   60 1
    51   34   61 1
    52   34   62 1
    53   34   63 1
    54   35   64 1
    55   35   65 1
    56   35   66 1
    57   36   37 1
    58   36   38 1
    59   36   67 1
    60   37   68 1
    61   38   39 2
    62   38   40 am
    63   40   41 1
    64   40   69 1
    65   41   42 1
    66   41   70 1
    67   41   71 1
    68   42   43 1
    69   42   72 1
    70   42   73 1
    71   43   44 2
    72   43   45 am
    73   45   46 1
    74   45   74 1
    75   46   47 1
    76   46   75 1
    77   46   76 1
    78   47   48 1
    79   47   77 1
    80   47   78 1
    81   48   79 1
@<TRIPOS>SUBSTRUCTURE
     1 COA         1 GROUP 0 A     ****
@<TRIPOS>MOLECULE
[5-(6-aminopurin-9-yl)-2-[[[[3-hydroxy-2,2-dimethyl-4-oxo-4-[[3-oxo-3-(2-sulfanylethylamino)propyl]amino]butoxy]-oxido-phosphoryl]oxy-oxido-phosphoryl]oxymethyl]-4-oxido-tetrahydrofuran-3-yl] phosphate
   79    81     1     0     0
SMALL
USER_CHARGES

@<TRIPOS>ATOM
      1 N1A         5.7146    2.0302   -0.7890 N.ar      1 COA        -0.5260
      2 C2A         4.3962    2.1571   -0.5034 C.ar      1 COA         0.6629
      3 N3A         3.3299    1.7526   -1.2276 N.ar      1 COA        -0.5260
      4 C4A         3.7311    1.1587   -2.3614 C.ar      1 COA         0.5212
      5 C5A         5.0346    0.9576   -2.7868 C.ar      1 COA         0.0088
      6 C6A         6.0470    1.4195   -1.9517 C.ar      1 COA         0.5212
      7 N6A         7.3978    1.2581   -2.3043 N.pl3     1 COA        -0.6025
      8 N7A         5.0562    0.3154   -3.9993 N.2       1 COA        -0.4271
      9 C8A         3.7892    0.1293   -4.3054 C.ar      1 COA         0.5691
     10 N9A         2.9479    0.6234   -3.3440 N.pl3     1 COA        -0.5033
     11 C1B         1.4328    0.5815   -3.3775 C.3       1 COA         0.2693
     12 C2B         0.6799   -0.1567   -2.2458 C.3       1 COA         0.2008
     13 O2B         0.5449   -1.4388   -2.5302 O.co2     1 COA        -0.1615
     14 C3B        -0.6749    0.5672   -2.2968 C.3       1 COA         0.1111
     15 O3B        -1.4782    0.1594   -3.4088 O.3       1 COA         0.1618
     16 P3B        -3.0996    0.4363   -3.3454 P.3       1 COA        -1.1921
     17 O7A        -3.5828   -0.3425   -2.1254 O.co2     1 COA         0.3195
     18 O8A        -3.6001   -0.1211   -4.6746 O.co2     1 COA         0.3195
     19 O9A        -3.2339    1.9510   -3.2185 O.co2     1 COA         0.3195
     20 C4B        -0.2635    2.0121   -2.5599 C.3       1 COA         0.1111
     21 O4B         0.9490    1.9478   -3.3354 O.3       1 COA        -0.1436
     22 C5B         0.0275    2.8029   -1.2913 C.3       1 COA         0.1504
     23 O5B         0.3986    4.1249   -1.6460 O.3       1 COA         0.1618
     24 P1A         0.7670    5.1936   -0.4641 P.3       1 COA        -1.1062
     25 O1A         1.1289    6.5260   -1.0837 O.co2     1 COA         0.3195
     26 O2A         1.6876    4.5161    0.5275 O.co2     1 COA         0.3195
     27 O3A        -0.6886    5.3125    0.2679 O.3       1 COA         0.4672
     28 P2A        -1.1429    6.2040    1.5594 P.3       1 COA        -1.1062
     29 O4A        -2.6377    6.0612    1.7476 O.co2     1 COA         0.3195
     30 O5A        -0.1888    5.9134    2.6974 O.co2     1 COA         0.3195
     31 O6A        -0.8065    7.6957    0.9792 O.3       1 COA         0.1618
     32 CBP        -1.0090    9.5771   -0.5793 C.3       1 COA         0.0000
     33 CCP        -1.4652    8.1470   -0.1994 C.3       1 COA         0.1504
     34 CDP         0.5182    9.5632   -0.8289 C.3       1 COA         0.1179
     35 CEP        -1.6888   10.0085   -1.8940 C.3       1 COA         0.1179
     36 CAP        -1.3149   10.5877    0.5658 C.3       1 COA         0.0611
     37 OAP        -2.7163   10.6149    0.8239 O.3       1 COA        -0.2728
     38 C9P        -0.6314   10.2649    1.8928 C.2       1 COA         0.3561
     39 O9P        -1.1331    9.5097    2.7236 O.2       1 COA        -0.2391
     40 N8P         0.5984   10.8887    2.0282 N.am      1 COA        -0.1909
     41 C7P         1.4450   10.7163    3.1861 C.3       1 COA         0.1160
     42 C6P         1.1093   11.7726    4.2289 C.3       1 COA         0.0286
     43 C5P         1.3130   13.1846    3.7096 C.2       1 COA         0.3561
     44 O5P         1.7071   13.4325    2.5733 O.2       1 COA        -0.2391
     45 N4P         1.0022   14.1324    4.6736 N.am      1 COA        -0.1909
     46 C3P         1.1103   15.5543    4.4415 C.3       1 COA         0.1160
     47 C2P         2.4800   16.1068    4.8007 C.3       1 COA         0.2607
     48 S1P         2.8920   15.8448    6.5527 S.3       1 COA        -0.3539
     49 H2A         4.1666    2.6505    0.4351 H         1 COA        -0.1369
     50 H61A        8.1108    1.6399   -1.7121 H         1 COA         0.2048
     51 H62A        7.6305    0.8472   -3.1886 H         1 COA         0.2048
     52 H8A         3.4224   -0.3522   -5.2016 H         1 COA        -0.1292
     53 H1B         1.1905    0.2000   -4.4133 H         1 COA        -0.0393
     54 H2B         1.1486    0.1388   -1.2941 H         1 COA        -0.0393
     55 H3B        -1.2745    0.4471   -1.3878 H         1 COA        -0.0393
     56 H4B        -1.0100    2.5497   -3.1559 H         1 COA        -0.0393
     57 H51A        0.8489    2.3441   -0.7330 H         1 COA        -0.0393
     58 H52A       -0.8601    2.8452   -0.6531 H         1 COA        -0.0393
     59 H121       -1.2324    7.4355   -0.9984 H         1 COA        -0.0393
     60 H122       -2.5440    8.1138   -0.0133 H         1 COA        -0.0393
     61 H131        0.8796   10.5616   -1.1013 H         1 COA        -0.0393
     62 H132        0.7886    8.8842   -1.6454 H         1 COA        -0.0393
     63 H133        1.0681    9.2399    0.0618 H         1 COA        -0.0393
     64 H141       -1.3855   11.0192   -2.1904 H         1 COA        -0.0393
     65 H142       -2.7797   10.0132   -1.7903 H         1 COA        -0.0393
     66 H143       -1.4280    9.3402   -2.7211 H         1 COA        -0.0393
     67 H10        -1.0237   11.5996    0.2569 H         1 COA        -0.0393
     68 HO1        -2.9668    9.7148    1.0837 H         1 COA         0.2010
     69 HN8         0.9463   11.4752    1.2758 H         1 COA         0.0865
     70 H71         1.2973    9.7110    3.5932 H         1 COA        -0.0393
     71 H72         2.4931   10.7948    2.8803 H         1 COA        -0.0393
     72 H61         1.7381   11.6375    5.1178 H         1 COA        -0.0393
     73 H62         0.0644   11.6688    4.5472 H         1 COA        -0.0393
     74 HN4         0.6841   13.8123    5.5836 H         1 COA         0.0865
     75 H31         0.9211   15.7044    3.3754 H         1 COA        -0.0393
     76 H32         0.3074   16.0426    4.9994 H         1 COA        -0.0393
     77 H21         3.2621   15.6467    4.1881 H         1 COA        -0.0393
     78 H22         2.4946   17.1853    4.6150 H         1 COA        -0.0393
     79 HS1         2.8156   14.5079    6.5145 H         1 COA         0.1718
@<TRIPOS>BOND
     1    1    2 ar
     2    1    6 ar
     3    2    3 ar
     4    2   49 1
     5    3    4 ar
     6    4    5 ar
     7    4   10 ar
     8    5    6 ar
     9    5    8 ar
    10    6    7 1
    11    7   50 1
    12    7   51 1
    13    8    9 ar
    14    9   10 ar
    15    9   52 1
    16   10   11 1
    17   11   12 1
    18   11   21 1
    19   11   53 1
    20   12   13 1
    21   12   14 1
    22   12   54 1
    23   14   15 1
    24   14   20 1
    25   14   55 1
    26   15   16 1
    27   16   17 2
    28   16   18 1
    29   16   19 1
    30   20   21 1
    31   20   22 1
    32   20   56 1
    33   22   23 1
    34   22   57 1
    35   22   58 1
    36   23   24 1
    37   24   25 2
    38   24   26 1
    39   24   27 1
    40   27   28 1
    41   28   29 2
    42   28   30 1
    43   28   31 1
    44   31   33 1
    45   32   33 1
    46   32   34 1
    47   32   35 1
    48   32   36 1
    49   33   59 1
    50   33   60 1
    51   34   61 1
    52   34   62 1
    53   34   63 1
    54   35   64 1
    55   35   65 1
    56   35   66 1
    57   36   37 1
    58   36   38 1
    59   36   67 1
    60   37   68 1
    61   38   39 2
    62   38   40 am
    63   40   41 1
    64   40   69 1
    65   41   42 1
    66   41   70 1
    67   41   71 1
    68   42   43 1
    69   42   72 1
    70   42   73 1
    71   43   44 2
    72   43   45 am
    73   45   46 1
    74   45   74 1
    75   46   47 1
    76   46   75 1
    77   46   76 1
    78   47   48 1
    79   47   77 1
    80   47   78 1
    81   48   79 1
@<TRIPOS>SUBSTRUCTURE
     1 COA         1 GROUP 0 A     ****
@<TRIPOS>MOLECULE
[5-(6-aminopurin-9-yl)-2-[[[[3-hydroxy-2,2-dimethyl-4-oxo-4-[[3-oxo-3-(2-sulfanylethylamino)propyl]amino]butoxy]-oxido-phosphoryl]oxy-oxido-phosphoryl]oxymethyl]-4-oxido-tetrahydrofuran-3-yl] phosphate
   79    81     1     0     0
SMALL
USER_CHARGES

@<TRIPOS>ATOM
      1 N1A         5.7146    2.0302   -0.7890 N.ar      1 COA        -0.5260
      2 C2A         4.3962    2.1571   -0.5034 C.ar      1 COA         0.6629
      3 N3A         3.3299    1.7526   -1.2276 N.ar      1 COA        -0.5260
      4 C4A         3.7311    1.1587   -2.3614 C.ar      1 COA         0.5212
      5 C5A         5.0346    0.9576   -2.7868 C.ar      1 COA         0.0088
      6 C6A         6.0470    1.4195   -1.9517 C.ar      1 COA         0.5212
      7 N6A         7.3978    1.2581   -2.3043 N.pl3     1 COA        -0.6025
      8 N7A         5.0562    0.3154   -3.9993 N.2       1 COA        -0.4271
      9 C8A         3.7892    0.1293   -4.3054 C.ar      1 COA         0.5691
     10 N9A         2.9479    0.6234   -3.3440 N.pl3     1 COA        -0.5033
     11 C1B         1.4328    0.5815   -3.3775 C.3       1 COA         0.2693
     12 C2B         0.6799   -0.1567   -2.2458 C.3       1 COA         0.2008
     13 O2B         0.5449   -1.4388   -2.5302 O.co2     1 COA        -0.1615
     14 C3B        -0.6749    0.5672   -2.2968 C.3       1 COA         0.1111
     15 O3B        -1.4782    0.1594   -3.4088 O.3       1 COA         0.1618
     16 P3B        -3.0996    0.4363   -3.3454 P.3       1 COA        -1.1921
     17 O7A        -3.5828   -0.3425   -2.1254 O.co2     1 COA         0.3195
     18 O8A        -3.6001   -0.1211   -4.6746 O.co2     1 COA         0.3195
     19 O9A        -3.2339    1.9510   -3.2185 O.co2     1 COA         0.3195
     20 C4B        -0.2635    2.0121   -2.5599 C.3       1 COA         0.1111
     21 O4B         0.9490    1.9478   -3.3354 O.3       1 COA        -0.1436
     22 C5B         0.0275    2.8029   -1.2913 C.3       1 COA         0.1504
     23 O5B         0.3986    4.1249   -1.6460 O.3       1 COA         0.1618
     24 P1A         0.7670    5.1936   -0.4641 P.3       1 COA        -1.1062
     25 O1A         1.1289    6.5260   -1.0837 O.co2     1 COA         0.3195
     26 O2A         1.6876    4.5161    0.5275 O.co2     1 COA         0.3195
     27 O3A        -0.6886    5.3125    0.2679 O.3       1 COA         0.4672
     28 P2A        -1.1429    6.2040    1.5594 P.3       1 COA        -1.1062
     29 O4A        -2.6377    6.0612    1.7476 O.co2     1 COA         0.3195
     30 O5A        -0.1888    5.9134    2.6974 O.co2     1 COA         0.3195
     31 O6A        -0.8065    7.6957    0.9792 O.3       1 COA         0.1618
     32 CBP        -1.0090    9.5771   -0.5793 C.3       1 COA         0.0000
     33 CCP        -1.4652    8.1470   -0.1994 C.3       1 COA         0.1504
     34 CDP         0.5182    9.5632   -0.8289 C.3       1 COA         0.1179
     35 CEP        -1.6888   10.0085   -1.8940 C.3       1 COA         0.1179
     36 CAP        -1.3149   10.5877    0.5658 C.3       1 COA         0.0611
     37 OAP        -0.8841   11.8921    0.1862 O.3       1 COA        -0.2728
     38 C9P        -2.7940   10.7032    0.9282 C.2       1 COA         0.3561
     39 O9P        -3.6570   10.0067    0.3969 O.2       1 COA        -0.2391
     40 N8P        -3.0315   11.6427    1.9186 N.am      1 COA        -0.1909
     41 C7P        -4.3486   11.9130    2.4473 C.3       1 COA         0.1160
     42 C6P        -4.6208   11.0029    3.6363 C.3       1 COA         0.0286
     43 C5P        -5.9933   11.2358    4.2418 C.2       1 COA         0.3561
     44 O5P        -6.7851   12.0700    3.8115 O.2       1 COA        -0.2391
     45 N4P        -6.2226   10.3978    5.3232 N.am      1 COA        -0.1909
     46 C3P        -7.4511   10.4140    6.0835 C.3       1 COA         0.1160
     47 C2P        -8.4970    9.4587    5.5322 C.3       1 COA         0.2607
     48 S1P        -7.9229    7.7330    5.5303 S.3       1 COA        -0.3539
     49 H2A         4.1666    2.6505    0.4351 H         1 COA        -0.1369
     50 H61A        8.1108    1.6399   -1.7121 H         1 COA         0.2048
     51 H62A        7.6305    0.8472   -3.1886 H         1 COA         0.2048
     52 H8A         3.4224   -0.3522   -5.2016 H         1 COA        -0.1292
     53 H1B         1.1905    0.2000   -4.4133 H         1 COA        -0.0393
     54 H2B         1.1486    0.1388   -1.2941 H         1 COA        -0.0393
     55 H3B        -1.2745    0.4471   -1.3878 H         1 COA        -0.0393
     56 H4B        -1.0100    2.5497   -3.1559 H         1 COA        -0.0393
     57 H51A        0.8489    2.3441   -0.7330 H         1 COA        -0.0393
     58 H52A       -0.8601    2.8452   -0.6531 H         1 COA        -0.0393
     59 H121       -1.2324    7.4355   -0.9984 H         1 COA        -0.0393
     60 H122       -2.5440    8.1138   -0.0133 H         1 COA        -0.0393
     61 H131        0.8796   10.5616   -1.1013 H         1 COA        -0.0393
     62 H132        0.7886    8.8842   -1.6454 H         1 COA        -0.0393
     63 H133        1.0681    9.2399    0.0618 H         1 COA        -0.0393
     64 H141       -1.3855   11.0192   -2.1904 H         1 COA        -0.0393
     65 H142       -2.7797   10.0132   -1.7903 H         1 COA        -0.0393
     66 H143       -1.4280    9.3402   -2.7211 H         1 COA        -0.0393
     67 H10        -0.7524   10.3112    1.4665 H         1 COA        -0.0393
     68 HO1        -1.3767   12.1229   -0.6167 H         1 COA         0.2010
     69 HN8        -2.2509   12.1532    2.3202 H         1 COA         0.0865
     70 H71        -4.4081   12.9648    2.7445 H         1 COA        -0.0393
     71 H72        -5.0921   11.7528    1.6601 H         1 COA        -0.0393
     72 H61        -3.8669   11.1668    4.4163 H         1 COA        -0.0393
     73 H62        -4.5522    9.9517    3.3294 H         1 COA        -0.0393
     74 HN4        -5.4940    9.7434    5.5927 H         1 COA         0.0865
     75 H31        -7.1834   10.1189    7.1015 H         1 COA        -0.0393
     76 H32        -7.8081   11.4465    6.1135 H         1 COA        -0.0393
     77 H21        -9.4244    9.5148    6.1115 H         1 COA        -0.0393
     78 H22        -8.7267    9.7323    4.4977 H         1 COA        -0.0393
     79 HS1        -7.7258    7.6511    6.8527 H         1 COA         0.1718
@<TRIPOS>BOND
     1    1    2 ar
     2    1    6 ar
     3    2    3 ar
     4    2   49 1
     5    3    4 ar
     6    4    5 ar
     7    4   10 ar
     8    5    6 ar
     9    5    8 ar
    10    6    7 1
    11    7   50 1
    12    7   51 1
    13    8    9 ar
    14    9   10 ar
    15    9   52 1
    16   10   11 1
    17   11   12 1
    18   11   21 1
    19   11   53 1
    20   12   13 1
    21   12   14 1
    22   12   54 1
    23   14   15 1
    24   14   20 1
    25   14   55 1
    26   15   16 1
    27   16   17 2
    28   16   18 1
    29   16   19 1
    30   20   21 1
    31   20   22 1
    32   20   56 1
    33   22   23 1
    34   22   57 1
    35   22   58 1
    36   23   24 1
    37   24   25 2
    38   24   26 1
    39   24   27 1
    40   27   28 1
    41   28   29 2
    42   28   30 1
    43   28   31 1
    44   31   33 1
    45   32   33 1
    46   32   34 1
    47   32   35 1
    48   32   36 1
    49   33   59 1
    50   33   60 1
    51   34   61 1
    52   34   62 1
    53   34   63 1
    54   35   64 1
    55   35   65 1
    56   35   66 1
    57   36   37 1
    58   36   38 1
    59   36   67 1
    60   37   68 1
    61   38   39 2
    62   38   40 am
    63   40   41 1
    64   40   69 1
    65   41   42 1
    66   41   70 1
    67   41   71 1
    68   42   43 1
    69   42   72 1
    70   42   73 1
    71   43   44 2
    72   43   45 am
    73   45   46 1
    74   45   74 1
    75   46   47 1
    76   46   75 1
    77   46   76 1
    78   47   48 1
    79   47   77 1
    80   47   78 1
    81   48   79 1
@<TRIPOS>SUBSTRUCTURE
     1 COA         1 GROUP 0 A     ****
@<TRIPOS>MOLECULE
[5-(6-aminopurin-9-yl)-2-[[[[3-hydroxy-2,2-dimethyl-4-oxo-4-[[3-oxo-3-(2-sulfanylethylamino)propyl]amino]butoxy]-oxido-phosphoryl]oxy-oxido-phosphoryl]oxymethyl]-4-oxido-tetrahydrofuran-3-yl] phosphate
   79    81     1     0     0
SMALL
USER_CHARGES

@<TRIPOS>ATOM
      1 N1A         6.3197    3.3711    0.1967 N.ar      1 COA        -0.5260
      2 C2A         5.0033    3.3256    0.5141 C.ar      1 COA         0.6629
      3 N3A         4.0730    2.4196    0.1418 N.ar      1 COA        -0.5260
      4 C4A         4.6208    1.4811   -0.6447 C.ar      1 COA         0.5212
      5 C5A         5.9423    1.3962   -1.0530 C.ar      1 COA         0.0088
      6 C6A         6.8050    2.3902   -0.6021 C.ar      1 COA         0.5212
      7 N6A         8.1621    2.3826   -0.9671 N.pl3     1 COA        -0.6025
      8 N7A         6.1335    0.2987   -1.8543 N.2       1 COA        -0.4271
      9 C8A         4.9500   -0.2731   -1.9316 C.ar      1 COA         0.5691
     10 N9A         4.0006    0.4065   -1.2155 N.pl3     1 COA        -0.5033
     11 C1B         2.5376    0.0288   -1.0907 C.3       1 COA         0.2693
     12 C2B         1.9579   -0.2640    0.3131 C.3       1 COA         0.2008
     13 O2B         2.1299   -1.5323    0.6368 O.co2     1 COA        -0.1615
     14 C3B         0.4729    0.0487    0.0699 C.3       1 COA         0.1111
     15 O3B        -0.1943   -0.9780   -0.6709 O.3       1 COA         0.1618
     16 P3B        -1.8364   -1.0586   -0.5907 P.3       1 COA        -1.1921
     17 O7A        -2.1459   -1.2889    0.8856 O.co2     1 COA         0.3195
     18 O8A        -2.1706   -2.2476   -1.4866 O.co2     1 COA         0.3195
     19 O9A        -2.3217    0.2823   -1.1335 O.co2     1 COA         0.3195
     20 C4B         0.5412    1.2713   -0.8394 C.3       1 COA         0.1111
     21 O4B         1.7485    1.1278   -1.6124 O.3       1 COA        -0.1436
     22 C5B         0.6184    2.5901   -0.0816 C.3       1 COA         0.1504
     23 O5B         0.6777    3.6562   -1.0149 O.3       1 COA         0.1618
     24 P1A         0.7670    5.1936   -0.4641 P.3       1 COA        -1.1062
     25 O1A         0.8194    6.1476   -1.6376 O.co2     1 COA         0.3195
     26 O2A         1.8029    5.2507    0.6375 O.co2     1 COA         0.3195
     27 O3A        -0.6886    5.3125    0.2679 O.3       1 COA         0.4672
     28 P2A        -1.1429    6.2040    1.5594 P.3       1 COA        -1.1062
     29 O4A        -2.6377    6.0612    1.7476 O.co2     1 COA         0.3195
     30 O5A        -0.1888    5.9134    2.6974 O.co2     1 COA         0.3195
     31 O6A        -0.8065    7.6957    0.9792 O.3       1 COA         0.1618
     32 CBP        -1.0090    9.5771   -0.5793 C.3       1 COA         0.0000
     33 CCP        -1.4652    8.1470   -0.1994 C.3       1 COA         0.1504
     34 CDP         0.5182    9.5632   -0.8289 C.3       1 COA         0.1179
     35 CEP        -1.6888   10.0085   -1.8940 C.3       1 COA         0.1179
     36 CAP        -1.3149   10.5877    0.5658 C.3       1 COA         0.0611
     37 OAP        -2.7163   10.6149    0.8239 O.3       1 COA        -0.2728
     38 C9P        -0.6314   10.2649    1.8928 C.2       1 COA         0.3561
     39 O9P        -1.1331    9.5097    2.7236 O.2       1 COA        -0.2391
     40 N8P         0.5984   10.8887    2.0282 N.am      1 COA        -0.1909
     41 C7P         1.4450   10.7163    3.1861 C.3       1 COA         0.1160
     42 C6P         1.1093   11.7726    4.2289 C.3       1 COA         0.0286
     43 C5P         1.3130   13.1846    3.7096 C.2       1 COA         0.3561
     44 O5P         1.7071   13.4325    2.5733 O.2       1 COA        -0.2391
     45 N4P         1.0022   14.1324    4.6736 N.am      1 COA        -0.1909
     46 C3P         1.1103   15.5543    4.4415 C.3       1 COA         0.1160
     47 C2P        -0.1712   16.1603    3.8931 C.3       1 COA         0.2607
     48 S1P        -1.5793   15.9350    5.0219 S.3       1 COA        -0.3539
     49 H2A         4.6492    4.1260    1.1552 H         1 COA        -0.1369
     50 H61A        8.7564    3.1335   -0.6708 H         1 COA         0.2048
     51 H62A        8.4991    1.6788   -1.5963 H         1 COA         0.2048
     52 H8A         4.7208   -1.1726   -2.4865 H         1 COA        -0.1292
     53 H1B         2.4085   -0.8200   -1.8256 H         1 COA        -0.0393
     54 H2B         2.3286    0.5212    0.9904 H         1 COA        -0.0393
     55 H3B        -0.0977    0.2245    0.9885 H         1 COA        -0.0393
     56 H4B        -0.2996    1.3083   -1.5416 H         1 COA        -0.0393
     57 H51A        1.5144    2.6204    0.5455 H         1 COA        -0.0393
     58 H52A       -0.2654    2.7227    0.5494 H         1 COA        -0.0393
     59 H121       -1.2324    7.4355   -0.9984 H         1 COA        -0.0393
     60 H122       -2.5440    8.1138   -0.0133 H         1 COA        -0.0393
     61 H131        0.8796   10.5616   -1.1013 H         1 COA        -0.0393
     62 H132        0.7886    8.8842   -1.6454 H         1 COA        -0.0393
     63 H133        1.0681    9.2399    0.0618 H         1 COA        -0.0393
     64 H141       -1.3855   11.0192   -2.1904 H         1 COA        -0.0393
     65 H142       -2.7797   10.0132   -1.7903 H         1 COA        -0.0393
     66 H143       -1.4280    9.3402   -2.7211 H         1 COA        -0.0393
     67 H10        -1.0237   11.5996    0.2569 H         1 COA        -0.0393
     68 HO1        -2.9668    9.7148    1.0837 H         1 COA         0.2010
     69 HN8         0.9463   11.4752    1.2758 H         1 COA         0.0865
     70 H71         1.2973    9.7110    3.5932 H         1 COA        -0.0393
     71 H72         2.4931   10.7948    2.8803 H         1 COA        -0.0393
     72 H61         1.7381   11.6375    5.1178 H         1 COA        -0.0393
     73 H62         0.0644   11.6688    4.5472 H         1 COA        -0.0393
     74 HN4         0.6841   13.8123    5.5836 H         1 COA         0.0865
     75 H31         1.3452   16.0042    5.4097 H         1 COA        -0.0393
     76 H32         1.9628   15.7172    3.7772 H         1 COA        -0.0393
     77 H21        -0.0486   17.2312    3.7013 H         1 COA        -0.0393
     78 H22        -0.4248   15.6734    2.9463 H         1 COA        -0.0393
     79 HS1        -1.0382   16.5979    6.0525 H         1 COA         0.1718
@<TRIPOS>BOND
     1    1    2 ar
     2    1    6 ar
     3    2    3 ar
     4    2   49 1
     5    3    4 ar
     6    4    5 ar
     7    4   10 ar
     8    5    6 ar
     9    5    8 ar
    10    6    7 1
    11    7   50 1
    12    7   51 1
    13    8    9 ar
    14    9   10 ar
    15    9   52 1
    16   10   11 1
    17   11   12 1
    18   11   21 1
    19   11   53 1
    20   12   13 1
    21   12   14 1
    22   12   54 1
    23   14   15 1
    24   14   20 1
    25   14   55 1
    26   15   16 1
    27   16   17 2
    28   16   18 1
    29   16   19 1
    30   20   21 1
    31   20   22 1
    32   20   56 1
    33   22   23 1
    34   22   57 1
    35   22   58 1
    36   23   24 1
    37   24   25 2
    38   24   26 1
    39   24   27 1
    40   27   28 1
    41   28   29 2
    42   28   30 1
    43   28   31 1
    44   31   33 1
    45   32   33 1
    46   32   34 1
    47   32   35 1
    48   32   36 1
    49   33   59 1
    50   33   60 1
    51   34   61 1
    52   34   62 1
    53   34   63 1
    54   35   64 1
    55   35   65 1
    56   35   66 1
    57   36   37 1
    58   36   38 1
    59   36   67 1
    60   37   68 1
    61   38   39 2
    62   38   40 am
    63   40   41 1
    64   40   69 1
    65   41   42 1
    66   41   70 1
    67   41   71 1
    68   42   43 1
    69   42   72 1
    70   42   73 1
    71   43   44 2
    72   43   45 am
    73   45   46 1
    74   45   74 1
    75   46   47 1
    76   46   75 1
    77   46   76 1
    78   47   48 1
    79   47   77 1
    80   47   78 1
    81   48   79 1
@<TRIPOS>SUBSTRUCTURE
     1 COA         1 GROUP 0 A     ****
@<TRIPOS>MOLECULE
[5-(6-aminopurin-9-yl)-2-[[[[3-hydroxy-2,2-dimethyl-4-oxo-4-[[3-oxo-3-(2-sulfanylethylamino)propyl]amino]butoxy]-oxido-phosphoryl]oxy-oxido-phosphoryl]oxymethyl]-4-oxido-tetrahydrofuran-3-yl] phosphate
   79    81     1     0     0
SMALL
USER_CHARGES

@<TRIPOS>ATOM
      1 N1A         6.3197    3.3711    0.1967 N.ar      1 COA        -0.5260
      2 C2A         5.0033    3.3256    0.5141 C.ar      1 COA         0.6629
      3 N3A         4.0730    2.4196    0.1418 N.ar      1 COA        -0.5260
      4 C4A         4.6208    1.4811   -0.6447 C.ar      1 COA         0.5212
      5 C5A         5.9423    1.3962   -1.0530 C.ar      1 COA         0.0088
      6 C6A         6.8050    2.3902   -0.6021 C.ar      1 COA         0.5212
      7 N6A         8.1621    2.3826   -0.9671 N.pl3     1 COA        -0.6025
      8 N7A         6.1335    0.2987   -1.8543 N.2       1 COA        -0.4271
      9 C8A         4.9500   -0.2731   -1.9316 C.ar      1 COA         0.5691
     10 N9A         4.0006    0.4065   -1.2155 N.pl3     1 COA        -0.5033
     11 C1B         2.5376    0.0288   -1.0907 C.3       1 COA         0.2693
     12 C2B         1.9579   -0.2640    0.3131 C.3       1 COA         0.2008
     13 O2B         2.1299   -1.5323    0.6368 O.co2     1 COA        -0.1615
     14 C3B         0.4729    0.0487    0.0699 C.3       1 COA         0.1111
     15 O3B        -0.1943   -0.9780   -0.6709 O.3       1 COA         0.1618
     16 P3B        -1.8364   -1.0586   -0.5907 P.3       1 COA        -1.1921
     17 O7A        -2.1459   -1.2889    0.8856 O.co2     1 COA         0.3195
     18 O8A        -2.1706   -2.2476   -1.4866 O.co2     1 COA         0.3195
     19 O9A        -2.3217    0.2823   -1.1335 O.co2     1 COA         0.3195
     20 C4B         0.5412    1.2713   -0.8394 C.3       1 COA         0.1111
     21 O4B         1.7485    1.1278   -1.6124 O.3       1 COA        -0.1436
     22 C5B         0.6184    2.5901   -0.0816 C.3       1 COA         0.1504
     23 O5B         0.6777    3.6562   -1.0149 O.3       1 COA         0.1618
     24 P1A         0.7670    5.1936   -0.4641 P.3       1 COA        -1.1062
     25 O1A         0.8194    6.1476   -1.6376 O.co2     1 COA         0.3195
     26 O2A         1.8029    5.2507    0.6375 O.co2     1 COA         0.3195
     27 O3A        -0.6886    5.3125    0.2679 O.3       1 COA         0.4672
     28 P2A        -1.1429    6.2040    1.5594 P.3       1 COA        -1.1062
     29 O4A        -2.6377    6.0612    1.7476 O.co2     1 COA         0.3195
     30 O5A        -0.1888    5.9134    2.6974 O.co2     1 COA         0.3195
     31 O6A        -0.8065    7.6957    0.9792 O.3       1 COA         0.1618
     32 CBP        -1.0090    9.5771   -0.5793 C.3       1 COA         0.0000
     33 CCP        -1.4652    8.1470   -0.1994 C.3       1 COA         0.1504
     34 CDP         0.5182    9.5632   -0.8289 C.3       1 COA         0.1179
     35 CEP        -1.6888   10.0085   -1.8940 C.3       1 COA         0.1179
     36 CAP        -1.3149   10.5877    0.5658 C.3       1 COA         0.0611
     37 OAP        -0.8841   11.8921    0.1862 O.3       1 COA        -0.2728
     38 C9P        -2.7940   10.7032    0.9282 C.2       1 COA         0.3561
     39 O9P        -3.6570   10.0067    0.3969 O.2       1 COA        -0.2391
     40 N8P        -3.0315   11.6427    1.9186 N.am      1 COA        -0.1909
     41 C7P        -4.3486   11.9130    2.4473 C.3       1 COA         0.1160
     42 C6P        -5.0118   13.0149    1.6339 C.3       1 COA         0.0286
     43 C5P        -6.4041   13.3494    2.1383 C.2       1 COA         0.3561
     44 O5P        -6.9257   12.7846    3.0959 O.2       1 COA        -0.2391
     45 N4P        -6.9917   14.3550    1.3849 N.am      1 COA        -0.1909
     46 C3P        -8.3180   14.8631    1.6502 C.3       1 COA         0.1160
     47 C2P        -8.3169   16.0327    2.6209 C.3       1 COA         0.2607
     48 S1P        -7.3469   17.4415    2.0029 S.3       1 COA        -0.3539
     49 H2A         4.6492    4.1260    1.1552 H         1 COA        -0.1369
     50 H61A        8.7564    3.1335   -0.6708 H         1 COA         0.2048
     51 H62A        8.4991    1.6788   -1.5963 H         1 COA         0.2048
     52 H8A         4.7208   -1.1726   -2.4865 H         1 COA        -0.1292
     53 H1B         2.4085   -0.8200   -1.8256 H         1 COA        -0.0393
     54 H2B         2.3286    0.5212    0.9904 H         1 COA        -0.0393
     55 H3B        -0.0977    0.2245    0.9885 H         1 COA        -0.0393
     56 H4B        -0.2996    1.3083   -1.5416 H         1 COA        -0.0393
     57 H51A        1.5144    2.6204    0.5455 H         1 COA        -0.0393
     58 H52A       -0.2654    2.7227    0.5494 H         1 COA        -0.0393
     59 H121       -1.2324    7.4355   -0.9984 H         1 COA        -0.0393
     60 H122       -2.5440    8.1138   -0.0133 H         1 COA        -0.0393
     61 H131        0.8796   10.5616   -1.1013 H         1 COA        -0.0393
     62 H132        0.7886    8.8842   -1.6454 H         1 COA        -0.0393
     63 H133        1.0681    9.2399    0.0618 H         1 COA        -0.0393
     64 H141       -1.3855   11.0192   -2.1904 H         1 COA        -0.0393
     65 H142       -2.7797   10.0132   -1.7903 H         1 COA        -0.0393
     66 H143       -1.4280    9.3402   -2.7211 H         1 COA        -0.0393
     67 H10        -0.7524   10.3112    1.4665 H         1 COA        -0.0393
     68 HO1        -1.3767   12.1229   -0.6167 H         1 COA         0.2010
     69 HN8        -2.2509   12.1532    2.3202 H         1 COA         0.0865
     70 H71        -4.9450   10.9957    2.4135 H         1 COA        -0.0393
     71 H72        -4.2610   12.2077    3.4979 H         1 COA        -0.0393
     72 H61        -5.0890   12.7122    0.5822 H         1 COA        -0.0393
     73 H62        -4.4031   13.9272    1.6689 H         1 COA        -0.0393
     74 HN4        -6.4659   14.7521    0.6118 H         1 COA         0.0865
     75 H31        -8.7193   15.1855    0.6859 H         1 COA        -0.0393
     76 H32        -8.9265   14.0286    2.0078 H         1 COA        -0.0393
     77 H21        -9.3366   16.3761    2.8233 H         1 COA        -0.0393
     78 H22        -7.8720   15.7149    3.5690 H         1 COA        -0.0393
     79 HS1        -6.1847   16.7813    1.9144 H         1 COA         0.1718
@<TRIPOS>BOND
     1    1    2 ar
     2    1    6 ar
     3    2    3 ar
     4    2   49 1
     5    3    4 ar
     6    4    5 ar
     7    4   10 ar
     8    5    6 ar
     9    5    8 ar
    10    6    7 1
    11    7   50 1
    12    7   51 1
    13    8    9 ar
    14    9   10 ar
    15    9   52 1
    16   10   11 1
    17   11   12 1
    18   11   21 1
    19   11   53 1
    20   12   13 1
    21   12   14 1
    22   12   54 1
    23   14   15 1
    24   14   20 1
    25   14   55 1
    26   15   16 1
    27   16   17 2
    28   16   18 1
    29   16   19 1
    30   20   21 1
    31   20   22 1
    32   20   56 1
    33   22   23 1
    34   22   57 1
    35   22   58 1
    36   23   24 1
    37   24   25 2
    38   24   26 1
    39   24   27 1
    40   27   28 1
    41   28   29 2
    42   28   30 1
    43   28   31 1
    44   31   33 1
    45   32   33 1
    46   32   34 1
    47   32   35 1
    48   32   36 1
    49   33   59 1
    50   33   60 1
    51   34   61 1
    52   34   62 1
    53   34   63 1
    54   35   64 1
    55   35   65 1
    56   35   66 1
    57   36   37 1
    58   36   38 1
    59   36   67 1
    60   37   68 1
    61   38   39 2
    62   38   40 am
    63   40   41 1
    64   40   69 1
    65   41   42 1
    66   41   70 1
    67   41   71 1
    68   42   43 1
    69   42   72 1
    70   42   73 1
    71   43   44 2
    72   43   45 am
    73   45   46 1
    74   45   74 1
    75   46   47 1
    76   46   75 1
    77   46   76 1
    78   47   48 1
    79   47   77 1
    80   47   78 1
    81   48   79 1
@<TRIPOS>SUBSTRUCTURE
     1 COA         1 GROUP 0 A     ****
@<TRIPOS>MOLECULE
[5-(6-aminopurin-9-yl)-2-[[[[3-hydroxy-2,2-dimethyl-4-oxo-4-[[3-oxo-3-(2-sulfanylethylamino)propyl]amino]butoxy]-oxido-phosphoryl]oxy-oxido-phosphoryl]oxymethyl]-4-oxido-tetrahydrofuran-3-yl] phosphate
   79    81     1     0     0
SMALL
USER_CHARGES

@<TRIPOS>ATOM
      1 N1A         6.3197    3.3711    0.1967 N.ar      1 COA        -0.5260
      2 C2A         5.0033    3.3256    0.5141 C.ar      1 COA         0.6629
      3 N3A         4.0730    2.4196    0.1418 N.ar      1 COA        -0.5260
      4 C4A         4.6208    1.4811   -0.6447 C.ar      1 COA         0.5212
      5 C5A         5.9423    1.3962   -1.0530 C.ar      1 COA         0.0088
      6 C6A         6.8050    2.3902   -0.6021 C.ar      1 COA         0.5212
      7 N6A         8.1621    2.3826   -0.9671 N.pl3     1 COA        -0.6025
      8 N7A         6.1335    0.2987   -1.8543 N.2       1 COA        -0.4271
      9 C8A         4.9500   -0.2731   -1.9316 C.ar      1 COA         0.5691
     10 N9A         4.0006    0.4065   -1.2155 N.pl3     1 COA        -0.5033
     11 C1B         2.5376    0.0288   -1.0907 C.3       1 COA         0.2693
     12 C2B         1.9579   -0.2640    0.3131 C.3       1 COA         0.2008
     13 O2B         2.1299   -1.5323    0.6368 O.co2     1 COA        -0.1615
     14 C3B         0.4729    0.0487    0.0699 C.3       1 COA         0.1111
     15 O3B        -0.1943   -0.9780   -0.6709 O.3       1 COA         0.1618
     16 P3B        -1.8364   -1.0586   -0.5907 P.3       1 COA        -1.1921
     17 O7A        -2.1459   -1.2889    0.8856 O.co2     1 COA         0.3195
     18 O8A        -2.1706   -2.2476   -1.4866 O.co2     1 COA         0.3195
     19 O9A        -2.3217    0.2823   -1.1335 O.co2     1 COA         0.3195
     20 C4B         0.5412    1.2713   -0.8394 C.3       1 COA         0.1111
     21 O4B         1.7485    1.1278   -1.6124 O.3       1 COA        -0.1436
     22 C5B         0.6184    2.5901   -0.0816 C.3       1 COA         0.1504
     23 O5B         0.6777    3.6562   -1.0149 O.3       1 COA         0.1618
     24 P1A         0.7670    5.1936   -0.4641 P.3       1 COA        -1.1062
     25 O1A         0.8194    6.1476   -1.6376 O.co2     1 COA         0.3195
     26 O2A         1.8029    5.2507    0.6375 O.co2     1 COA         0.3195
     27 O3A        -0.6886    5.3125    0.2679 O.3       1 COA         0.4672
     28 P2A        -1.1429    6.2040    1.5594 P.3       1 COA        -1.1062
     29 O4A        -2.6377    6.0612    1.7476 O.co2     1 COA         0.3195
     30 O5A        -0.1888    5.9134    2.6974 O.co2     1 COA         0.3195
     31 O6A        -0.8065    7.6957    0.9792 O.3       1 COA         0.1618
     32 CBP        -1.0090    9.5771   -0.5793 C.3       1 COA         0.0000
     33 CCP        -1.4652    8.1470   -0.1994 C.3       1 COA         0.1504
     34 CDP         0.5182    9.5632   -0.8289 C.3       1 COA         0.1179
     35 CEP        -1.6888   10.0085   -1.8940 C.3       1 COA         0.1179
     36 CAP        -1.3149   10.5877    0.5658 C.3       1 COA         0.0611
     37 OAP        -0.3519   11.6382    0.5524 O.3       1 COA        -0.2728
     38 C9P        -2.6876   11.2507    0.4734 C.2       1 COA         0.3561
     39 O9P        -2.8806   12.2731   -0.1822 O.2       1 COA        -0.2391
     40 N8P        -3.6636   10.5632    1.1768 N.am      1 COA        -0.1909
     41 C7P        -5.0458   10.9816    1.2180 C.3       1 COA         0.1160
     42 C6P        -5.8119   10.3347    0.0732 C.3       1 COA         0.0286
     43 C5P        -5.7825    8.8183    0.1403 C.2       1 COA         0.3561
     44 O5P        -5.2001    8.1958    1.0242 O.2       1 COA        -0.2391
     45 N4P        -6.4855    8.2475   -0.9105 N.am      1 COA        -0.1909
     46 C3P        -6.6139    6.8191   -1.0863 C.3       1 COA         0.1160
     47 C2P        -7.8333    6.2468   -0.3823 C.3       1 COA         0.2607
     48 S1P        -7.9823    4.4488   -0.6120 S.3       1 COA        -0.3539
     49 H2A         4.6492    4.1260    1.1552 H         1 COA        -0.1369
     50 H61A        8.7564    3.1335   -0.6708 H         1 COA         0.2048
     51 H62A        8.4991    1.6788   -1.5963 H         1 COA         0.2048
     52 H8A         4.7208   -1.1726   -2.4865 H         1 COA        -0.1292
     53 H1B         2.4085   -0.8200   -1.8256 H         1 COA        -0.0393
     54 H2B         2.3286    0.5212    0.9904 H         1 COA        -0.0393
     55 H3B        -0.0977    0.2245    0.9885 H         1 COA        -0.0393
     56 H4B        -0.2996    1.3083   -1.5416 H         1 COA        -0.0393
     57 H51A        1.5144    2.6204    0.5455 H         1 COA        -0.0393
     58 H52A       -0.2654    2.7227    0.5494 H         1 COA        -0.0393
     59 H121       -1.2324    7.4355   -0.9984 H         1 COA        -0.0393
     60 H122       -2.5440    8.1138   -0.0133 H         1 COA        -0.0393
     61 H131        0.8796   10.5616   -1.1013 H         1 COA        -0.0393
     62 H132        0.7886    8.8842   -1.6454 H         1 COA        -0.0393
     63 H133        1.0681    9.2399    0.0618 H         1 COA        -0.0393
     64 H141       -1.3855   11.0192   -2.1904 H         1 COA        -0.0393
     65 H142       -2.7797   10.0132   -1.7903 H         1 COA        -0.0393
     66 H143       -1.4280    9.3402   -2.7211 H         1 COA        -0.0393
     67 H10        -1.2314   10.0854    1.5378 H         1 COA        -0.0393
     68 HO1        -0.4241   12.0681   -0.3139 H         1 COA         0.2010
     69 HN8        -3.4169    9.7096    1.6684 H         1 COA         0.0865
     70 H71        -5.4791   10.6972    2.1821 H         1 COA        -0.0393
     71 H72        -5.0936   12.0728    1.1469 H         1 COA        -0.0393
     72 H61        -5.3857   10.6461   -0.8886 H         1 COA        -0.0393
     73 H62        -6.8593   10.6611    0.0891 H         1 COA        -0.0393
     74 HN4        -6.9300    8.8613   -1.5868 H         1 COA         0.0865
     75 H31        -6.6980    6.6510   -2.1631 H         1 COA        -0.0393
     76 H32        -5.6838    6.3586   -0.7437 H         1 COA        -0.0393
     77 H21        -7.8019    6.4576    0.6916 H         1 COA        -0.0393
     78 H22        -8.7370    6.7088   -0.7919 H         1 COA        -0.0393
     79 HS1        -6.8080    4.1391   -0.0469 H         1 COA         0.1718
@<TRIPOS>BOND
     1    1    2 ar
     2    1    6 ar
     3    2    3 ar
     4    2   49 1
     5    3    4 ar
     6    4    5 ar
     7    4   10 ar
     8    5    6 ar
     9    5    8 ar
    10    6    7 1
    11    7   50 1
    12    7   51 1
    13    8    9 ar
    14    9   10 ar
    15    9   52 1
    16   10   11 1
    17   11   12 1
    18   11   21 1
    19   11   53 1
    20   12   13 1
    21   12   14 1
    22   12   54 1
    23   14   15 1
    24   14   20 1
    25   14   55 1
    26   15   16 1
    27   16   17 2
    28   16   18 1
    29   16   19 1
    30   20   21 1
    31   20   22 1
    32   20   56 1
    33   22   23 1
    34   22   57 1
    35   22   58 1
    36   23   24 1
    37   24   25 2
    38   24   26 1
    39   24   27 1
    40   27   28 1
    41   28   29 2
    42   28   30 1
    43   28   31 1
    44   31   33 1
    45   32   33 1
    46   32   34 1
    47   32   35 1
    48   32   36 1
    49   33   59 1
    50   33   60 1
    51   34   61 1
    52   34   62 1
    53   34   63 1
    54   35   64 1
    55   35   65 1
    56   35   66 1
    57   36   37 1
    58   36   38 1
    59   36   67 1
    60   37   68 1
    61   38   39 2
    62   38   40 am
    63   40   41 1
    64   40   69 1
    65   41   42 1
    66   41   70 1
    67   41   71 1
    68   42   43 1
    69   42   72 1
    70   42   73 1
    71   43   44 2
    72   43   45 am
    73   45   46 1
    74   45   74 1
    75   46   47 1
    76   46   75 1
    77   46   76 1
    78   47   48 1
    79   47   77 1
    80   47   78 1
    81   48   79 1
@<TRIPOS>SUBSTRUCTURE
     1 COA         1 GROUP 0 A     ****
@<TRIPOS>MOLECULE
[5-(6-aminopurin-9-yl)-2-[[[[3-hydroxy-2,2-dimethyl-4-oxo-4-[[3-oxo-3-(2-sulfanylethylamino)propyl]amino]butoxy]-oxido-phosphoryl]oxy-oxido-phosphoryl]oxymethyl]-4-oxido-tetrahydrofuran-3-yl] phosphate
   79    81     1     0     0
SMALL
USER_CHARGES

@<TRIPOS>ATOM
      1 N1A         4.6908    0.9263    0.5284 N.ar      1 COA        -0.5260
      2 C2A         3.4193    1.3931    0.4919 C.ar      1 COA         0.6629
      3 N3A         2.4653    1.1803   -0.4405 N.ar      1 COA        -0.5260
      4 C4A         2.9338    0.3916   -1.4192 C.ar      1 COA         0.5212
      5 C5A         4.2020   -0.1580   -1.5185 C.ar      1 COA         0.0088
      6 C6A         5.0963    0.1348   -0.4937 C.ar      1 COA         0.5212
      7 N6A         6.4038   -0.3801   -0.5131 N.pl3     1 COA        -0.6025
      8 N7A         4.3170   -0.9111   -2.6598 N.2       1 COA        -0.4271
      9 C8A         3.1403   -0.8212   -3.2436 C.ar      1 COA         0.5691
     10 N9A         2.2683   -0.0422   -2.5302 N.pl3     1 COA        -0.5033
     11 C1B         0.8363    0.2748   -2.9142 C.3       1 COA         0.2693
     12 C2B        -0.3043   -0.1391   -1.9549 C.3       1 COA         0.2008
     13 O2B        -0.6991   -1.3747   -2.2004 O.co2     1 COA        -0.1615
     14 C3B        -1.3853    0.8773   -2.3558 C.3       1 COA         0.1111
     15 O3B        -2.0094    0.5576   -3.6033 O.3       1 COA         0.1618
     16 P3B        -3.4806    1.2180   -3.9334 P.3       1 COA        -1.1921
     17 O7A        -4.3962    0.7100   -2.8235 O.co2     1 COA         0.3195
     18 O8A        -3.8112    0.6588   -5.3140 O.co2     1 COA         0.3195
     19 O9A        -3.2466    2.7257   -3.9151 O.co2     1 COA         0.3195
     20 C4B        -0.5713    2.1464   -2.5855 C.3       1 COA         0.1111
     21 O4B         0.7211    1.7136   -3.0526 O.3       1 COA        -0.1436
     22 C5B        -0.3655    2.9745   -1.3239 C.3       1 COA         0.1504
     23 O5B         0.3986    4.1249   -1.6460 O.3       1 COA         0.1618
     24 P1A         0.7670    5.1936   -0.4641 P.3       1 COA        -1.1062
     25 O1A         1.1289    6.5260   -1.0837 O.co2     1 COA         0.3195
     26 O2A         1.6876    4.5161    0.5275 O.co2     1 COA         0.3195
     27 O3A        -0.6886    5.3125    0.2679 O.3       1 COA         0.4672
     28 P2A        -1.1429    6.2040    1.5594 P.3       1 COA        -1.1062
     29 O4A        -2.6377    6.0612    1.7476 O.co2     1 COA         0.3195
     30 O5A        -0.1888    5.9134    2.6974 O.co2     1 COA         0.3195
     31 O6A        -0.8065    7.6957    0.9792 O.3       1 COA         0.1618
     32 CBP        -1.0090    9.5771   -0.5793 C.3       1 COA         0.0000
     33 CCP        -1.4652    8.1470   -0.1994 C.3       1 COA         0.1504
     34 CDP         0.5182    9.5632   -0.8289 C.3       1 COA         0.1179
     35 CEP        -1.6888   10.0085   -1.8940 C.3       1 COA         0.1179
     36 CAP        -1.3149   10.5877    0.5658 C.3       1 COA         0.0611
     37 OAP        -0.3519   11.6382    0.5524 O.3       1 COA        -0.2728
     38 C9P        -2.6876   11.2507    0.4734 C.2       1 COA         0.3561
     39 O9P        -2.8806   12.2731   -0.1822 O.2       1 COA        -0.2391
     40 N8P        -3.6636   10.5632    1.1768 N.am      1 COA        -0.1909
     41 C7P        -5.0458   10.9816    1.2180 C.3       1 COA         0.1160
     42 C6P        -5.8119   10.3347    0.0732 C.3       1 COA         0.0286
     43 C5P        -5.7825    8.8183    0.1403 C.2       1 COA         0.3561
     44 O5P        -5.2001    8.1958    1.0242 O.2       1 COA        -0.2391
     45 N4P        -6.4855    8.2475   -0.9105 N.am      1 COA        -0.1909
     46 C3P        -6.6139    6.8191   -1.0863 C.3       1 COA         0.1160
     47 C2P        -5.4991    6.2278   -1.9335 C.3       1 COA         0.2607
     48 S1P        -5.6735    4.4301   -2.1464 S.3       1 COA        -0.3539
     49 H2A         3.1287    2.0232    1.3259 H         1 COA        -0.1369
     50 H61A        7.0472   -0.1189    0.2098 H         1 COA         0.2048
     51 H62A        6.7069   -0.9256   -1.2976 H         1 COA         0.2048
     52 H8A         2.8628   -1.2932   -4.1762 H         1 COA        -0.1292
     53 H1B         0.7316   -0.1451   -3.9582 H         1 COA        -0.0393
     54 H2B         0.0098    0.1350   -0.9357 H         1 COA        -0.0393
     55 H3B        -2.1756    1.0002   -1.6070 H         1 COA        -0.0393
     56 H4B        -1.0101    2.7804   -3.3646 H         1 COA        -0.0393
     57 H51A        0.1721    2.3946   -0.5677 H         1 COA        -0.0393
     58 H52A       -1.3279    3.2941   -0.9132 H         1 COA        -0.0393
     59 H121       -1.2324    7.4355   -0.9984 H         1 COA        -0.0393
     60 H122       -2.5440    8.1138   -0.0133 H         1 COA        -0.0393
     61 H131        0.8796   10.5616   -1.1013 H         1 COA        -0.0393
     62 H132        0.7886    8.8842   -1.6454 H         1 COA        -0.0393
     63 H133        1.0681    9.2399    0.0618 H         1 COA        -0.0393
     64 H141       -1.3855   11.0192   -2.1904 H         1 COA        -0.0393
     65 H142       -2.7797   10.0132   -1.7903 H         1 COA        -0.0393
     66 H143       -1.4280    9.3402   -2.7211 H         1 COA        -0.0393
     67 H10        -1.2314   10.0854    1.5378 H         1 COA        -0.0393
     68 HO1        -0.4241   12.0681   -0.3139 H         1 COA         0.2010
     69 HN8        -3.4169    9.7096    1.6684 H         1 COA         0.0865
     70 H71        -5.4791   10.6972    2.1821 H         1 COA        -0.0393
     71 H72        -5.0936   12.0728    1.1469 H         1 COA        -0.0393
     72 H61        -5.3857   10.6461   -0.8886 H         1 COA        -0.0393
     73 H62        -6.8593   10.6611    0.0891 H         1 COA        -0.0393
     74 HN4        -6.9300    8.8613   -1.5868 H         1 COA         0.0865
     75 H31        -6.5840    6.3847   -0.0836 H         1 COA        -0.0393
     76 H32        -7.6028    6.6255   -1.5093 H         1 COA        -0.0393
     77 H21        -5.4698    6.6930   -2.9242 H         1 COA        -0.0393
     78 H22        -4.5374    6.4115   -1.4445 H         1 COA        -0.0393
     79 HS1        -5.6107    4.1294   -0.8426 H         1 COA         0.1718
@<TRIPOS>BOND
     1    1    2 ar
     2    1    6 ar
     3    2    3 ar
     4    2   49 1
     5    3    4 ar
     6    4    5 ar
     7    4   10 ar
     8    5    6 ar
     9    5    8 ar
    10    6    7 1
    11    7   50 1
    12    7   51 1
    13    8    9 ar
    14    9   10 ar
    15    9   52 1
    16   10   11 1
    17   11   12 1
    18   11   21 1
    19   11   53 1
    20   12   13 1
    21   12   14 1
    22   12   54 1
    23   14   15 1
    24   14   20 1
    25   14   55 1
    26   15   16 1
    27   16   17 2
    28   16   18 1
    29   16   19 1
    30   20   21 1
    31   20   22 1
    32   20   56 1
    33   22   23 1
    34   22   57 1
    35   22   58 1
    36   23   24 1
    37   24   25 2
    38   24   26 1
    39   24   27 1
    40   27   28 1
    41   28   29 2
    42   28   30 1
    43   28   31 1
    44   31   33 1
    45   32   33 1
    46   32   34 1
    47   32   35 1
    48   32   36 1
    49   33   59 1
    50   33   60 1
    51   34   61 1
    52   34   62 1
    53   34   63 1
    54   35   64 1
    55   35   65 1
    56   35   66 1
    57   36   37 1
    58   36   38 1
    59   36   67 1
    60   37   68 1
    61   38   39 2
    62   38   40 am
    63   40   41 1
    64   40   69 1
    65   41   42 1
    66   41   70 1
    67   41   71 1
    68   42   43 1
    69   42   72 1
    70   42   73 1
    71   43   44 2
    72   43   45 am
    73   45   46 1
    74   45   74 1
    75   46   47 1
    76   46   75 1
    77   46   76 1
    78   47   48 1
    79   47   77 1
    80   47   78 1
    81   48   79 1
@<TRIPOS>SUBSTRUCTURE
     1 COA         1 GROUP 0 A     ****
@<TRIPOS>MOLECULE
[5-(6-aminopurin-9-yl)-2-[[[[3-hydroxy-2,2-dimethyl-4-oxo-4-[[3-oxo-3-(2-sulfanylethylamino)propyl]amino]butoxy]-oxido-phosphoryl]oxy-oxido-phosphoryl]oxymethyl]-4-oxido-tetrahydrofuran-3-yl] phosphate
   79    81     1     0     0
SMALL
USER_CHARGES

@<TRIPOS>ATOM
      1 N1A         5.7146    2.0302   -0.7890 N.ar      1 COA        -0.5260
      2 C2A         4.3962    2.1571   -0.5034 C.ar      1 COA         0.6629
      3 N3A         3.3299    1.7526   -1.2276 N.ar      1 COA        -0.5260
      4 C4A         3.7311    1.1587   -2.3614 C.ar      1 COA         0.5212
      5 C5A         5.0346    0.9576   -2.7868 C.ar      1 COA         0.0088
      6 C6A         6.0470    1.4195   -1.9517 C.ar      1 COA         0.5212
      7 N6A         7.3978    1.2581   -2.3043 N.pl3     1 COA        -0.6025
      8 N7A         5.0562    0.3154   -3.9993 N.2       1 COA        -0.4271
      9 C8A         3.7892    0.1293   -4.3054 C.ar      1 COA         0.5691
     10 N9A         2.9479    0.6234   -3.3440 N.pl3     1 COA        -0.5033
     11 C1B         1.4328    0.5815   -3.3775 C.3       1 COA         0.2693
     12 C2B         0.6799   -0.1567   -2.2458 C.3       1 COA         0.2008
     13 O2B         0.5449   -1.4388   -2.5302 O.co2     1 COA        -0.1615
     14 C3B        -0.6749    0.5672   -2.2968 C.3       1 COA         0.1111
     15 O3B        -1.4782    0.1594   -3.4088 O.3       1 COA         0.1618
     16 P3B        -3.0996    0.4363   -3.3454 P.3       1 COA        -1.1921
     17 O7A        -3.5828   -0.3425   -2.1254 O.co2     1 COA         0.3195
     18 O8A        -3.6001   -0.1211   -4.6746 O.co2     1 COA         0.3195
     19 O9A        -3.2339    1.9510   -3.2185 O.co2     1 COA         0.3195
     20 C4B        -0.2635    2.0121   -2.5599 C.3       1 COA         0.1111
     21 O4B         0.9490    1.9478   -3.3354 O.3       1 COA        -0.1436
     22 C5B         0.0275    2.8029   -1.2913 C.3       1 COA         0.1504
     23 O5B         0.3986    4.1249   -1.6460 O.3       1 COA         0.1618
     24 P1A         0.7670    5.1936   -0.4641 P.3       1 COA        -1.1062
     25 O1A         1.1289    6.5260   -1.0837 O.co2     1 COA         0.3195
     26 O2A         1.6876    4.5161    0.5275 O.co2     1 COA         0.3195
     27 O3A        -0.6886    5.3125    0.2679 O.3       1 COA         0.4672
     28 P2A        -1.1429    6.2040    1.5594 P.3       1 COA        -1.1062
     29 O4A        -2.6377    6.0612    1.7476 O.co2     1 COA         0.3195
     30 O5A        -0.1888    5.9134    2.6974 O.co2     1 COA         0.3195
     31 O6A        -0.8065    7.6957    0.9792 O.3       1 COA         0.1618
     32 CBP        -1.0090    9.5771   -0.5793 C.3       1 COA         0.0000
     33 CCP        -1.4652    8.1470   -0.1994 C.3       1 COA         0.1504
     34 CDP         0.5182    9.5632   -0.8289 C.3       1 COA         0.1179
     35 CEP        -1.6888   10.0085   -1.8940 C.3       1 COA         0.1179
     36 CAP        -1.3149   10.5877    0.5658 C.3       1 COA         0.0611
     37 OAP        -0.6287   10.1955    1.7518 O.3       1 COA        -0.2728
     38 C9P        -0.8916   12.0249    0.2699 C.2       1 COA         0.3561
     39 O9P         0.2422   12.4378    0.5067 O.2       1 COA        -0.2391
     40 N8P        -1.9050   12.7747   -0.3052 N.am      1 COA        -0.1909
     41 C7P        -1.7368   14.1547   -0.6986 C.3       1 COA         0.1160
     42 C6P        -1.2514   14.2219   -2.1393 C.3       1 COA         0.0286
     43 C5P        -1.0533   15.6490   -2.6178 C.2       1 COA         0.3561
     44 O5P        -1.7129   16.5962   -2.1986 O.2       1 COA        -0.2391
     45 N4P        -0.0502   15.7324   -3.5723 N.am      1 COA        -0.1909
     46 C3P         0.3402   16.9759   -4.1957 C.3       1 COA         0.1160
     47 C2P         1.4451   17.6930   -3.4373 C.3       1 COA         0.2607
     48 S1P         1.9263   19.2560   -4.2330 S.3       1 COA        -0.3539
     49 H2A         4.1666    2.6505    0.4351 H         1 COA        -0.1369
     50 H61A        8.1108    1.6399   -1.7121 H         1 COA         0.2048
     51 H62A        7.6305    0.8472   -3.1886 H         1 COA         0.2048
     52 H8A         3.4224   -0.3522   -5.2016 H         1 COA        -0.1292
     53 H1B         1.1905    0.2000   -4.4133 H         1 COA        -0.0393
     54 H2B         1.1486    0.1388   -1.2941 H         1 COA        -0.0393
     55 H3B        -1.2745    0.4471   -1.3878 H         1 COA        -0.0393
     56 H4B        -1.0100    2.5497   -3.1559 H         1 COA        -0.0393
     57 H51A        0.8489    2.3441   -0.7330 H         1 COA        -0.0393
     58 H52A       -0.8601    2.8452   -0.6531 H         1 COA        -0.0393
     59 H121       -1.2324    7.4355   -0.9984 H         1 COA        -0.0393
     60 H122       -2.5440    8.1138   -0.0133 H         1 COA        -0.0393
     61 H131        0.8796   10.5616   -1.1013 H         1 COA        -0.0393
     62 H132        0.7886    8.8842   -1.6454 H         1 COA        -0.0393
     63 H133        1.0681    9.2399    0.0618 H         1 COA        -0.0393
     64 H141       -1.3855   11.0192   -2.1904 H         1 COA        -0.0393
     65 H142       -2.7797   10.0132   -1.7903 H         1 COA        -0.0393
     66 H143       -1.4280    9.3402   -2.7211 H         1 COA        -0.0393
     67 H10        -2.3880   10.5770    0.7950 H         1 COA        -0.0393
     68 HO1         0.3169   10.1957    1.5366 H         1 COA         0.2010
     69 HN8        -2.8042   12.3405   -0.4899 H         1 COA         0.0865
     70 H71        -2.6911   14.6793   -0.5876 H         1 COA        -0.0393
     71 H72        -1.0190   14.6354   -0.0263 H         1 COA        -0.0393
     72 H61        -1.9744   13.7322   -2.8035 H         1 COA        -0.0393
     73 H62        -0.2983   13.6879   -2.2410 H         1 COA        -0.0393
     74 HN4         0.4315   14.8807   -3.8452 H         1 COA         0.0865
     75 H31         0.6902   16.7174   -5.1985 H         1 COA        -0.0393
     76 H32        -0.5576   17.5905   -4.2989 H         1 COA        -0.0393
     77 H21         1.1396   17.9077   -2.4081 H         1 COA        -0.0393
     78 H22         2.3324   17.0533   -3.4008 H         1 COA        -0.0393
     79 HS1         0.7196   19.8315   -4.1491 H         1 COA         0.1718
@<TRIPOS>BOND
     1    1    2 ar
     2    1    6 ar
     3    2    3 ar
     4    2   49 1
     5    3    4 ar
     6    4    5 ar
     7    4   10 ar
     8    5    6 ar
     9    5    8 ar
    10    6    7 1
    11    7   50 1
    12    7   51 1
    13    8    9 ar
    14    9   10 ar
    15    9   52 1
    16   10   11 1
    17   11   12 1
    18   11   21 1
    19   11   53 1
    20   12   13 1
    21   12   14 1
    22   12   54 1
    23   14   15 1
    24   14   20 1
    25   14   55 1
    26   15   16 1
    27   16   17 2
    28   16   18 1
    29   16   19 1
    30   20   21 1
    31   20   22 1
    32   20   56 1
    33   22   23 1
    34   22   57 1
    35   22   58 1
    36   23   24 1
    37   24   25 2
    38   24   26 1
    39   24   27 1
    40   27   28 1
    41   28   29 2
    42   28   30 1
    43   28   31 1
    44   31   33 1
    45   32   33 1
    46   32   34 1
    47   32   35 1
    48   32   36 1
    49   33   59 1
    50   33   60 1
    51   34   61 1
    52   34   62 1
    53   34   63 1
    54   35   64 1
    55   35   65 1
    56   35   66 1
    57   36   37 1
    58   36   38 1
    59   36   67 1
    60   37   68 1
    61   38   39 2
    62   38   40 am
    63   40   41 1
    64   40   69 1
    65   41   42 1
    66   41   70 1
    67   41   71 1
    68   42   43 1
    69   42   72 1
    70   42   73 1
    71   43   44 2
    72   43   45 am
    73   45   46 1
    74   45   74 1
    75   46   47 1
    76   46   75 1
    77   46   76 1
    78   47   48 1
    79   47   77 1
    80   47   78 1
    81   48   79 1
@<TRIPOS>SUBSTRUCTURE
     1 COA         1 GROUP 0 A     ****
@<TRIPOS>MOLECULE
[5-(6-aminopurin-9-yl)-2-[[[[3-hydroxy-2,2-dimethyl-4-oxo-4-[[3-oxo-3-(2-sulfanylethylamino)propyl]amino]butoxy]-oxido-phosphoryl]oxy-oxido-phosphoryl]oxymethyl]-4-oxido-tetrahydrofuran-3-yl] phosphate
   79    81     1     0     0
SMALL
USER_CHARGES

@<TRIPOS>ATOM
      1 N1A         6.3197    3.3711    0.1967 N.ar      1 COA        -0.5260
      2 C2A         5.0033    3.3256    0.5141 C.ar      1 COA         0.6629
      3 N3A         4.0730    2.4196    0.1418 N.ar      1 COA        -0.5260
      4 C4A         4.6208    1.4811   -0.6447 C.ar      1 COA         0.5212
      5 C5A         5.9423    1.3962   -1.0530 C.ar      1 COA         0.0088
      6 C6A         6.8050    2.3902   -0.6021 C.ar      1 COA         0.5212
      7 N6A         8.1621    2.3826   -0.9671 N.pl3     1 COA        -0.6025
      8 N7A         6.1335    0.2987   -1.8543 N.2       1 COA        -0.4271
      9 C8A         4.9500   -0.2731   -1.9316 C.ar      1 COA         0.5691
     10 N9A         4.0006    0.4065   -1.2155 N.pl3     1 COA        -0.5033
     11 C1B         2.5376    0.0288   -1.0907 C.3       1 COA         0.2693
     12 C2B         1.9579   -0.2640    0.3131 C.3       1 COA         0.2008
     13 O2B         2.1299   -1.5323    0.6368 O.co2     1 COA        -0.1615
     14 C3B         0.4729    0.0487    0.0699 C.3       1 COA         0.1111
     15 O3B        -0.1943   -0.9780   -0.6709 O.3       1 COA         0.1618
     16 P3B        -1.8364   -1.0586   -0.5907 P.3       1 COA        -1.1921
     17 O7A        -2.1459   -1.2889    0.8856 O.co2     1 COA         0.3195
     18 O8A        -2.1706   -2.2476   -1.4866 O.co2     1 COA         0.3195
     19 O9A        -2.3217    0.2823   -1.1335 O.co2     1 COA         0.3195
     20 C4B         0.5412    1.2713   -0.8394 C.3       1 COA         0.1111
     21 O4B         1.7485    1.1278   -1.6124 O.3       1 COA        -0.1436
     22 C5B         0.6184    2.5901   -0.0816 C.3       1 COA         0.1504
     23 O5B         0.6777    3.6562   -1.0149 O.3       1 COA         0.1618
     24 P1A         0.7670    5.1936   -0.4641 P.3       1 COA        -1.1062
     25 O1A         0.8194    6.1476   -1.6376 O.co2     1 COA         0.3195
     26 O2A         1.8029    5.2507    0.6375 O.co2     1 COA         0.3195
     27 O3A        -0.6886    5.3125    0.2679 O.3       1 COA         0.4672
     28 P2A        -1.1429    6.2040    1.5594 P.3       1 COA        -1.1062
     29 O4A        -2.6377    6.0612    1.7476 O.co2     1 COA         0.3195
     30 O5A        -0.1888    5.9134    2.6974 O.co2     1 COA         0.3195
     31 O6A        -0.8065    7.6957    0.9792 O.3       1 COA         0.1618
     32 CBP        -1.0463    9.4480   -0.7182 C.3       1 COA         0.0000
     33 CCP        -1.7297    8.3208    0.0940 C.3       1 COA         0.1504
     34 CDP         0.1097    8.8359   -1.5452 C.3       1 COA         0.1179
     35 CEP        -2.0542   10.0578   -1.7127 C.3       1 COA         0.1179
     36 CAP        -0.4581   10.5415    0.2222 C.3       1 COA         0.0611
     37 OAP         0.1628   11.5628   -0.5541 O.3       1 COA        -0.2728
     38 C9P        -1.4903   11.2331    1.1103 C.2       1 COA         0.3561
     39 O9P        -2.1297   12.2135    0.7334 O.2       1 COA        -0.2391
     40 N8P        -1.6312   10.6209    2.3453 N.am      1 COA        -0.1909
     41 C7P        -2.5657   11.0776    3.3480 C.3       1 COA         0.1160
     42 C6P        -3.9028   10.3754    3.1609 C.3       1 COA         0.0286
     43 C5P        -4.9344   10.8112    4.1860 C.2       1 COA         0.3561
     44 O5P        -4.7021   11.6377    5.0640 O.2       1 COA        -0.2391
     45 N4P        -6.1453   10.1609    3.9992 N.am      1 COA        -0.1909
     46 C3P        -7.2983   10.3897    4.8394 C.3       1 COA         0.1160
     47 C2P        -8.1877   11.5102    4.3258 C.3       1 COA         0.2607
     48 S1P        -8.8322   11.1709    2.6593 S.3       1 COA        -0.3539
     49 H2A         4.6492    4.1260    1.1552 H         1 COA        -0.1369
     50 H61A        8.7564    3.1335   -0.6708 H         1 COA         0.2048
     51 H62A        8.4991    1.6788   -1.5963 H         1 COA         0.2048
     52 H8A         4.7208   -1.1726   -2.4865 H         1 COA        -0.1292
     53 H1B         2.4085   -0.8200   -1.8256 H         1 COA        -0.0393
     54 H2B         2.3286    0.5212    0.9904 H         1 COA        -0.0393
     55 H3B        -0.0977    0.2245    0.9885 H         1 COA        -0.0393
     56 H4B        -0.2996    1.3083   -1.5416 H         1 COA        -0.0393
     57 H51A        1.5144    2.6204    0.5455 H         1 COA        -0.0393
     58 H52A       -0.2654    2.7227    0.5494 H         1 COA        -0.0393
     59 H121       -2.1262    7.5446   -0.5686 H         1 COA        -0.0393
     60 H122       -2.5562    8.7139    0.6956 H         1 COA        -0.0393
     61 H131        0.6194    9.6060   -2.1356 H         1 COA        -0.0393
     62 H132       -0.2524    8.0744   -2.2449 H         1 COA        -0.0393
     63 H133        0.8566    8.3597   -0.9005 H         1 COA        -0.0393
     64 H141       -1.5995   10.8607   -2.3043 H         1 COA        -0.0393
     65 H142       -2.9149   10.4873   -1.1878 H         1 COA        -0.0393
     66 H143       -2.4255    9.3094   -2.4205 H         1 COA        -0.0393
     67 H10         0.3192   10.1040    0.8613 H         1 COA        -0.0393
     68 HO1        -0.5280   11.9349   -1.1241 H         1 COA         0.2010
     69 HN8        -1.0789    9.7962    2.5598 H         1 COA         0.0865
     70 H71        -2.1565   10.8706    4.3420 H         1 COA        -0.0393
     71 H72        -2.6837   12.1625    3.2621 H         1 COA        -0.0393
     72 H61        -3.7724    9.2891    3.2426 H         1 COA        -0.0393
     73 H62        -4.3008   10.5838    2.1599 H         1 COA        -0.0393
     74 HN4        -6.2251    9.4936    3.2375 H         1 COA         0.0865
     75 H31        -7.8584    9.4511    4.8506 H         1 COA        -0.0393
     76 H32        -6.9365   10.5797    5.8531 H         1 COA        -0.0393
     77 H21        -9.0355   11.6781    4.9978 H         1 COA        -0.0393
     78 H22        -7.6077   12.4369    4.2740 H         1 COA        -0.0393
     79 HS1        -7.6358   11.0826    2.0633 H         1 COA         0.1718
@<TRIPOS>BOND
     1    1    2 ar
     2    1    6 ar
     3    2    3 ar
     4    2   49 1
     5    3    4 ar
     6    4    5 ar
     7    4   10 ar
     8    5    6 ar
     9    5    8 ar
    10    6    7 1
    11    7   50 1
    12    7   51 1
    13    8    9 ar
    14    9   10 ar
    15    9   52 1
    16   10   11 1
    17   11   12 1
    18   11   21 1
    19   11   53 1
    20   12   13 1
    21   12   14 1
    22   12   54 1
    23   14   15 1
    24   14   20 1
    25   14   55 1
    26   15   16 1
    27   16   17 2
    28   16   18 1
    29   16   19 1
    30   20   21 1
    31   20   22 1
    32   20   56 1
    33   22   23 1
    34   22   57 1
    35   22   58 1
    36   23   24 1
    37   24   25 2
    38   24   26 1
    39   24   27 1
    40   27   28 1
    41   28   29 2
    42   28   30 1
    43   28   31 1
    44   31   33 1
    45   32   33 1
    46   32   34 1
    47   32   35 1
    48   32   36 1
    49   33   59 1
    50   33   60 1
    51   34   61 1
    52   34   62 1
    53   34   63 1
    54   35   64 1
    55   35   65 1
    56   35   66 1
    57   36   37 1
    58   36   38 1
    59   36   67 1
    60   37   68 1
    61   38   39 2
    62   38   40 am
    63   40   41 1
    64   40   69 1
    65   41   42 1
    66   41   70 1
    67   41   71 1
    68   42   43 1
    69   42   72 1
    70   42   73 1
    71   43   44 2
    72   43   45 am
    73   45   46 1
    74   45   74 1
    75   46   47 1
    76   46   75 1
    77   46   76 1
    78   47   48 1
    79   47   77 1
    80   47   78 1
    81   48   79 1
@<TRIPOS>SUBSTRUCTURE
     1 COA         1 GROUP 0 A     ****
@<TRIPOS>MOLECULE
[5-(6-aminopurin-9-yl)-2-[[[[3-hydroxy-2,2-dimethyl-4-oxo-4-[[3-oxo-3-(2-sulfanylethylamino)propyl]amino]butoxy]-oxido-phosphoryl]oxy-oxido-phosphoryl]oxymethyl]-4-oxido-tetrahydrofuran-3-yl] phosphate
   79    81     1     0     0
SMALL
USER_CHARGES

@<TRIPOS>ATOM
      1 N1A         6.3197    3.3711    0.1967 N.ar      1 COA        -0.5260
      2 C2A         5.0033    3.3256    0.5141 C.ar      1 COA         0.6629
      3 N3A         4.0730    2.4196    0.1418 N.ar      1 COA        -0.5260
      4 C4A         4.6208    1.4811   -0.6447 C.ar      1 COA         0.5212
      5 C5A         5.9423    1.3962   -1.0530 C.ar      1 COA         0.0088
      6 C6A         6.8050    2.3902   -0.6021 C.ar      1 COA         0.5212
      7 N6A         8.1621    2.3826   -0.9671 N.pl3     1 COA        -0.6025
      8 N7A         6.1335    0.2987   -1.8543 N.2       1 COA        -0.4271
      9 C8A         4.9500   -0.2731   -1.9316 C.ar      1 COA         0.5691
     10 N9A         4.0006    0.4065   -1.2155 N.pl3     1 COA        -0.5033
     11 C1B         2.5376    0.0288   -1.0907 C.3       1 COA         0.2693
     12 C2B         1.9579   -0.2640    0.3131 C.3       1 COA         0.2008
     13 O2B         2.1299   -1.5323    0.6368 O.co2     1 COA        -0.1615
     14 C3B         0.4729    0.0487    0.0699 C.3       1 COA         0.1111
     15 O3B        -0.1943   -0.9780   -0.6709 O.3       1 COA         0.1618
     16 P3B        -1.8364   -1.0586   -0.5907 P.3       1 COA        -1.1921
     17 O7A        -2.1459   -1.2889    0.8856 O.co2     1 COA         0.3195
     18 O8A        -2.1706   -2.2476   -1.4866 O.co2     1 COA         0.3195
     19 O9A        -2.3217    0.2823   -1.1335 O.co2     1 COA         0.3195
     20 C4B         0.5412    1.2713   -0.8394 C.3       1 COA         0.1111
     21 O4B         1.7485    1.1278   -1.6124 O.3       1 COA        -0.1436
     22 C5B         0.6184    2.5901   -0.0816 C.3       1 COA         0.1504
     23 O5B         0.6777    3.6562   -1.0149 O.3       1 COA         0.1618
     24 P1A         0.7670    5.1936   -0.4641 P.3       1 COA        -1.1062
     25 O1A         0.8194    6.1476   -1.6376 O.co2     1 COA         0.3195
     26 O2A         1.8029    5.2507    0.6375 O.co2     1 COA         0.3195
     27 O3A        -0.6886    5.3125    0.2679 O.3       1 COA         0.4672
     28 P2A        -1.1429    6.2040    1.5594 P.3       1 COA        -1.1062
     29 O4A        -2.6377    6.0612    1.7476 O.co2     1 COA         0.3195
     30 O5A        -0.1888    5.9134    2.6974 O.co2     1 COA         0.3195
     31 O6A        -0.8065    7.6957    0.9792 O.3       1 COA         0.1618
     32 CBP        -1.0090    9.5771   -0.5793 C.3       1 COA         0.0000
     33 CCP        -1.4652    8.1470   -0.1994 C.3       1 COA         0.1504
     34 CDP         0.5182    9.5632   -0.8289 C.3       1 COA         0.1179
     35 CEP        -1.6888   10.0085   -1.8940 C.3       1 COA         0.1179
     36 CAP        -1.3149   10.5877    0.5658 C.3       1 COA         0.0611
     37 OAP        -0.8841   11.8921    0.1862 O.3       1 COA        -0.2728
     38 C9P        -2.7940   10.7032    0.9282 C.2       1 COA         0.3561
     39 O9P        -3.6891   10.4664    0.1190 O.2       1 COA        -0.2391
     40 N8P        -2.9952   11.0709    2.2489 N.am      1 COA        -0.1909
     41 C7P        -4.3082   11.2196    2.8331 C.3       1 COA         0.1160
     42 C6P        -4.7902   12.6519    2.6541 C.3       1 COA         0.0286
     43 C5P        -3.8690   13.6602    3.3171 C.2       1 COA         0.3561
     44 O5P        -3.2066   13.4077    4.3198 O.2       1 COA        -0.2391
     45 N4P        -3.8807   14.8769    2.6511 N.am      1 COA        -0.1909
     46 C3P        -3.0939   16.0124    3.0743 C.3       1 COA         0.1160
     47 C2P        -1.7139   16.0423    2.4379 C.3       1 COA         0.2607
     48 S1P        -1.7927   16.1265    0.6229 S.3       1 COA        -0.3539
     49 H2A         4.6492    4.1260    1.1552 H         1 COA        -0.1369
     50 H61A        8.7564    3.1335   -0.6708 H         1 COA         0.2048
     51 H62A        8.4991    1.6788   -1.5963 H         1 COA         0.2048
     52 H8A         4.7208   -1.1726   -2.4865 H         1 COA        -0.1292
     53 H1B         2.4085   -0.8200   -1.8256 H         1 COA        -0.0393
     54 H2B         2.3286    0.5212    0.9904 H         1 COA        -0.0393
     55 H3B        -0.0977    0.2245    0.9885 H         1 COA        -0.0393
     56 H4B        -0.2996    1.3083   -1.5416 H         1 COA        -0.0393
     57 H51A        1.5144    2.6204    0.5455 H         1 COA        -0.0393
     58 H52A       -0.2654    2.7227    0.5494 H         1 COA        -0.0393
     59 H121       -1.2324    7.4355   -0.9984 H         1 COA        -0.0393
     60 H122       -2.5440    8.1138   -0.0133 H         1 COA        -0.0393
     61 H131        0.8796   10.5616   -1.1013 H         1 COA        -0.0393
     62 H132        0.7886    8.8842   -1.6454 H         1 COA        -0.0393
     63 H133        1.0681    9.2399    0.0618 H         1 COA        -0.0393
     64 H141       -1.3855   11.0192   -2.1904 H         1 COA        -0.0393
     65 H142       -2.7797   10.0132   -1.7903 H         1 COA        -0.0393
     66 H143       -1.4280    9.3402   -2.7211 H         1 COA        -0.0393
     67 H10        -0.7524   10.3112    1.4665 H         1 COA        -0.0393
     68 HO1        -1.3767   12.1229   -0.6167 H         1 COA         0.2010
     69 HN8        -2.1931   11.2196    2.8537 H         1 COA         0.0865
     70 H71        -4.9972   10.5174    2.3529 H         1 COA        -0.0393
     71 H72        -4.2613   10.9576    3.8948 H         1 COA        -0.0393
     72 H61        -5.7939   12.7678    3.0816 H         1 COA        -0.0393
     73 H62        -4.8581   12.8958    1.5864 H         1 COA        -0.0393
     74 HN4        -4.4690   14.9740    1.8286 H         1 COA         0.0865
     75 H31        -3.6561   16.9011    2.7759 H         1 COA        -0.0393
     76 H32        -3.0461   15.9933    4.1661 H         1 COA        -0.0393
     77 H21        -1.1330   16.8968    2.7997 H         1 COA        -0.0393
     78 H22        -1.1736   15.1284    2.7037 H         1 COA        -0.0393
     79 HS1        -2.4639   14.9788    0.4599 H         1 COA         0.1718
@<TRIPOS>BOND
     1    1    2 ar
     2    1    6 ar
     3    2    3 ar
     4    2   49 1
     5    3    4 ar
     6    4    5 ar
     7    4   10 ar
     8    5    6 ar
     9    5    8 ar
    10    6    7 1
    11    7   50 1
    12    7   51 1
    13    8    9 ar
    14    9   10 ar
    15    9   52 1
    16   10   11 1
    17   11   12 1
    18   11   21 1
    19   11   53 1
    20   12   13 1
    21   12   14 1
    22   12   54 1
    23   14   15 1
    24   14   20 1
    25   14   55 1
    26   15   16 1
    27   16   17 2
    28   16   18 1
    29   16   19 1
    30   20   21 1
    31   20   22 1
    32   20   56 1
    33   22   23 1
    34   22   57 1
    35   22   58 1
    36   23   24 1
    37   24   25 2
    38   24   26 1
    39   24   27 1
    40   27   28 1
    41   28   29 2
    42   28   30 1
    43   28   31 1
    44   31   33 1
    45   32   33 1
    46   32   34 1
    47   32   35 1
    48   32   36 1
    49   33   59 1
    50   33   60 1
    51   34   61 1
    52   34   62 1
    53   34   63 1
    54   35   64 1
    55   35   65 1
    56   35   66 1
    57   36   37 1
    58   36   38 1
    59   36   67 1
    60   37   68 1
    61   38   39 2
    62   38   40 am
    63   40   41 1
    64   40   69 1
    65   41   42 1
    66   41   70 1
    67   41   71 1
    68   42   43 1
    69   42   72 1
    70   42   73 1
    71   43   44 2
    72   43   45 am
    73   45   46 1
    74   45   74 1
    75   46   47 1
    76   46   75 1
    77   46   76 1
    78   47   48 1
    79   47   77 1
    80   47   78 1
    81   48   79 1
@<TRIPOS>SUBSTRUCTURE
     1 COA         1 GROUP 0 A     ****
@<TRIPOS>MOLECULE
[5-(6-aminopurin-9-yl)-2-[[[[3-hydroxy-2,2-dimethyl-4-oxo-4-[[3-oxo-3-(2-sulfanylethylamino)propyl]amino]butoxy]-oxido-phosphoryl]oxy-oxido-phosphoryl]oxymethyl]-4-oxido-tetrahydrofuran-3-yl] phosphate
   79    81     1     0     0
SMALL
USER_CHARGES

@<TRIPOS>ATOM
      1 N1A         4.6908    0.9263    0.5284 N.ar      1 COA        -0.5260
      2 C2A         3.4193    1.3931    0.4919 C.ar      1 COA         0.6629
      3 N3A         2.4653    1.1803   -0.4405 N.ar      1 COA        -0.5260
      4 C4A         2.9338    0.3916   -1.4192 C.ar      1 COA         0.5212
      5 C5A         4.2020   -0.1580   -1.5185 C.ar      1 COA         0.0088
      6 C6A         5.0963    0.1348   -0.4937 C.ar      1 COA         0.5212
      7 N6A         6.4038   -0.3801   -0.5131 N.pl3     1 COA        -0.6025
      8 N7A         4.3170   -0.9111   -2.6598 N.2       1 COA        -0.4271
      9 C8A         3.1403   -0.8212   -3.2436 C.ar      1 COA         0.5691
     10 N9A         2.2683   -0.0422   -2.5302 N.pl3     1 COA        -0.5033
     11 C1B         0.8363    0.2748   -2.9142 C.3       1 COA         0.2693
     12 C2B        -0.3043   -0.1391   -1.9549 C.3       1 COA         0.2008
     13 O2B        -0.6991   -1.3747   -2.2004 O.co2     1 COA        -0.1615
     14 C3B        -1.3853    0.8773   -2.3558 C.3       1 COA         0.1111
     15 O3B        -2.0094    0.5576   -3.6033 O.3       1 COA         0.1618
     16 P3B        -3.4806    1.2180   -3.9334 P.3       1 COA        -1.1921
     17 O7A        -4.3962    0.7100   -2.8235 O.co2     1 COA         0.3195
     18 O8A        -3.8112    0.6588   -5.3140 O.co2     1 COA         0.3195
     19 O9A        -3.2466    2.7257   -3.9151 O.co2     1 COA         0.3195
     20 C4B        -0.5713    2.1464   -2.5855 C.3       1 COA         0.1111
     21 O4B         0.7211    1.7136   -3.0526 O.3       1 COA        -0.1436
     22 C5B        -0.3655    2.9745   -1.3239 C.3       1 COA         0.1504
     23 O5B         0.3986    4.1249   -1.6460 O.3       1 COA         0.1618
     24 P1A         0.7670    5.1936   -0.4641 P.3       1 COA        -1.1062
     25 O1A         1.1289    6.5260   -1.0837 O.co2     1 COA         0.3195
     26 O2A         1.6876    4.5161    0.5275 O.co2     1 COA         0.3195
     27 O3A        -0.6886    5.3125    0.2679 O.3       1 COA         0.4672
     28 P2A        -1.1429    6.2040    1.5594 P.3       1 COA        -1.1062
     29 O4A        -2.6377    6.0612    1.7476 O.co2     1 COA         0.3195
     30 O5A        -0.1888    5.9134    2.6974 O.co2     1 COA         0.3195
     31 O6A        -0.8065    7.6957    0.9792 O.3       1 COA         0.1618
     32 CBP        -1.0090    9.5771   -0.5793 C.3       1 COA         0.0000
     33 CCP        -1.4652    8.1470   -0.1994 C.3       1 COA         0.1504
     34 CDP         0.5182    9.5632   -0.8289 C.3       1 COA         0.1179
     35 CEP        -1.6888   10.0085   -1.8940 C.3       1 COA         0.1179
     36 CAP        -1.3149   10.5877    0.5658 C.3       1 COA         0.0611
     37 OAP        -0.6287   10.1955    1.7518 O.3       1 COA        -0.2728
     38 C9P        -0.8916   12.0249    0.2699 C.2       1 COA         0.3561
     39 O9P         0.2422   12.4378    0.5067 O.2       1 COA        -0.2391
     40 N8P        -1.9050   12.7747   -0.3052 N.am      1 COA        -0.1909
     41 C7P        -1.7368   14.1547   -0.6986 C.3       1 COA         0.1160
     42 C6P        -1.2514   14.2219   -2.1393 C.3       1 COA         0.0286
     43 C5P        -2.2251   13.5770   -3.1093 C.2       1 COA         0.3561
     44 O5P        -3.2821   13.0607   -2.7570 O.2       1 COA        -0.2391
     45 N4P        -1.7656   13.6483   -4.4162 N.am      1 COA        -0.1909
     46 C3P        -2.4991   13.1084   -5.5378 C.3       1 COA         0.1160
     47 C2P        -3.4524   14.1169   -6.1579 C.3       1 COA         0.2607
     48 S1P        -2.5886   15.5924   -6.7780 S.3       1 COA        -0.3539
     49 H2A         3.1287    2.0232    1.3259 H         1 COA        -0.1369
     50 H61A        7.0472   -0.1189    0.2098 H         1 COA         0.2048
     51 H62A        6.7069   -0.9256   -1.2976 H         1 COA         0.2048
     52 H8A         2.8628   -1.2932   -4.1762 H         1 COA        -0.1292
     53 H1B         0.7316   -0.1451   -3.9582 H         1 COA        -0.0393
     54 H2B         0.0098    0.1350   -0.9357 H         1 COA        -0.0393
     55 H3B        -2.1756    1.0002   -1.6070 H         1 COA        -0.0393
     56 H4B        -1.0101    2.7804   -3.3646 H         1 COA        -0.0393
     57 H51A        0.1721    2.3946   -0.5677 H         1 COA        -0.0393
     58 H52A       -1.3279    3.2941   -0.9132 H         1 COA        -0.0393
     59 H121       -1.2324    7.4355   -0.9984 H         1 COA        -0.0393
     60 H122       -2.5440    8.1138   -0.0133 H         1 COA        -0.0393
     61 H131        0.8796   10.5616   -1.1013 H         1 COA        -0.0393
     62 H132        0.7886    8.8842   -1.6454 H         1 COA        -0.0393
     63 H133        1.0681    9.2399    0.0618 H         1 COA        -0.0393
     64 H141       -1.3855   11.0192   -2.1904 H         1 COA        -0.0393
     65 H142       -2.7797   10.0132   -1.7903 H         1 COA        -0.0393
     66 H143       -1.4280    9.3402   -2.7211 H         1 COA        -0.0393
     67 H10        -2.3880   10.5770    0.7950 H         1 COA        -0.0393
     68 HO1         0.3169   10.1957    1.5366 H         1 COA         0.2010
     69 HN8        -2.8042   12.3405   -0.4899 H         1 COA         0.0865
     70 H71        -2.6911   14.6793   -0.5876 H         1 COA        -0.0393
     71 H72        -1.0190   14.6354   -0.0263 H         1 COA        -0.0393
     72 H61        -0.2828   13.7155   -2.2344 H         1 COA        -0.0393
     73 H62        -1.1061   15.2673   -2.4393 H         1 COA        -0.0393
     74 HN4        -0.8732   14.1003   -4.5926 H         1 COA         0.0865
     75 H31        -1.7504   12.8080   -6.2755 H         1 COA        -0.0393
     76 H32        -3.0148   12.2084   -5.1936 H         1 COA        -0.0393
     77 H21        -4.0131   13.6701   -6.9854 H         1 COA        -0.0393
     78 H22        -4.1709   14.4474   -5.4014 H         1 COA        -0.0393
     79 HS1        -2.0721   15.9570   -5.5971 H         1 COA         0.1718
@<TRIPOS>BOND
     1    1    2 ar
     2    1    6 ar
     3    2    3 ar
     4    2   49 1
     5    3    4 ar
     6    4    5 ar
     7    4   10 ar
     8    5    6 ar
     9    5    8 ar
    10    6    7 1
    11    7   50 1
    12    7   51 1
    13    8    9 ar
    14    9   10 ar
    15    9   52 1
    16   10   11 1
    17   11   12 1
    18   11   21 1
    19   11   53 1
    20   12   13 1
    21   12   14 1
    22   12   54 1
    23   14   15 1
    24   14   20 1
    25   14   55 1
    26   15   16 1
    27   16   17 2
    28   16   18 1
    29   16   19 1
    30   20   21 1
    31   20   22 1
    32   20   56 1
    33   22   23 1
    34   22   57 1
    35   22   58 1
    36   23   24 1
    37   24   25 2
    38   24   26 1
    39   24   27 1
    40   27   28 1
    41   28   29 2
    42   28   30 1
    43   28   31 1
    44   31   33 1
    45   32   33 1
    46   32   34 1
    47   32   35 1
    48   32   36 1
    49   33   59 1
    50   33   60 1
    51   34   61 1
    52   34   62 1
    53   34   63 1
    54   35   64 1
    55   35   65 1
    56   35   66 1
    57   36   37 1
    58   36   38 1
    59   36   67 1
    60   37   68 1
    61   38   39 2
    62   38   40 am
    63   40   41 1
    64   40   69 1
    65   41   42 1
    66   41   70 1
    67   41   71 1
    68   42   43 1
    69   42   72 1
    70   42   73 1
    71   43   44 2
    72   43   45 am
    73   45   46 1
    74   45   74 1
    75   46   47 1
    76   46   75 1
    77   46   76 1
    78   47   48 1
    79   47   77 1
    80   47   78 1
    81   48   79 1
@<TRIPOS>SUBSTRUCTURE
     1 COA         1 GROUP 0 A     ****
@<TRIPOS>MOLECULE
[5-(6-aminopurin-9-yl)-2-[[[[3-hydroxy-2,2-dimethyl-4-oxo-4-[[3-oxo-3-(2-sulfanylethylamino)propyl]amino]butoxy]-oxido-phosphoryl]oxy-oxido-phosphoryl]oxymethyl]-4-oxido-tetrahydrofuran-3-yl] phosphate
   79    81     1     0     0
SMALL
USER_CHARGES

@<TRIPOS>ATOM
      1 N1A         5.7146    2.0302   -0.7890 N.ar      1 COA        -0.5260
      2 C2A         4.3962    2.1571   -0.5034 C.ar      1 COA         0.6629
      3 N3A         3.3299    1.7526   -1.2276 N.ar      1 COA        -0.5260
      4 C4A         3.7311    1.1587   -2.3614 C.ar      1 COA         0.5212
      5 C5A         5.0346    0.9576   -2.7868 C.ar      1 COA         0.0088
      6 C6A         6.0470    1.4195   -1.9517 C.ar      1 COA         0.5212
      7 N6A         7.3978    1.2581   -2.3043 N.pl3     1 COA        -0.6025
      8 N7A         5.0562    0.3154   -3.9993 N.2       1 COA        -0.4271
      9 C8A         3.7892    0.1293   -4.3054 C.ar      1 COA         0.5691
     10 N9A         2.9479    0.6234   -3.3440 N.pl3     1 COA        -0.5033
     11 C1B         1.4328    0.5815   -3.3775 C.3       1 COA         0.2693
     12 C2B         0.6799   -0.1567   -2.2458 C.3       1 COA         0.2008
     13 O2B         0.5449   -1.4388   -2.5302 O.co2     1 COA        -0.1615
     14 C3B        -0.6749    0.5672   -2.2968 C.3       1 COA         0.1111
     15 O3B        -1.4782    0.1594   -3.4088 O.3       1 COA         0.1618
     16 P3B        -3.0996    0.4363   -3.3454 P.3       1 COA        -1.1921
     17 O7A        -3.5828   -0.3425   -2.1254 O.co2     1 COA         0.3195
     18 O8A        -3.6001   -0.1211   -4.6746 O.co2     1 COA         0.3195
     19 O9A        -3.2339    1.9510   -3.2185 O.co2     1 COA         0.3195
     20 C4B        -0.2635    2.0121   -2.5599 C.3       1 COA         0.1111
     21 O4B         0.9490    1.9478   -3.3354 O.3       1 COA        -0.1436
     22 C5B         0.0275    2.8029   -1.2913 C.3       1 COA         0.1504
     23 O5B         0.3986    4.1249   -1.6460 O.3       1 COA         0.1618
     24 P1A         0.7670    5.1936   -0.4641 P.3       1 COA        -1.1062
     25 O1A         1.1289    6.5260   -1.0837 O.co2     1 COA         0.3195
     26 O2A         1.6876    4.5161    0.5275 O.co2     1 COA         0.3195
     27 O3A        -0.6886    5.3125    0.2679 O.3       1 COA         0.4672
     28 P2A        -1.1429    6.2040    1.5594 P.3       1 COA        -1.1062
     29 O4A        -2.6377    6.0612    1.7476 O.co2     1 COA         0.3195
     30 O5A        -0.1888    5.9134    2.6974 O.co2     1 COA         0.3195
     31 O6A        -0.8065    7.6957    0.9792 O.3       1 COA         0.1618
     32 CBP        -1.0090    9.5771   -0.5793 C.3       1 COA         0.0000
     33 CCP        -1.4652    8.1470   -0.1994 C.3       1 COA         0.1504
     34 CDP         0.5182    9.5632   -0.8289 C.3       1 COA         0.1179
     35 CEP        -1.6888   10.0085   -1.8940 C.3       1 COA         0.1179
     36 CAP        -1.3149   10.5877    0.5658 C.3       1 COA         0.0611
     37 OAP        -0.6287   10.1955    1.7518 O.3       1 COA        -0.2728
     38 C9P        -0.8916   12.0249    0.2699 C.2       1 COA         0.3561
     39 O9P         0.2422   12.4378    0.5067 O.2       1 COA        -0.2391
     40 N8P        -1.9050   12.7747   -0.3052 N.am      1 COA        -0.1909
     41 C7P        -1.7368   14.1547   -0.6986 C.3       1 COA         0.1160
     42 C6P        -3.0657   14.8869   -0.5824 C.3       1 COA         0.0286
     43 C5P        -2.9592   16.3476   -0.9823 C.2       1 COA         0.3561
     44 O5P        -1.9110   16.8679   -1.3544 O.2       1 COA        -0.2391
     45 N4P        -4.1796   16.9975   -0.8699 N.am      1 COA        -0.1909
     46 C3P        -4.3575   18.3959   -1.1865 C.3       1 COA         0.1160
     47 C2P        -4.7324   18.6270   -2.6412 C.3       1 COA         0.2607
     48 S1P        -6.2890   17.8015   -3.0921 S.3       1 COA        -0.3539
     49 H2A         4.1666    2.6505    0.4351 H         1 COA        -0.1369
     50 H61A        8.1108    1.6399   -1.7121 H         1 COA         0.2048
     51 H62A        7.6305    0.8472   -3.1886 H         1 COA         0.2048
     52 H8A         3.4224   -0.3522   -5.2016 H         1 COA        -0.1292
     53 H1B         1.1905    0.2000   -4.4133 H         1 COA        -0.0393
     54 H2B         1.1486    0.1388   -1.2941 H         1 COA        -0.0393
     55 H3B        -1.2745    0.4471   -1.3878 H         1 COA        -0.0393
     56 H4B        -1.0100    2.5497   -3.1559 H         1 COA        -0.0393
     57 H51A        0.8489    2.3441   -0.7330 H         1 COA        -0.0393
     58 H52A       -0.8601    2.8452   -0.6531 H         1 COA        -0.0393
     59 H121       -1.2324    7.4355   -0.9984 H         1 COA        -0.0393
     60 H122       -2.5440    8.1138   -0.0133 H         1 COA        -0.0393
     61 H131        0.8796   10.5616   -1.1013 H         1 COA        -0.0393
     62 H132        0.7886    8.8842   -1.6454 H         1 COA        -0.0393
     63 H133        1.0681    9.2399    0.0618 H         1 COA        -0.0393
     64 H141       -1.3855   11.0192   -2.1904 H         1 COA        -0.0393
     65 H142       -2.7797   10.0132   -1.7903 H         1 COA        -0.0393
     66 H143       -1.4280    9.3402   -2.7211 H         1 COA        -0.0393
     67 H10        -2.3880   10.5770    0.7950 H         1 COA        -0.0393
     68 HO1         0.3169   10.1957    1.5366 H         1 COA         0.2010
     69 HN8        -2.8042   12.3405   -0.4899 H         1 COA         0.0865
     70 H71        -0.9813   14.6216   -0.0586 H         1 COA        -0.0393
     71 H72        -1.3634   14.1927   -1.7268 H         1 COA        -0.0393
     72 H61        -3.4340   14.8375    0.4499 H         1 COA        -0.0393
     73 H62        -3.8172   14.4074   -1.2221 H         1 COA        -0.0393
     74 HN4        -4.9844   16.4663   -0.5505 H         1 COA         0.0865
     75 H31        -5.1605   18.7555   -0.5379 H         1 COA        -0.0393
     76 H32        -3.4385   18.9178   -0.9077 H         1 COA        -0.0393
     77 H21        -4.8320   19.6959   -2.8562 H         1 COA        -0.0393
     78 H22        -3.9452   18.2237   -3.2857 H         1 COA        -0.0393
     79 HS1        -5.8751   16.5599   -2.8070 H         1 COA         0.1718
@<TRIPOS>BOND
     1    1    2 ar
     2    1    6 ar
     3    2    3 ar
     4    2   49 1
     5    3    4 ar
     6    4    5 ar
     7    4   10 ar
     8    5    6 ar
     9    5    8 ar
    10    6    7 1
    11    7   50 1
    12    7   51 1
    13    8    9 ar
    14    9   10 ar
    15    9   52 1
    16   10   11 1
    17   11   12 1
    18   11   21 1
    19   11   53 1
    20   12   13 1
    21   12   14 1
    22   12   54 1
    23   14   15 1
    24   14   20 1
    25   14   55 1
    26   15   16 1
    27   16   17 2
    28   16   18 1
    29   16   19 1
    30   20   21 1
    31   20   22 1
    32   20   56 1
    33   22   23 1
    34   22   57 1
    35   22   58 1
    36   23   24 1
    37   24   25 2
    38   24   26 1
    39   24   27 1
    40   27   28 1
    41   28   29 2
    42   28   30 1
    43   28   31 1
    44   31   33 1
    45   32   33 1
    46   32   34 1
    47   32   35 1
    48   32   36 1
    49   33   59 1
    50   33   60 1
    51   34   61 1
    52   34   62 1
    53   34   63 1
    54   35   64 1
    55   35   65 1
    56   35   66 1
    57   36   37 1
    58   36   38 1
    59   36   67 1
    60   37   68 1
    61   38   39 2
    62   38   40 am
    63   40   41 1
    64   40   69 1
    65   41   42 1
    66   41   70 1
    67   41   71 1
    68   42   43 1
    69   42   72 1
    70   42   73 1
    71   43   44 2
    72   43   45 am
    73   45   46 1
    74   45   74 1
    75   46   47 1
    76   46   75 1
    77   46   76 1
    78   47   48 1
    79   47   77 1
    80   47   78 1
    81   48   79 1
@<TRIPOS>SUBSTRUCTURE
     1 COA         1 GROUP 0 A     ****
@<TRIPOS>MOLECULE
[5-(6-aminopurin-9-yl)-2-[[[[3-hydroxy-2,2-dimethyl-4-oxo-4-[[3-oxo-3-(2-sulfanylethylamino)propyl]amino]butoxy]-oxido-phosphoryl]oxy-oxido-phosphoryl]oxymethyl]-4-oxido-tetrahydrofuran-3-yl] phosphate
   79    81     1     0     0
SMALL
USER_CHARGES

@<TRIPOS>ATOM
      1 N1A         6.1093    3.4221   -2.1706 N.ar      1 COA        -0.5260
      2 C2A         4.9028    3.1932   -1.5982 C.ar      1 COA         0.6629
      3 N3A         3.8250    2.5648   -2.1163 N.ar      1 COA        -0.5260
      4 C4A         4.0802    2.1492   -3.3659 C.ar      1 COA         0.5212
      5 C5A         5.2577    2.3095   -4.0788 C.ar      1 COA         0.0088
      6 C6A         6.2970    2.9741   -3.4353 C.ar      1 COA         0.5212
      7 N6A         7.5267    3.1813   -4.0834 N.pl3     1 COA        -0.6025
      8 N7A         5.1483    1.7539   -5.3288 N.2       1 COA        -0.4271
      9 C8A         3.9267    1.2647   -5.3749 C.ar      1 COA         0.5691
     10 N9A         3.2402    1.4796   -4.2093 N.pl3     1 COA        -0.5033
     11 C1B         1.8139    1.0528   -3.9225 C.3       1 COA         0.2693
     12 C2B         1.5441    0.0924   -2.7404 C.3       1 COA         0.2008
     13 O2B         1.6560   -1.1661   -3.1231 O.co2     1 COA        -0.1615
     14 C3B         0.0825    0.4469   -2.4241 C.3       1 COA         0.1111
     15 O3B        -0.8371   -0.0985   -3.3754 O.3       1 COA         0.1618
     16 P3B        -2.4169   -0.2494   -2.9382 P.3       1 COA        -1.1921
     17 O7A        -2.4022   -1.1842   -1.7323 O.co2     1 COA         0.3195
     18 O8A        -3.0660   -0.8511   -4.1810 O.co2     1 COA         0.3195
     19 O9A        -2.8748    1.1724   -2.6264 O.co2     1 COA         0.3195
     20 C4B         0.0646    1.9600   -2.6151 C.3       1 COA         0.1111
     21 O4B         1.0421    2.2460   -3.6341 O.3       1 COA        -0.1436
     22 C5B         0.4465    2.7364   -1.3618 C.3       1 COA         0.1504
     23 O5B         0.3986    4.1249   -1.6460 O.3       1 COA         0.1618
     24 P1A         0.7670    5.1936   -0.4641 P.3       1 COA        -1.1062
     25 O1A         1.1289    6.5260   -1.0837 O.co2     1 COA         0.3195
     26 O2A         1.6876    4.5161    0.5275 O.co2     1 COA         0.3195
     27 O3A        -0.6886    5.3125    0.2679 O.3       1 COA         0.4672
     28 P2A        -1.1429    6.2040    1.5594 P.3       1 COA        -1.1062
     29 O4A        -2.6377    6.0612    1.7476 O.co2     1 COA         0.3195
     30 O5A        -0.1888    5.9134    2.6974 O.co2     1 COA         0.3195
     31 O6A        -0.8065    7.6957    0.9792 O.3       1 COA         0.1618
     32 CBP        -1.0090    9.5771   -0.5793 C.3       1 COA         0.0000
     33 CCP        -1.4652    8.1470   -0.1994 C.3       1 COA         0.1504
     34 CDP         0.5182    9.5632   -0.8289 C.3       1 COA         0.1179
     35 CEP        -1.6888   10.0085   -1.8940 C.3       1 COA         0.1179
     36 CAP        -1.3149   10.5877    0.5658 C.3       1 COA         0.0611
     37 OAP        -0.8841   11.8921    0.1862 O.3       1 COA        -0.2728
     38 C9P        -2.7940   10.7032    0.9282 C.2       1 COA         0.3561
     39 O9P        -3.5554   11.4723    0.3443 O.2       1 COA        -0.2391
     40 N8P        -3.1652    9.8410    1.9474 N.am      1 COA        -0.1909
     41 C7P        -4.5178    9.7490    2.4468 C.3       1 COA         0.1160
     42 C6P        -4.9558   11.1001    2.9934 C.3       1 COA         0.0286
     43 C5P        -6.3733   11.0734    3.5363 C.2       1 COA         0.3561
     44 O5P        -7.0776   10.0675    3.5275 O.2       1 COA        -0.2391
     45 N4P        -6.7540   12.3128    4.0295 N.am      1 COA        -0.1909
     46 C3P        -8.0561   12.5644    4.6028 C.3       1 COA         0.1160
     47 C2P        -9.0752   13.0202    3.5714 C.3       1 COA         0.2607
     48 S1P       -10.7089   13.3331    4.3068 S.3       1 COA        -0.3539
     49 H2A         4.7878    3.5651   -0.5856 H         1 COA        -0.1369
     50 H61A        8.2460    3.7037   -3.6204 H         1 COA         0.2048
     51 H62A        7.6376    2.8871   -5.0353 H         1 COA         0.2048
     52 H8A         3.4866    0.7495   -6.2177 H         1 COA        -0.1292
     53 H1B         1.4348    0.6728   -4.9170 H         1 COA        -0.0393
     54 H2B         2.1376    0.4515   -1.8851 H         1 COA        -0.0393
     55 H3B        -0.2421    0.1333   -1.4258 H         1 COA        -0.0393
     56 H4B        -0.9063    2.3168   -2.9777 H         1 COA        -0.0393
     57 H51A        1.4605    2.4765   -1.0434 H         1 COA        -0.0393
     58 H52A       -0.2515    2.5189   -0.5478 H         1 COA        -0.0393
     59 H121       -1.2324    7.4355   -0.9984 H         1 COA        -0.0393
     60 H122       -2.5440    8.1138   -0.0133 H         1 COA        -0.0393
     61 H131        0.8796   10.5616   -1.1013 H         1 COA        -0.0393
     62 H132        0.7886    8.8842   -1.6454 H         1 COA        -0.0393
     63 H133        1.0681    9.2399    0.0618 H         1 COA        -0.0393
     64 H141       -1.3855   11.0192   -2.1904 H         1 COA        -0.0393
     65 H142       -2.7797   10.0132   -1.7903 H         1 COA        -0.0393
     66 H143       -1.4280    9.3402   -2.7211 H         1 COA        -0.0393
     67 H10        -0.7524   10.3112    1.4665 H         1 COA        -0.0393
     68 HO1        -1.3767   12.1229   -0.6167 H         1 COA         0.2010
     69 HN8        -2.4720    9.2197    2.3532 H         1 COA         0.0865
     70 H71        -5.1794    9.4274    1.6363 H         1 COA        -0.0393
     71 H72        -4.5615    8.9837    3.2282 H         1 COA        -0.0393
     72 H61        -4.9023   11.8607    2.2046 H         1 COA        -0.0393
     73 H62        -4.2826   11.4161    3.8002 H         1 COA        -0.0393
     74 HN4        -6.0873   13.0779    3.9856 H         1 COA         0.0865
     75 H31        -8.3805   11.6204    5.0485 H         1 COA        -0.0393
     76 H32        -7.9280   13.2921    5.4081 H         1 COA        -0.0393
     77 H21        -8.7419   13.9327    3.0664 H         1 COA        -0.0393
     78 H22        -9.1971   12.2393    2.8143 H         1 COA        -0.0393
     79 HS1       -10.8929   12.0897    4.7699 H         1 COA         0.1718
@<TRIPOS>BOND
     1    1    2 ar
     2    1    6 ar
     3    2    3 ar
     4    2   49 1
     5    3    4 ar
     6    4    5 ar
     7    4   10 ar
     8    5    6 ar
     9    5    8 ar
    10    6    7 1
    11    7   50 1
    12    7   51 1
    13    8    9 ar
    14    9   10 ar
    15    9   52 1
    16   10   11 1
    17   11   12 1
    18   11   21 1
    19   11   53 1
    20   12   13 1
    21   12   14 1
    22   12   54 1
    23   14   15 1
    24   14   20 1
    25   14   55 1
    26   15   16 1
    27   16   17 2
    28   16   18 1
    29   16   19 1
    30   20   21 1
    31   20   22 1
    32   20   56 1
    33   22   23 1
    34   22   57 1
    35   22   58 1
    36   23   24 1
    37   24   25 2
    38   24   26 1
    39   24   27 1
    40   27   28 1
    41   28   29 2
    42   28   30 1
    43   28   31 1
    44   31   33 1
    45   32   33 1
    46   32   34 1
    47   32   35 1
    48   32   36 1
    49   33   59 1
    50   33   60 1
    51   34   61 1
    52   34   62 1
    53   34   63 1
    54   35   64 1
    55   35   65 1
    56   35   66 1
    57   36   37 1
    58   36   38 1
    59   36   67 1
    60   37   68 1
    61   38   39 2
    62   38   40 am
    63   40   41 1
    64   40   69 1
    65   41   42 1
    66   41   70 1
    67   41   71 1
    68   42   43 1
    69   42   72 1
    70   42   73 1
    71   43   44 2
    72   43   45 am
    73   45   46 1
    74   45   74 1
    75   46   47 1
    76   46   75 1
    77   46   76 1
    78   47   48 1
    79   47   77 1
    80   47   78 1
    81   48   79 1
@<TRIPOS>SUBSTRUCTURE
     1 COA         1 GROUP 0 A     ****
@<TRIPOS>MOLECULE
[5-(6-aminopurin-9-yl)-2-[[[[3-hydroxy-2,2-dimethyl-4-oxo-4-[[3-oxo-3-(2-sulfanylethylamino)propyl]amino]butoxy]-oxido-phosphoryl]oxy-oxido-phosphoryl]oxymethyl]-4-oxido-tetrahydrofuran-3-yl] phosphate
   79    81     1     0     0
SMALL
USER_CHARGES

@<TRIPOS>ATOM
      1 N1A         6.3197    3.3711    0.1967 N.ar      1 COA        -0.5260
      2 C2A         5.0033    3.3256    0.5141 C.ar      1 COA         0.6629
      3 N3A         4.0730    2.4196    0.1418 N.ar      1 COA        -0.5260
      4 C4A         4.6208    1.4811   -0.6447 C.ar      1 COA         0.5212
      5 C5A         5.9423    1.3962   -1.0530 C.ar      1 COA         0.0088
      6 C6A         6.8050    2.3902   -0.6021 C.ar      1 COA         0.5212
      7 N6A         8.1621    2.3826   -0.9671 N.pl3     1 COA        -0.6025
      8 N7A         6.1335    0.2987   -1.8543 N.2       1 COA        -0.4271
      9 C8A         4.9500   -0.2731   -1.9316 C.ar      1 COA         0.5691
     10 N9A         4.0006    0.4065   -1.2155 N.pl3     1 COA        -0.5033
     11 C1B         2.5376    0.0288   -1.0907 C.3       1 COA         0.2693
     12 C2B         1.9579   -0.2640    0.3131 C.3       1 COA         0.2008
     13 O2B         2.1299   -1.5323    0.6368 O.co2     1 COA        -0.1615
     14 C3B         0.4729    0.0487    0.0699 C.3       1 COA         0.1111
     15 O3B        -0.1943   -0.9780   -0.6709 O.3       1 COA         0.1618
     16 P3B        -1.8364   -1.0586   -0.5907 P.3       1 COA        -1.1921
     17 O7A        -2.1459   -1.2889    0.8856 O.co2     1 COA         0.3195
     18 O8A        -2.1706   -2.2476   -1.4866 O.co2     1 COA         0.3195
     19 O9A        -2.3217    0.2823   -1.1335 O.co2     1 COA         0.3195
     20 C4B         0.5412    1.2713   -0.8394 C.3       1 COA         0.1111
     21 O4B         1.7485    1.1278   -1.6124 O.3       1 COA        -0.1436
     22 C5B         0.6184    2.5901   -0.0816 C.3       1 COA         0.1504
     23 O5B         0.6777    3.6562   -1.0149 O.3       1 COA         0.1618
     24 P1A         0.7670    5.1936   -0.4641 P.3       1 COA        -1.1062
     25 O1A         0.8194    6.1476   -1.6376 O.co2     1 COA         0.3195
     26 O2A         1.8029    5.2507    0.6375 O.co2     1 COA         0.3195
     27 O3A        -0.6886    5.3125    0.2679 O.3       1 COA         0.4672
     28 P2A        -1.1429    6.2040    1.5594 P.3       1 COA        -1.1062
     29 O4A        -2.6377    6.0612    1.7476 O.co2     1 COA         0.3195
     30 O5A        -0.1888    5.9134    2.6974 O.co2     1 COA         0.3195
     31 O6A        -0.8065    7.6957    0.9792 O.3       1 COA         0.1618
     32 CBP        -1.0090    9.5771   -0.5793 C.3       1 COA         0.0000
     33 CCP        -1.4652    8.1470   -0.1994 C.3       1 COA         0.1504
     34 CDP         0.5182    9.5632   -0.8289 C.3       1 COA         0.1179
     35 CEP        -1.6888   10.0085   -1.8940 C.3       1 COA         0.1179
     36 CAP        -1.3149   10.5877    0.5658 C.3       1 COA         0.0611
     37 OAP        -2.7163   10.6149    0.8239 O.3       1 COA        -0.2728
     38 C9P        -0.6314   10.2649    1.8928 C.2       1 COA         0.3561
     39 O9P        -1.1331    9.5097    2.7236 O.2       1 COA        -0.2391
     40 N8P         0.5984   10.8887    2.0282 N.am      1 COA        -0.1909
     41 C7P         1.4450   10.7163    3.1861 C.3       1 COA         0.1160
     42 C6P         1.1093   11.7726    4.2289 C.3       1 COA         0.0286
     43 C5P         1.9658   11.6481    5.4762 C.2       1 COA         0.3561
     44 O5P         3.1123   11.2085    5.4631 O.2       1 COA        -0.2391
     45 N4P         1.2896   12.0867    6.6051 N.am      1 COA        -0.1909
     46 C3P         1.8749   12.0749    7.9261 C.3       1 COA         0.1160
     47 C2P         1.6192   10.7751    8.6714 C.3       1 COA         0.2607
     48 S1P        -0.1552   10.4473    8.8985 S.3       1 COA        -0.3539
     49 H2A         4.6492    4.1260    1.1552 H         1 COA        -0.1369
     50 H61A        8.7564    3.1335   -0.6708 H         1 COA         0.2048
     51 H62A        8.4991    1.6788   -1.5963 H         1 COA         0.2048
     52 H8A         4.7208   -1.1726   -2.4865 H         1 COA        -0.1292
     53 H1B         2.4085   -0.8200   -1.8256 H         1 COA        -0.0393
     54 H2B         2.3286    0.5212    0.9904 H         1 COA        -0.0393
     55 H3B        -0.0977    0.2245    0.9885 H         1 COA        -0.0393
     56 H4B        -0.2996    1.3083   -1.5416 H         1 COA        -0.0393
     57 H51A        1.5144    2.6204    0.5455 H         1 COA        -0.0393
     58 H52A       -0.2654    2.7227    0.5494 H         1 COA        -0.0393
     59 H121       -1.2324    7.4355   -0.9984 H         1 COA        -0.0393
     60 H122       -2.5440    8.1138   -0.0133 H         1 COA        -0.0393
     61 H131        0.8796   10.5616   -1.1013 H         1 COA        -0.0393
     62 H132        0.7886    8.8842   -1.6454 H         1 COA        -0.0393
     63 H133        1.0681    9.2399    0.0618 H         1 COA        -0.0393
     64 H141       -1.3855   11.0192   -2.1904 H         1 COA        -0.0393
     65 H142       -2.7797   10.0132   -1.7903 H         1 COA        -0.0393
     66 H143       -1.4280    9.3402   -2.7211 H         1 COA        -0.0393
     67 H10        -1.0237   11.5996    0.2569 H         1 COA        -0.0393
     68 HO1        -2.9668    9.7148    1.0837 H         1 COA         0.2010
     69 HN8         0.9463   11.4752    1.2758 H         1 COA         0.0865
     70 H71         1.2973    9.7110    3.5932 H         1 COA        -0.0393
     71 H72         2.4931   10.7948    2.8803 H         1 COA        -0.0393
     72 H61         0.0558   11.6893    4.5237 H         1 COA        -0.0393
     73 H62         1.2542   12.7758    3.8089 H         1 COA        -0.0393
     74 HN4         0.3403   12.4318    6.4984 H         1 COA         0.0865
     75 H31         2.9500   12.2125    7.7843 H         1 COA        -0.0393
     76 H32         1.4910   12.9442    8.4658 H         1 COA        -0.0393
     77 H21         2.0639    9.9254    8.1432 H         1 COA        -0.0393
     78 H22         2.0749   10.8326    9.6648 H         1 COA        -0.0393
     79 HS1        -0.4588   10.4183    7.5941 H         1 COA         0.1718
@<TRIPOS>BOND
     1    1    2 ar
     2    1    6 ar
     3    2    3 ar
     4    2   49 1
     5    3    4 ar
     6    4    5 ar
     7    4   10 ar
     8    5    6 ar
     9    5    8 ar
    10    6    7 1
    11    7   50 1
    12    7   51 1
    13    8    9 ar
    14    9   10 ar
    15    9   52 1
    16   10   11 1
    17   11   12 1
    18   11   21 1
    19   11   53 1
    20   12   13 1
    21   12   14 1
    22   12   54 1
    23   14   15 1
    24   14   20 1
    25   14   55 1
    26   15   16 1
    27   16   17 2
    28   16   18 1
    29   16   19 1
    30   20   21 1
    31   20   22 1
    32   20   56 1
    33   22   23 1
    34   22   57 1
    35   22   58 1
    36   23   24 1
    37   24   25 2
    38   24   26 1
    39   24   27 1
    40   27   28 1
    41   28   29 2
    42   28   30 1
    43   28   31 1
    44   31   33 1
    45   32   33 1
    46   32   34 1
    47   32   35 1
    48   32   36 1
    49   33   59 1
    50   33   60 1
    51   34   61 1
    52   34   62 1
    53   34   63 1
    54   35   64 1
    55   35   65 1
    56   35   66 1
    57   36   37 1
    58   36   38 1
    59   36   67 1
    60   37   68 1
    61   38   39 2
    62   38   40 am
    63   40   41 1
    64   40   69 1
    65   41   42 1
    66   41   70 1
    67   41   71 1
    68   42   43 1
    69   42   72 1
    70   42   73 1
    71   43   44 2
    72   43   45 am
    73   45   46 1
    74   45   74 1
    75   46   47 1
    76   46   75 1
    77   46   76 1
    78   47   48 1
    79   47   77 1
    80   47   78 1
    81   48   79 1
@<TRIPOS>SUBSTRUCTURE
     1 COA         1 GROUP 0 A     ****
@<TRIPOS>MOLECULE
[5-(6-aminopurin-9-yl)-2-[[[[3-hydroxy-2,2-dimethyl-4-oxo-4-[[3-oxo-3-(2-sulfanylethylamino)propyl]amino]butoxy]-oxido-phosphoryl]oxy-oxido-phosphoryl]oxymethyl]-4-oxido-tetrahydrofuran-3-yl] phosphate
   79    81     1     0     0
SMALL
USER_CHARGES

@<TRIPOS>ATOM
      1 N1A         5.7146    2.0302   -0.7890 N.ar      1 COA        -0.5260
      2 C2A         4.3962    2.1571   -0.5034 C.ar      1 COA         0.6629
      3 N3A         3.3299    1.7526   -1.2276 N.ar      1 COA        -0.5260
      4 C4A         3.7311    1.1587   -2.3614 C.ar      1 COA         0.5212
      5 C5A         5.0346    0.9576   -2.7868 C.ar      1 COA         0.0088
      6 C6A         6.0470    1.4195   -1.9517 C.ar      1 COA         0.5212
      7 N6A         7.3978    1.2581   -2.3043 N.pl3     1 COA        -0.6025
      8 N7A         5.0562    0.3154   -3.9993 N.2       1 COA        -0.4271
      9 C8A         3.7892    0.1293   -4.3054 C.ar      1 COA         0.5691
     10 N9A         2.9479    0.6234   -3.3440 N.pl3     1 COA        -0.5033
     11 C1B         1.4328    0.5815   -3.3775 C.3       1 COA         0.2693
     12 C2B         0.6799   -0.1567   -2.2458 C.3       1 COA         0.2008
     13 O2B         0.5449   -1.4388   -2.5302 O.co2     1 COA        -0.1615
     14 C3B        -0.6749    0.5672   -2.2968 C.3       1 COA         0.1111
     15 O3B        -1.4782    0.1594   -3.4088 O.3       1 COA         0.1618
     16 P3B        -3.0996    0.4363   -3.3454 P.3       1 COA        -1.1921
     17 O7A        -3.5828   -0.3425   -2.1254 O.co2     1 COA         0.3195
     18 O8A        -3.6001   -0.1211   -4.6746 O.co2     1 COA         0.3195
     19 O9A        -3.2339    1.9510   -3.2185 O.co2     1 COA         0.3195
     20 C4B        -0.2635    2.0121   -2.5599 C.3       1 COA         0.1111
     21 O4B         0.9490    1.9478   -3.3354 O.3       1 COA        -0.1436
     22 C5B         0.0275    2.8029   -1.2913 C.3       1 COA         0.1504
     23 O5B         0.3986    4.1249   -1.6460 O.3       1 COA         0.1618
     24 P1A         0.7670    5.1936   -0.4641 P.3       1 COA        -1.1062
     25 O1A         1.1289    6.5260   -1.0837 O.co2     1 COA         0.3195
     26 O2A         1.6876    4.5161    0.5275 O.co2     1 COA         0.3195
     27 O3A        -0.6886    5.3125    0.2679 O.3       1 COA         0.4672
     28 P2A        -1.1429    6.2040    1.5594 P.3       1 COA        -1.1062
     29 O4A        -2.6377    6.0612    1.7476 O.co2     1 COA         0.3195
     30 O5A        -0.1888    5.9134    2.6974 O.co2     1 COA         0.3195
     31 O6A        -0.8065    7.6957    0.9792 O.3       1 COA         0.1618
     32 CBP        -1.0090    9.5771   -0.5793 C.3       1 COA         0.0000
     33 CCP        -1.4652    8.1470   -0.1994 C.3       1 COA         0.1504
     34 CDP         0.5182    9.5632   -0.8289 C.3       1 COA         0.1179
     35 CEP        -1.6888   10.0085   -1.8940 C.3       1 COA         0.1179
     36 CAP        -1.3149   10.5877    0.5658 C.3       1 COA         0.0611
     37 OAP        -0.8841   11.8921    0.1862 O.3       1 COA        -0.2728
     38 C9P        -2.7940   10.7032    0.9282 C.2       1 COA         0.3561
     39 O9P        -3.6570   10.0067    0.3969 O.2       1 COA        -0.2391
     40 N8P        -3.0315   11.6427    1.9186 N.am      1 COA        -0.1909
     41 C7P        -4.3486   11.9130    2.4473 C.3       1 COA         0.1160
     42 C6P        -5.0118   13.0149    1.6339 C.3       1 COA         0.0286
     43 C5P        -4.2232   14.3118    1.6641 C.2       1 COA         0.3561
     44 O5P        -3.1700   14.4439    2.2816 O.2       1 COA        -0.2391
     45 N4P        -4.8430   15.3032    0.9177 N.am      1 COA        -0.1909
     46 C3P        -4.3039   16.6366    0.7802 C.3       1 COA         0.1160
     47 C2P        -4.8002   17.5861    1.8584 C.3       1 COA         0.2607
     48 S1P        -6.6100   17.7650    1.8407 S.3       1 COA        -0.3539
     49 H2A         4.1666    2.6505    0.4351 H         1 COA        -0.1369
     50 H61A        8.1108    1.6399   -1.7121 H         1 COA         0.2048
     51 H62A        7.6305    0.8472   -3.1886 H         1 COA         0.2048
     52 H8A         3.4224   -0.3522   -5.2016 H         1 COA        -0.1292
     53 H1B         1.1905    0.2000   -4.4133 H         1 COA        -0.0393
     54 H2B         1.1486    0.1388   -1.2941 H         1 COA        -0.0393
     55 H3B        -1.2745    0.4471   -1.3878 H         1 COA        -0.0393
     56 H4B        -1.0100    2.5497   -3.1559 H         1 COA        -0.0393
     57 H51A        0.8489    2.3441   -0.7330 H         1 COA        -0.0393
     58 H52A       -0.8601    2.8452   -0.6531 H         1 COA        -0.0393
     59 H121       -1.2324    7.4355   -0.9984 H         1 COA        -0.0393
     60 H122       -2.5440    8.1138   -0.0133 H         1 COA        -0.0393
     61 H131        0.8796   10.5616   -1.1013 H         1 COA        -0.0393
     62 H132        0.7886    8.8842   -1.6454 H         1 COA        -0.0393
     63 H133        1.0681    9.2399    0.0618 H         1 COA        -0.0393
     64 H141       -1.3855   11.0192   -2.1904 H         1 COA        -0.0393
     65 H142       -2.7797   10.0132   -1.7903 H         1 COA        -0.0393
     66 H143       -1.4280    9.3402   -2.7211 H         1 COA        -0.0393
     67 H10        -0.7524   10.3112    1.4665 H         1 COA        -0.0393
     68 HO1        -1.3767   12.1229   -0.6167 H         1 COA         0.2010
     69 HN8        -2.2509   12.1532    2.3202 H         1 COA         0.0865
     70 H71        -4.9450   10.9957    2.4135 H         1 COA        -0.0393
     71 H72        -4.2610   12.2077    3.4979 H         1 COA        -0.0393
     72 H61        -6.0190   13.2142    2.0205 H         1 COA        -0.0393
     73 H62        -5.1181   12.6993    0.5884 H         1 COA        -0.0393
     74 HN4        -5.7152   15.0817    0.4465 H         1 COA         0.0865
     75 H31        -3.2178   16.5351    0.8509 H         1 COA        -0.0393
     76 H32        -4.5459   16.9893   -0.2256 H         1 COA        -0.0393
     77 H21        -4.4954   17.2449    2.8530 H         1 COA        -0.0393
     78 H22        -4.3680   18.5779    1.6933 H         1 COA        -0.0393
     79 HS1        -6.8793   16.4715    2.0611 H         1 COA         0.1718
@<TRIPOS>BOND
     1    1    2 ar
     2    1    6 ar
     3    2    3 ar
     4    2   49 1
     5    3    4 ar
     6    4    5 ar
     7    4   10 ar
     8    5    6 ar
     9    5    8 ar
    10    6    7 1
    11    7   50 1
    12    7   51 1
    13    8    9 ar
    14    9   10 ar
    15    9   52 1
    16   10   11 1
    17   11   12 1
    18   11   21 1
    19   11   53 1
    20   12   13 1
    21   12   14 1
    22   12   54 1
    23   14   15 1
    24   14   20 1
    25   14   55 1
    26   15   16 1
    27   16   17 2
    28   16   18 1
    29   16   19 1
    30   20   21 1
    31   20   22 1
    32   20   56 1
    33   22   23 1
    34   22   57 1
    35   22   58 1
    36   23   24 1
    37   24   25 2
    38   24   26 1
    39   24   27 1
    40   27   28 1
    41   28   29 2
    42   28   30 1
    43   28   31 1
    44   31   33 1
    45   32   33 1
    46   32   34 1
    47   32   35 1
    48   32   36 1
    49   33   59 1
    50   33   60 1
    51   34   61 1
    52   34   62 1
    53   34   63 1
    54   35   64 1
    55   35   65 1
    56   35   66 1
    57   36   37 1
    58   36   38 1
    59   36   67 1
    60   37   68 1
    61   38   39 2
    62   38   40 am
    63   40   41 1
    64   40   69 1
    65   41   42 1
    66   41   70 1
    67   41   71 1
    68   42   43 1
    69   42   72 1
    70   42   73 1
    71   43   44 2
    72   43   45 am
    73   45   46 1
    74   45   74 1
    75   46   47 1
    76   46   75 1
    77   46   76 1
    78   47   48 1
    79   47   77 1
    80   47   78 1
    81   48   79 1
@<TRIPOS>SUBSTRUCTURE
     1 COA         1 GROUP 0 A     ****
@<TRIPOS>MOLECULE
[5-(6-aminopurin-9-yl)-2-[[[[3-hydroxy-2,2-dimethyl-4-oxo-4-[[3-oxo-3-(2-sulfanylethylamino)propyl]amino]butoxy]-oxido-phosphoryl]oxy-oxido-phosphoryl]oxymethyl]-4-oxido-tetrahydrofuran-3-yl] phosphate
   79    81     1     0     0
SMALL
USER_CHARGES

@<TRIPOS>ATOM
      1 N1A         6.1093    3.4221   -2.1706 N.ar      1 COA        -0.5260
      2 C2A         4.9028    3.1932   -1.5982 C.ar      1 COA         0.6629
      3 N3A         3.8250    2.5648   -2.1163 N.ar      1 COA        -0.5260
      4 C4A         4.0802    2.1492   -3.3659 C.ar      1 COA         0.5212
      5 C5A         5.2577    2.3095   -4.0788 C.ar      1 COA         0.0088
      6 C6A         6.2970    2.9741   -3.4353 C.ar      1 COA         0.5212
      7 N6A         7.5267    3.1813   -4.0834 N.pl3     1 COA        -0.6025
      8 N7A         5.1483    1.7539   -5.3288 N.2       1 COA        -0.4271
      9 C8A         3.9267    1.2647   -5.3749 C.ar      1 COA         0.5691
     10 N9A         3.2402    1.4796   -4.2093 N.pl3     1 COA        -0.5033
     11 C1B         1.8139    1.0528   -3.9225 C.3       1 COA         0.2693
     12 C2B         1.5441    0.0924   -2.7404 C.3       1 COA         0.2008
     13 O2B         1.6560   -1.1661   -3.1231 O.co2     1 COA        -0.1615
     14 C3B         0.0825    0.4469   -2.4241 C.3       1 COA         0.1111
     15 O3B        -0.8371   -0.0985   -3.3754 O.3       1 COA         0.1618
     16 P3B        -2.4169   -0.2494   -2.9382 P.3       1 COA        -1.1921
     17 O7A        -2.4022   -1.1842   -1.7323 O.co2     1 COA         0.3195
     18 O8A        -3.0660   -0.8511   -4.1810 O.co2     1 COA         0.3195
     19 O9A        -2.8748    1.1724   -2.6264 O.co2     1 COA         0.3195
     20 C4B         0.0646    1.9600   -2.6151 C.3       1 COA         0.1111
     21 O4B         1.0421    2.2460   -3.6341 O.3       1 COA        -0.1436
     22 C5B         0.4465    2.7364   -1.3618 C.3       1 COA         0.1504
     23 O5B         0.3986    4.1249   -1.6460 O.3       1 COA         0.1618
     24 P1A         0.7670    5.1936   -0.4641 P.3       1 COA        -1.1062
     25 O1A         1.1289    6.5260   -1.0837 O.co2     1 COA         0.3195
     26 O2A         1.6876    4.5161    0.5275 O.co2     1 COA         0.3195
     27 O3A        -0.6886    5.3125    0.2679 O.3       1 COA         0.4672
     28 P2A        -1.1429    6.2040    1.5594 P.3       1 COA        -1.1062
     29 O4A        -2.6377    6.0612    1.7476 O.co2     1 COA         0.3195
     30 O5A        -0.1888    5.9134    2.6974 O.co2     1 COA         0.3195
     31 O6A        -0.8065    7.6957    0.9792 O.3       1 COA         0.1618
     32 CBP        -1.0090    9.5771   -0.5793 C.3       1 COA         0.0000
     33 CCP        -1.4652    8.1470   -0.1994 C.3       1 COA         0.1504
     34 CDP         0.5182    9.5632   -0.8289 C.3       1 COA         0.1179
     35 CEP        -1.6888   10.0085   -1.8940 C.3       1 COA         0.1179
     36 CAP        -1.3149   10.5877    0.5658 C.3       1 COA         0.0611
     37 OAP        -0.6287   10.1955    1.7518 O.3       1 COA        -0.2728
     38 C9P        -0.8916   12.0249    0.2699 C.2       1 COA         0.3561
     39 O9P         0.2422   12.4378    0.5067 O.2       1 COA        -0.2391
     40 N8P        -1.9050   12.7747   -0.3052 N.am      1 COA        -0.1909
     41 C7P        -1.7368   14.1547   -0.6986 C.3       1 COA         0.1160
     42 C6P        -1.2514   14.2219   -2.1393 C.3       1 COA         0.0286
     43 C5P        -2.2251   13.5770   -3.1093 C.2       1 COA         0.3561
     44 O5P        -3.2821   13.0607   -2.7570 O.2       1 COA        -0.2391
     45 N4P        -1.7656   13.6483   -4.4162 N.am      1 COA        -0.1909
     46 C3P        -2.4991   13.1084   -5.5378 C.3       1 COA         0.1160
     47 C2P        -3.4524   14.1169   -6.1579 C.3       1 COA         0.2607
     48 S1P        -4.3686   13.4240   -7.5679 S.3       1 COA        -0.3539
     49 H2A         4.7878    3.5651   -0.5856 H         1 COA        -0.1369
     50 H61A        8.2460    3.7037   -3.6204 H         1 COA         0.2048
     51 H62A        7.6376    2.8871   -5.0353 H         1 COA         0.2048
     52 H8A         3.4866    0.7495   -6.2177 H         1 COA        -0.1292
     53 H1B         1.4348    0.6728   -4.9170 H         1 COA        -0.0393
     54 H2B         2.1376    0.4515   -1.8851 H         1 COA        -0.0393
     55 H3B        -0.2421    0.1333   -1.4258 H         1 COA        -0.0393
     56 H4B        -0.9063    2.3168   -2.9777 H         1 COA        -0.0393
     57 H51A        1.4605    2.4765   -1.0434 H         1 COA        -0.0393
     58 H52A       -0.2515    2.5189   -0.5478 H         1 COA        -0.0393
     59 H121       -1.2324    7.4355   -0.9984 H         1 COA        -0.0393
     60 H122       -2.5440    8.1138   -0.0133 H         1 COA        -0.0393
     61 H131        0.8796   10.5616   -1.1013 H         1 COA        -0.0393
     62 H132        0.7886    8.8842   -1.6454 H         1 COA        -0.0393
     63 H133        1.0681    9.2399    0.0618 H         1 COA        -0.0393
     64 H141       -1.3855   11.0192   -2.1904 H         1 COA        -0.0393
     65 H142       -2.7797   10.0132   -1.7903 H         1 COA        -0.0393
     66 H143       -1.4280    9.3402   -2.7211 H         1 COA        -0.0393
     67 H10        -2.3880   10.5770    0.7950 H         1 COA        -0.0393
     68 HO1         0.3169   10.1957    1.5366 H         1 COA         0.2010
     69 HN8        -2.8042   12.3405   -0.4899 H         1 COA         0.0865
     70 H71        -2.6911   14.6793   -0.5876 H         1 COA        -0.0393
     71 H72        -1.0190   14.6354   -0.0263 H         1 COA        -0.0393
     72 H61        -0.2828   13.7155   -2.2344 H         1 COA        -0.0393
     73 H62        -1.1061   15.2673   -2.4393 H         1 COA        -0.0393
     74 HN4        -0.8732   14.1003   -4.5926 H         1 COA         0.0865
     75 H31        -1.7504   12.8080   -6.2755 H         1 COA        -0.0393
     76 H32        -3.0148   12.2084   -5.1936 H         1 COA        -0.0393
     77 H21        -4.1749   14.4798   -5.4197 H         1 COA        -0.0393
     78 H22        -2.8816   14.9759   -6.5240 H         1 COA        -0.0393
     79 HS1        -4.9598   12.4392   -6.8787 H         1 COA         0.1718
@<TRIPOS>BOND
     1    1    2 ar
     2    1    6 ar
     3    2    3 ar
     4    2   49 1
     5    3    4 ar
     6    4    5 ar
     7    4   10 ar
     8    5    6 ar
     9    5    8 ar
    10    6    7 1
    11    7   50 1
    12    7   51 1
    13    8    9 ar
    14    9   10 ar
    15    9   52 1
    16   10   11 1
    17   11   12 1
    18   11   21 1
    19   11   53 1
    20   12   13 1
    21   12   14 1
    22   12   54 1
    23   14   15 1
    24   14   20 1
    25   14   55 1
    26   15   16 1
    27   16   17 2
    28   16   18 1
    29   16   19 1
    30   20   21 1
    31   20   22 1
    32   20   56 1
    33   22   23 1
    34   22   57 1
    35   22   58 1
    36   23   24 1
    37   24   25 2
    38   24   26 1
    39   24   27 1
    40   27   28 1
    41   28   29 2
    42   28   30 1
    43   28   31 1
    44   31   33 1
    45   32   33 1
    46   32   34 1
    47   32   35 1
    48   32   36 1
    49   33   59 1
    50   33   60 1
    51   34   61 1
    52   34   62 1
    53   34   63 1
    54   35   64 1
    55   35   65 1
    56   35   66 1
    57   36   37 1
    58   36   38 1
    59   36   67 1
    60   37   68 1
    61   38   39 2
    62   38   40 am
    63   40   41 1
    64   40   69 1
    65   41   42 1
    66   41   70 1
    67   41   71 1
    68   42   43 1
    69   42   72 1
    70   42   73 1
    71   43   44 2
    72   43   45 am
    73   45   46 1
    74   45   74 1
    75   46   47 1
    76   46   75 1
    77   46   76 1
    78   47   48 1
    79   47   77 1
    80   47   78 1
    81   48   79 1
@<TRIPOS>SUBSTRUCTURE
     1 COA         1 GROUP 0 A     ****
@<TRIPOS>MOLECULE
[5-(6-aminopurin-9-yl)-2-[[[[3-hydroxy-2,2-dimethyl-4-oxo-4-[[3-oxo-3-(2-sulfanylethylamino)propyl]amino]butoxy]-oxido-phosphoryl]oxy-oxido-phosphoryl]oxymethyl]-4-oxido-tetrahydrofuran-3-yl] phosphate
   79    81     1     0     0
SMALL
USER_CHARGES

@<TRIPOS>ATOM
      1 N1A         6.1093    3.4221   -2.1706 N.ar      1 COA        -0.5260
      2 C2A         4.9028    3.1932   -1.5982 C.ar      1 COA         0.6629
      3 N3A         3.8250    2.5648   -2.1163 N.ar      1 COA        -0.5260
      4 C4A         4.0802    2.1492   -3.3659 C.ar      1 COA         0.5212
      5 C5A         5.2577    2.3095   -4.0788 C.ar      1 COA         0.0088
      6 C6A         6.2970    2.9741   -3.4353 C.ar      1 COA         0.5212
      7 N6A         7.5267    3.1813   -4.0834 N.pl3     1 COA        -0.6025
      8 N7A         5.1483    1.7539   -5.3288 N.2       1 COA        -0.4271
      9 C8A         3.9267    1.2647   -5.3749 C.ar      1 COA         0.5691
     10 N9A         3.2402    1.4796   -4.2093 N.pl3     1 COA        -0.5033
     11 C1B         1.8139    1.0528   -3.9225 C.3       1 COA         0.2693
     12 C2B         1.5441    0.0924   -2.7404 C.3       1 COA         0.2008
     13 O2B         1.6560   -1.1661   -3.1231 O.co2     1 COA        -0.1615
     14 C3B         0.0825    0.4469   -2.4241 C.3       1 COA         0.1111
     15 O3B        -0.8371   -0.0985   -3.3754 O.3       1 COA         0.1618
     16 P3B        -2.4169   -0.2494   -2.9382 P.3       1 COA        -1.1921
     17 O7A        -2.4022   -1.1842   -1.7323 O.co2     1 COA         0.3195
     18 O8A        -3.0660   -0.8511   -4.1810 O.co2     1 COA         0.3195
     19 O9A        -2.8748    1.1724   -2.6264 O.co2     1 COA         0.3195
     20 C4B         0.0646    1.9600   -2.6151 C.3       1 COA         0.1111
     21 O4B         1.0421    2.2460   -3.6341 O.3       1 COA        -0.1436
     22 C5B         0.4465    2.7364   -1.3618 C.3       1 COA         0.1504
     23 O5B         0.3986    4.1249   -1.6460 O.3       1 COA         0.1618
     24 P1A         0.7670    5.1936   -0.4641 P.3       1 COA        -1.1062
     25 O1A         1.1289    6.5260   -1.0837 O.co2     1 COA         0.3195
     26 O2A         1.6876    4.5161    0.5275 O.co2     1 COA         0.3195
     27 O3A        -0.6886    5.3125    0.2679 O.3       1 COA         0.4672
     28 P2A        -1.1429    6.2040    1.5594 P.3       1 COA        -1.1062
     29 O4A        -2.6377    6.0612    1.7476 O.co2     1 COA         0.3195
     30 O5A        -0.1888    5.9134    2.6974 O.co2     1 COA         0.3195
     31 O6A        -0.8065    7.6957    0.9792 O.3       1 COA         0.1618
     32 CBP        -1.0090    9.5771   -0.5793 C.3       1 COA         0.0000
     33 CCP        -1.4652    8.1470   -0.1994 C.3       1 COA         0.1504
     34 CDP         0.5182    9.5632   -0.8289 C.3       1 COA         0.1179
     35 CEP        -1.6888   10.0085   -1.8940 C.3       1 COA         0.1179
     36 CAP        -1.3149   10.5877    0.5658 C.3       1 COA         0.0611
     37 OAP        -0.6287   10.1955    1.7518 O.3       1 COA        -0.2728
     38 C9P        -0.8916   12.0249    0.2699 C.2       1 COA         0.3561
     39 O9P         0.2422   12.4378    0.5067 O.2       1 COA        -0.2391
     40 N8P        -1.9050   12.7747   -0.3052 N.am      1 COA        -0.1909
     41 C7P        -1.7368   14.1547   -0.6986 C.3       1 COA         0.1160
     42 C6P        -2.1026   15.0674    0.4629 C.3       1 COA         0.0286
     43 C5P        -1.9475   16.5372    0.1157 C.2       1 COA         0.3561
     44 O5P        -1.5666   16.9318   -0.9830 O.2       1 COA        -0.2391
     45 N4P        -2.2853   17.3525    1.1859 N.am      1 COA        -0.1909
     46 C3P        -2.2249   18.7948    1.1250 C.3       1 COA         0.1160
     47 C2P        -3.5279   19.4191    0.6532 C.3       1 COA         0.2607
     48 S1P        -3.4373   21.2341    0.5815 S.3       1 COA        -0.3539
     49 H2A         4.7878    3.5651   -0.5856 H         1 COA        -0.1369
     50 H61A        8.2460    3.7037   -3.6204 H         1 COA         0.2048
     51 H62A        7.6376    2.8871   -5.0353 H         1 COA         0.2048
     52 H8A         3.4866    0.7495   -6.2177 H         1 COA        -0.1292
     53 H1B         1.4348    0.6728   -4.9170 H         1 COA        -0.0393
     54 H2B         2.1376    0.4515   -1.8851 H         1 COA        -0.0393
     55 H3B        -0.2421    0.1333   -1.4258 H         1 COA        -0.0393
     56 H4B        -0.9063    2.3168   -2.9777 H         1 COA        -0.0393
     57 H51A        1.4605    2.4765   -1.0434 H         1 COA        -0.0393
     58 H52A       -0.2515    2.5189   -0.5478 H         1 COA        -0.0393
     59 H121       -1.2324    7.4355   -0.9984 H         1 COA        -0.0393
     60 H122       -2.5440    8.1138   -0.0133 H         1 COA        -0.0393
     61 H131        0.8796   10.5616   -1.1013 H         1 COA        -0.0393
     62 H132        0.7886    8.8842   -1.6454 H         1 COA        -0.0393
     63 H133        1.0681    9.2399    0.0618 H         1 COA        -0.0393
     64 H141       -1.3855   11.0192   -2.1904 H         1 COA        -0.0393
     65 H142       -2.7797   10.0132   -1.7903 H         1 COA        -0.0393
     66 H143       -1.4280    9.3402   -2.7211 H         1 COA        -0.0393
     67 H10        -2.3880   10.5770    0.7950 H         1 COA        -0.0393
     68 HO1         0.3169   10.1957    1.5366 H         1 COA         0.2010
     69 HN8        -2.8042   12.3405   -0.4899 H         1 COA         0.0865
     70 H71        -0.6987   14.3172   -1.0054 H         1 COA        -0.0393
     71 H72        -2.3708   14.3611   -1.5667 H         1 COA        -0.0393
     72 H61        -1.4661   14.8482    1.3291 H         1 COA        -0.0393
     73 H62        -3.1422   14.8920    0.7668 H         1 COA        -0.0393
     74 HN4        -2.5889   16.9159    2.0513 H         1 COA         0.0865
     75 H31        -2.0008   19.1335    2.1399 H         1 COA        -0.0393
     76 H32        -1.3809   19.0638    0.4848 H         1 COA        -0.0393
     77 H21        -3.8056   19.0465   -0.3381 H         1 COA        -0.0393
     78 H22        -4.3286   19.1550    1.3509 H         1 COA        -0.0393
     79 HS1        -2.4333   21.2879   -0.3037 H         1 COA         0.1718
@<TRIPOS>BOND
     1    1    2 ar
     2    1    6 ar
     3    2    3 ar
     4    2   49 1
     5    3    4 ar
     6    4    5 ar
     7    4   10 ar
     8    5    6 ar
     9    5    8 ar
    10    6    7 1
    11    7   50 1
    12    7   51 1
    13    8    9 ar
    14    9   10 ar
    15    9   52 1
    16   10   11 1
    17   11   12 1
    18   11   21 1
    19   11   53 1
    20   12   13 1
    21   12   14 1
    22   12   54 1
    23   14   15 1
    24   14   20 1
    25   14   55 1
    26   15   16 1
    27   16   17 2
    28   16   18 1
    29   16   19 1
    30   20   21 1
    31   20   22 1
    32   20   56 1
    33   22   23 1
    34   22   57 1
    35   22   58 1
    36   23   24 1
    37   24   25 2
    38   24   26 1
    39   24   27 1
    40   27   28 1
    41   28   29 2
    42   28   30 1
    43   28   31 1
    44   31   33 1
    45   32   33 1
    46   32   34 1
    47   32   35 1
    48   32   36 1
    49   33   59 1
    50   33   60 1
    51   34   61 1
    52   34   62 1
    53   34   63 1
    54   35   64 1
    55   35   65 1
    56   35   66 1
    57   36   37 1
    58   36   38 1
    59   36   67 1
    60   37   68 1
    61   38   39 2
    62   38   40 am
    63   40   41 1
    64   40   69 1
    65   41   42 1
    66   41   70 1
    67   41   71 1
    68   42   43 1
    69   42   72 1
    70   42   73 1
    71   43   44 2
    72   43   45 am
    73   45   46 1
    74   45   74 1
    75   46   47 1
    76   46   75 1
    77   46   76 1
    78   47   48 1
    79   47   77 1
    80   47   78 1
    81   48   79 1
@<TRIPOS>SUBSTRUCTURE
     1 COA         1 GROUP 0 A     ****
@<TRIPOS>MOLECULE
[5-(6-aminopurin-9-yl)-2-[[[[3-hydroxy-2,2-dimethyl-4-oxo-4-[[3-oxo-3-(2-sulfanylethylamino)propyl]amino]butoxy]-oxido-phosphoryl]oxy-oxido-phosphoryl]oxymethyl]-4-oxido-tetrahydrofuran-3-yl] phosphate
   79    81     1     0     0
SMALL
USER_CHARGES

@<TRIPOS>ATOM
      1 N1A         5.7146    2.0302   -0.7890 N.ar      1 COA        -0.5260
      2 C2A         4.3962    2.1571   -0.5034 C.ar      1 COA         0.6629
      3 N3A         3.3299    1.7526   -1.2276 N.ar      1 COA        -0.5260
      4 C4A         3.7311    1.1587   -2.3614 C.ar      1 COA         0.5212
      5 C5A         5.0346    0.9576   -2.7868 C.ar      1 COA         0.0088
      6 C6A         6.0470    1.4195   -1.9517 C.ar      1 COA         0.5212
      7 N6A         7.3978    1.2581   -2.3043 N.pl3     1 COA        -0.6025
      8 N7A         5.0562    0.3154   -3.9993 N.2       1 COA        -0.4271
      9 C8A         3.7892    0.1293   -4.3054 C.ar      1 COA         0.5691
     10 N9A         2.9479    0.6234   -3.3440 N.pl3     1 COA        -0.5033
     11 C1B         1.4328    0.5815   -3.3775 C.3       1 COA         0.2693
     12 C2B         0.6799   -0.1567   -2.2458 C.3       1 COA         0.2008
     13 O2B         0.5449   -1.4388   -2.5302 O.co2     1 COA        -0.1615
     14 C3B        -0.6749    0.5672   -2.2968 C.3       1 COA         0.1111
     15 O3B        -1.4782    0.1594   -3.4088 O.3       1 COA         0.1618
     16 P3B        -3.0996    0.4363   -3.3454 P.3       1 COA        -1.1921
     17 O7A        -3.5828   -0.3425   -2.1254 O.co2     1 COA         0.3195
     18 O8A        -3.6001   -0.1211   -4.6746 O.co2     1 COA         0.3195
     19 O9A        -3.2339    1.9510   -3.2185 O.co2     1 COA         0.3195
     20 C4B        -0.2635    2.0121   -2.5599 C.3       1 COA         0.1111
     21 O4B         0.9490    1.9478   -3.3354 O.3       1 COA        -0.1436
     22 C5B         0.0275    2.8029   -1.2913 C.3       1 COA         0.1504
     23 O5B         0.3986    4.1249   -1.6460 O.3       1 COA         0.1618
     24 P1A         0.7670    5.1936   -0.4641 P.3       1 COA        -1.1062
     25 O1A         1.1289    6.5260   -1.0837 O.co2     1 COA         0.3195
     26 O2A         1.6876    4.5161    0.5275 O.co2     1 COA         0.3195
     27 O3A        -0.6886    5.3125    0.2679 O.3       1 COA         0.4672
     28 P2A        -1.1429    6.2040    1.5594 P.3       1 COA        -1.1062
     29 O4A        -2.6377    6.0612    1.7476 O.co2     1 COA         0.3195
     30 O5A        -0.1888    5.9134    2.6974 O.co2     1 COA         0.3195
     31 O6A        -0.8065    7.6957    0.9792 O.3       1 COA         0.1618
     32 CBP        -1.0090    9.5771   -0.5793 C.3       1 COA         0.0000
     33 CCP        -1.4652    8.1470   -0.1994 C.3       1 COA         0.1504
     34 CDP         0.5182    9.5632   -0.8289 C.3       1 COA         0.1179
     35 CEP        -1.6888   10.0085   -1.8940 C.3       1 COA         0.1179
     36 CAP        -1.3149   10.5877    0.5658 C.3       1 COA         0.0611
     37 OAP        -2.7163   10.6149    0.8239 O.3       1 COA        -0.2728
     38 C9P        -0.6314   10.2649    1.8928 C.2       1 COA         0.3561
     39 O9P        -1.1331    9.5097    2.7236 O.2       1 COA        -0.2391
     40 N8P         0.5984   10.8887    2.0282 N.am      1 COA        -0.1909
     41 C7P         1.4450   10.7163    3.1861 C.3       1 COA         0.1160
     42 C6P         2.9047   10.8585    2.7801 C.3       1 COA         0.0286
     43 C5P         3.8519   10.6879    3.9543 C.2       1 COA         0.3561
     44 O5P         3.4693   10.4624    5.0992 O.2       1 COA        -0.2391
     45 N4P         5.1765   10.8208    3.5646 N.am      1 COA        -0.1909
     46 C3P         6.2826   10.7057    4.4870 C.3       1 COA         0.1160
     47 C2P         6.6683   12.0363    5.1124 C.3       1 COA         0.2607
     48 S1P         7.1697   13.2642    3.8681 S.3       1 COA        -0.3539
     49 H2A         4.1666    2.6505    0.4351 H         1 COA        -0.1369
     50 H61A        8.1108    1.6399   -1.7121 H         1 COA         0.2048
     51 H62A        7.6305    0.8472   -3.1886 H         1 COA         0.2048
     52 H8A         3.4224   -0.3522   -5.2016 H         1 COA        -0.1292
     53 H1B         1.1905    0.2000   -4.4133 H         1 COA        -0.0393
     54 H2B         1.1486    0.1388   -1.2941 H         1 COA        -0.0393
     55 H3B        -1.2745    0.4471   -1.3878 H         1 COA        -0.0393
     56 H4B        -1.0100    2.5497   -3.1559 H         1 COA        -0.0393
     57 H51A        0.8489    2.3441   -0.7330 H         1 COA        -0.0393
     58 H52A       -0.8601    2.8452   -0.6531 H         1 COA        -0.0393
     59 H121       -1.2324    7.4355   -0.9984 H         1 COA        -0.0393
     60 H122       -2.5440    8.1138   -0.0133 H         1 COA        -0.0393
     61 H131        0.8796   10.5616   -1.1013 H         1 COA        -0.0393
     62 H132        0.7886    8.8842   -1.6454 H         1 COA        -0.0393
     63 H133        1.0681    9.2399    0.0618 H         1 COA        -0.0393
     64 H141       -1.3855   11.0192   -2.1904 H         1 COA        -0.0393
     65 H142       -2.7797   10.0132   -1.7903 H         1 COA        -0.0393
     66 H143       -1.4280    9.3402   -2.7211 H         1 COA        -0.0393
     67 H10        -1.0237   11.5996    0.2569 H         1 COA        -0.0393
     68 HO1        -2.9668    9.7148    1.0837 H         1 COA         0.2010
     69 HN8         0.9463   11.4752    1.2758 H         1 COA         0.0865
     70 H71         1.1793   11.4637    3.9404 H         1 COA        -0.0393
     71 H72         1.2600    9.7300    3.6233 H         1 COA        -0.0393
     72 H61         3.0779   11.8474    2.3377 H         1 COA        -0.0393
     73 H62         3.1588   10.1097    2.0195 H         1 COA        -0.0393
     74 HN4         5.3780   11.0076    2.5867 H         1 COA         0.0865
     75 H31         5.9577   10.0127    5.2675 H         1 COA        -0.0393
     76 H32         7.1148   10.2439    3.9498 H         1 COA        -0.0393
     77 H21         5.8394   12.4515    5.6948 H         1 COA        -0.0393
     78 H22         7.5154   11.8855    5.7888 H         1 COA        -0.0393
     79 HS1         6.0071   13.2699    3.2028 H         1 COA         0.1718
@<TRIPOS>BOND
     1    1    2 ar
     2    1    6 ar
     3    2    3 ar
     4    2   49 1
     5    3    4 ar
     6    4    5 ar
     7    4   10 ar
     8    5    6 ar
     9    5    8 ar
    10    6    7 1
    11    7   50 1
    12    7   51 1
    13    8    9 ar
    14    9   10 ar
    15    9   52 1
    16   10   11 1
    17   11   12 1
    18   11   21 1
    19   11   53 1
    20   12   13 1
    21   12   14 1
    22   12   54 1
    23   14   15 1
    24   14   20 1
    25   14   55 1
    26   15   16 1
    27   16   17 2
    28   16   18 1
    29   16   19 1
    30   20   21 1
    31   20   22 1
    32   20   56 1
    33   22   23 1
    34   22   57 1
    35   22   58 1
    36   23   24 1
    37   24   25 2
    38   24   26 1
    39   24   27 1
    40   27   28 1
    41   28   29 2
    42   28   30 1
    43   28   31 1
    44   31   33 1
    45   32   33 1
    46   32   34 1
    47   32   35 1
    48   32   36 1
    49   33   59 1
    50   33   60 1
    51   34   61 1
    52   34   62 1
    53   34   63 1
    54   35   64 1
    55   35   65 1
    56   35   66 1
    57   36   37 1
    58   36   38 1
    59   36   67 1
    60   37   68 1
    61   38   39 2
    62   38   40 am
    63   40   41 1
    64   40   69 1
    65   41   42 1
    66   41   70 1
    67   41   71 1
    68   42   43 1
    69   42   72 1
    70   42   73 1
    71   43   44 2
    72   43   45 am
    73   45   46 1
    74   45   74 1
    75   46   47 1
    76   46   75 1
    77   46   76 1
    78   47   48 1
    79   47   77 1
    80   47   78 1
    81   48   79 1
@<TRIPOS>SUBSTRUCTURE
     1 COA         1 GROUP 0 A     ****
@<TRIPOS>MOLECULE
[5-(6-aminopurin-9-yl)-2-[[[[3-hydroxy-2,2-dimethyl-4-oxo-4-[[3-oxo-3-(2-sulfanylethylamino)propyl]amino]butoxy]-oxido-phosphoryl]oxy-oxido-phosphoryl]oxymethyl]-4-oxido-tetrahydrofuran-3-yl] phosphate
   79    81     1     0     0
SMALL
USER_CHARGES

@<TRIPOS>ATOM
      1 N1A         6.3197    3.3711    0.1967 N.ar      1 COA        -0.5260
      2 C2A         5.0033    3.3256    0.5141 C.ar      1 COA         0.6629
      3 N3A         4.0730    2.4196    0.1418 N.ar      1 COA        -0.5260
      4 C4A         4.6208    1.4811   -0.6447 C.ar      1 COA         0.5212
      5 C5A         5.9423    1.3962   -1.0530 C.ar      1 COA         0.0088
      6 C6A         6.8050    2.3902   -0.6021 C.ar      1 COA         0.5212
      7 N6A         8.1621    2.3826   -0.9671 N.pl3     1 COA        -0.6025
      8 N7A         6.1335    0.2987   -1.8543 N.2       1 COA        -0.4271
      9 C8A         4.9500   -0.2731   -1.9316 C.ar      1 COA         0.5691
     10 N9A         4.0006    0.4065   -1.2155 N.pl3     1 COA        -0.5033
     11 C1B         2.5376    0.0288   -1.0907 C.3       1 COA         0.2693
     12 C2B         1.9579   -0.2640    0.3131 C.3       1 COA         0.2008
     13 O2B         2.1299   -1.5323    0.6368 O.co2     1 COA        -0.1615
     14 C3B         0.4729    0.0487    0.0699 C.3       1 COA         0.1111
     15 O3B        -0.1943   -0.9780   -0.6709 O.3       1 COA         0.1618
     16 P3B        -1.8364   -1.0586   -0.5907 P.3       1 COA        -1.1921
     17 O7A        -2.1459   -1.2889    0.8856 O.co2     1 COA         0.3195
     18 O8A        -2.1706   -2.2476   -1.4866 O.co2     1 COA         0.3195
     19 O9A        -2.3217    0.2823   -1.1335 O.co2     1 COA         0.3195
     20 C4B         0.5412    1.2713   -0.8394 C.3       1 COA         0.1111
     21 O4B         1.7485    1.1278   -1.6124 O.3       1 COA        -0.1436
     22 C5B         0.6184    2.5901   -0.0816 C.3       1 COA         0.1504
     23 O5B         0.6777    3.6562   -1.0149 O.3       1 COA         0.1618
     24 P1A         0.7670    5.1936   -0.4641 P.3       1 COA        -1.1062
     25 O1A         0.8194    6.1476   -1.6376 O.co2     1 COA         0.3195
     26 O2A         1.8029    5.2507    0.6375 O.co2     1 COA         0.3195
     27 O3A        -0.6886    5.3125    0.2679 O.3       1 COA         0.4672
     28 P2A        -1.1429    6.2040    1.5594 P.3       1 COA        -1.1062
     29 O4A        -2.6377    6.0612    1.7476 O.co2     1 COA         0.3195
     30 O5A        -0.1888    5.9134    2.6974 O.co2     1 COA         0.3195
     31 O6A        -0.8065    7.6957    0.9792 O.3       1 COA         0.1618
     32 CBP        -1.0090    9.5771   -0.5793 C.3       1 COA         0.0000
     33 CCP        -1.4652    8.1470   -0.1994 C.3       1 COA         0.1504
     34 CDP         0.5182    9.5632   -0.8289 C.3       1 COA         0.1179
     35 CEP        -1.6888   10.0085   -1.8940 C.3       1 COA         0.1179
     36 CAP        -1.3149   10.5877    0.5658 C.3       1 COA         0.0611
     37 OAP        -0.6287   10.1955    1.7518 O.3       1 COA        -0.2728
     38 C9P        -0.8916   12.0249    0.2699 C.2       1 COA         0.3561
     39 O9P         0.2422   12.4378    0.5067 O.2       1 COA        -0.2391
     40 N8P        -1.9050   12.7747   -0.3052 N.am      1 COA        -0.1909
     41 C7P        -1.7368   14.1547   -0.6986 C.3       1 COA         0.1160
     42 C6P        -2.1026   15.0674    0.4629 C.3       1 COA         0.0286
     43 C5P        -1.9475   16.5372    0.1157 C.2       1 COA         0.3561
     44 O5P        -2.0951   16.9787   -1.0207 O.2       1 COA        -0.2391
     45 N4P        -1.6218   17.2934    1.2320 N.am      1 COA        -0.1909
     46 C3P        -1.4146   18.7223    1.1804 C.3       1 COA         0.1160
     47 C2P         0.0318   19.0976    0.9021 C.3       1 COA         0.2607
     48 S1P         0.2778   20.8985    0.8398 S.3       1 COA        -0.3539
     49 H2A         4.6492    4.1260    1.1552 H         1 COA        -0.1369
     50 H61A        8.7564    3.1335   -0.6708 H         1 COA         0.2048
     51 H62A        8.4991    1.6788   -1.5963 H         1 COA         0.2048
     52 H8A         4.7208   -1.1726   -2.4865 H         1 COA        -0.1292
     53 H1B         2.4085   -0.8200   -1.8256 H         1 COA        -0.0393
     54 H2B         2.3286    0.5212    0.9904 H         1 COA        -0.0393
     55 H3B        -0.0977    0.2245    0.9885 H         1 COA        -0.0393
     56 H4B        -0.2996    1.3083   -1.5416 H         1 COA        -0.0393
     57 H51A        1.5144    2.6204    0.5455 H         1 COA        -0.0393
     58 H52A       -0.2654    2.7227    0.5494 H         1 COA        -0.0393
     59 H121       -1.2324    7.4355   -0.9984 H         1 COA        -0.0393
     60 H122       -2.5440    8.1138   -0.0133 H         1 COA        -0.0393
     61 H131        0.8796   10.5616   -1.1013 H         1 COA        -0.0393
     62 H132        0.7886    8.8842   -1.6454 H         1 COA        -0.0393
     63 H133        1.0681    9.2399    0.0618 H         1 COA        -0.0393
     64 H141       -1.3855   11.0192   -2.1904 H         1 COA        -0.0393
     65 H142       -2.7797   10.0132   -1.7903 H         1 COA        -0.0393
     66 H143       -1.4280    9.3402   -2.7211 H         1 COA        -0.0393
     67 H10        -2.3880   10.5770    0.7950 H         1 COA        -0.0393
     68 HO1         0.3169   10.1957    1.5366 H         1 COA         0.2010
     69 HN8        -2.8042   12.3405   -0.4899 H         1 COA         0.0865
     70 H71        -0.6987   14.3172   -1.0054 H         1 COA        -0.0393
     71 H72        -2.3708   14.3611   -1.5667 H         1 COA        -0.0393
     72 H61        -1.4661   14.8482    1.3291 H         1 COA        -0.0393
     73 H62        -3.1422   14.8920    0.7668 H         1 COA        -0.0393
     74 HN4        -1.5246   16.8212    2.1262 H         1 COA         0.0865
     75 H31        -2.0528   19.0939    0.3744 H         1 COA        -0.0393
     76 H32        -1.7781   19.1436    2.1211 H         1 COA        -0.0393
     77 H21         0.6989   18.6828    1.6646 H         1 COA        -0.0393
     78 H22         0.3308   18.6890   -0.0682 H         1 COA        -0.0393
     79 HS1        -0.5673   21.1188   -0.1759 H         1 COA         0.1718
@<TRIPOS>BOND
     1    1    2 ar
     2    1    6 ar
     3    2    3 ar
     4    2   49 1
     5    3    4 ar
     6    4    5 ar
     7    4   10 ar
     8    5    6 ar
     9    5    8 ar
    10    6    7 1
    11    7   50 1
    12    7   51 1
    13    8    9 ar
    14    9   10 ar
    15    9   52 1
    16   10   11 1
    17   11   12 1
    18   11   21 1
    19   11   53 1
    20   12   13 1
    21   12   14 1
    22   12   54 1
    23   14   15 1
    24   14   20 1
    25   14   55 1
    26   15   16 1
    27   16   17 2
    28   16   18 1
    29   16   19 1
    30   20   21 1
    31   20   22 1
    32   20   56 1
    33   22   23 1
    34   22   57 1
    35   22   58 1
    36   23   24 1
    37   24   25 2
    38   24   26 1
    39   24   27 1
    40   27   28 1
    41   28   29 2
    42   28   30 1
    43   28   31 1
    44   31   33 1
    45   32   33 1
    46   32   34 1
    47   32   35 1
    48   32   36 1
    49   33   59 1
    50   33   60 1
    51   34   61 1
    52   34   62 1
    53   34   63 1
    54   35   64 1
    55   35   65 1
    56   35   66 1
    57   36   37 1
    58   36   38 1
    59   36   67 1
    60   37   68 1
    61   38   39 2
    62   38   40 am
    63   40   41 1
    64   40   69 1
    65   41   42 1
    66   41   70 1
    67   41   71 1
    68   42   43 1
    69   42   72 1
    70   42   73 1
    71   43   44 2
    72   43   45 am
    73   45   46 1
    74   45   74 1
    75   46   47 1
    76   46   75 1
    77   46   76 1
    78   47   48 1
    79   47   77 1
    80   47   78 1
    81   48   79 1
@<TRIPOS>SUBSTRUCTURE
     1 COA         1 GROUP 0 A     ****
@<TRIPOS>MOLECULE
[5-(6-aminopurin-9-yl)-2-[[[[3-hydroxy-2,2-dimethyl-4-oxo-4-[[3-oxo-3-(2-sulfanylethylamino)propyl]amino]butoxy]-oxido-phosphoryl]oxy-oxido-phosphoryl]oxymethyl]-4-oxido-tetrahydrofuran-3-yl] phosphate
   79    81     1     0     0
SMALL
USER_CHARGES

@<TRIPOS>ATOM
      1 N1A         6.3197    3.3711    0.1967 N.ar      1 COA        -0.5260
      2 C2A         5.0033    3.3256    0.5141 C.ar      1 COA         0.6629
      3 N3A         4.0730    2.4196    0.1418 N.ar      1 COA        -0.5260
      4 C4A         4.6208    1.4811   -0.6447 C.ar      1 COA         0.5212
      5 C5A         5.9423    1.3962   -1.0530 C.ar      1 COA         0.0088
      6 C6A         6.8050    2.3902   -0.6021 C.ar      1 COA         0.5212
      7 N6A         8.1621    2.3826   -0.9671 N.pl3     1 COA        -0.6025
      8 N7A         6.1335    0.2987   -1.8543 N.2       1 COA        -0.4271
      9 C8A         4.9500   -0.2731   -1.9316 C.ar      1 COA         0.5691
     10 N9A         4.0006    0.4065   -1.2155 N.pl3     1 COA        -0.5033
     11 C1B         2.5376    0.0288   -1.0907 C.3       1 COA         0.2693
     12 C2B         1.9579   -0.2640    0.3131 C.3       1 COA         0.2008
     13 O2B         2.1299   -1.5323    0.6368 O.co2     1 COA        -0.1615
     14 C3B         0.4729    0.0487    0.0699 C.3       1 COA         0.1111
     15 O3B        -0.1943   -0.9780   -0.6709 O.3       1 COA         0.1618
     16 P3B        -1.8364   -1.0586   -0.5907 P.3       1 COA        -1.1921
     17 O7A        -2.1459   -1.2889    0.8856 O.co2     1 COA         0.3195
     18 O8A        -2.1706   -2.2476   -1.4866 O.co2     1 COA         0.3195
     19 O9A        -2.3217    0.2823   -1.1335 O.co2     1 COA         0.3195
     20 C4B         0.5412    1.2713   -0.8394 C.3       1 COA         0.1111
     21 O4B         1.7485    1.1278   -1.6124 O.3       1 COA        -0.1436
     22 C5B         0.6184    2.5901   -0.0816 C.3       1 COA         0.1504
     23 O5B         0.6777    3.6562   -1.0149 O.3       1 COA         0.1618
     24 P1A         0.7670    5.1936   -0.4641 P.3       1 COA        -1.1062
     25 O1A         0.8194    6.1476   -1.6376 O.co2     1 COA         0.3195
     26 O2A         1.8029    5.2507    0.6375 O.co2     1 COA         0.3195
     27 O3A        -0.6886    5.3125    0.2679 O.3       1 COA         0.4672
     28 P2A        -1.1429    6.2040    1.5594 P.3       1 COA        -1.1062
     29 O4A        -2.6377    6.0612    1.7476 O.co2     1 COA         0.3195
     30 O5A        -0.1888    5.9134    2.6974 O.co2     1 COA         0.3195
     31 O6A        -0.8065    7.6957    0.9792 O.3       1 COA         0.1618
     32 CBP        -1.0463    9.4480   -0.7182 C.3       1 COA         0.0000
     33 CCP        -1.7297    8.3208    0.0940 C.3       1 COA         0.1504
     34 CDP         0.1097    8.8359   -1.5452 C.3       1 COA         0.1179
     35 CEP        -2.0542   10.0578   -1.7127 C.3       1 COA         0.1179
     36 CAP        -0.4581   10.5415    0.2222 C.3       1 COA         0.0611
     37 OAP         0.1628   11.5628   -0.5541 O.3       1 COA        -0.2728
     38 C9P        -1.4903   11.2331    1.1103 C.2       1 COA         0.3561
     39 O9P        -2.1297   12.2135    0.7334 O.2       1 COA        -0.2391
     40 N8P        -1.6312   10.6209    2.3453 N.am      1 COA        -0.1909
     41 C7P        -2.5657   11.0776    3.3480 C.3       1 COA         0.1160
     42 C6P        -1.8923   12.1042    4.2472 C.3       1 COA         0.0286
     43 C5P        -2.8224   12.6272    5.3271 C.2       1 COA         0.3561
     44 O5P        -3.9866   12.2562    5.4490 O.2       1 COA        -0.2391
     45 N4P        -2.1911   13.5609    6.1357 N.am      1 COA        -0.1909
     46 C3P        -2.8508   14.2179    7.2405 C.3       1 COA         0.1160
     47 C2P        -2.7028   13.4598    8.5495 C.3       1 COA         0.2607
     48 S1P        -0.9626   13.2636    9.0404 S.3       1 COA        -0.3539
     49 H2A         4.6492    4.1260    1.1552 H         1 COA        -0.1369
     50 H61A        8.7564    3.1335   -0.6708 H         1 COA         0.2048
     51 H62A        8.4991    1.6788   -1.5963 H         1 COA         0.2048
     52 H8A         4.7208   -1.1726   -2.4865 H         1 COA        -0.1292
     53 H1B         2.4085   -0.8200   -1.8256 H         1 COA        -0.0393
     54 H2B         2.3286    0.5212    0.9904 H         1 COA        -0.0393
     55 H3B        -0.0977    0.2245    0.9885 H         1 COA        -0.0393
     56 H4B        -0.2996    1.3083   -1.5416 H         1 COA        -0.0393
     57 H51A        1.5144    2.6204    0.5455 H         1 COA        -0.0393
     58 H52A       -0.2654    2.7227    0.5494 H         1 COA        -0.0393
     59 H121       -2.1262    7.5446   -0.5686 H         1 COA        -0.0393
     60 H122       -2.5562    8.7139    0.6956 H         1 COA        -0.0393
     61 H131        0.6194    9.6060   -2.1356 H         1 COA        -0.0393
     62 H132       -0.2524    8.0744   -2.2449 H         1 COA        -0.0393
     63 H133        0.8566    8.3597   -0.9005 H         1 COA        -0.0393
     64 H141       -1.5995   10.8607   -2.3043 H         1 COA        -0.0393
     65 H142       -2.9149   10.4873   -1.1878 H         1 COA        -0.0393
     66 H143       -2.4255    9.3094   -2.4205 H         1 COA        -0.0393
     67 H10         0.3192   10.1040    0.8613 H         1 COA        -0.0393
     68 HO1        -0.5280   11.9349   -1.1241 H         1 COA         0.2010
     69 HN8        -1.0789    9.7962    2.5598 H         1 COA         0.0865
     70 H71        -3.4403   11.5120    2.8534 H         1 COA        -0.0393
     71 H72        -2.9130   10.2202    3.9332 H         1 COA        -0.0393
     72 H61        -1.5426   12.9558    3.6504 H         1 COA        -0.0393
     73 H62        -1.0138   11.6609    4.7327 H         1 COA        -0.0393
     74 HN4        -1.2213   13.7931    5.9425 H         1 COA         0.0865
     75 H31        -2.3856   15.2030    7.3311 H         1 COA        -0.0393
     76 H32        -3.8977   14.3628    6.9619 H         1 COA        -0.0393
     77 H21        -3.2364   13.9671    9.3598 H         1 COA        -0.0393
     78 H22        -3.1300   12.4584    8.4374 H         1 COA        -0.0393
     79 HS1        -0.5867   12.5834    7.9494 H         1 COA         0.1718
@<TRIPOS>BOND
     1    1    2 ar
     2    1    6 ar
     3    2    3 ar
     4    2   49 1
     5    3    4 ar
     6    4    5 ar
     7    4   10 ar
     8    5    6 ar
     9    5    8 ar
    10    6    7 1
    11    7   50 1
    12    7   51 1
    13    8    9 ar
    14    9   10 ar
    15    9   52 1
    16   10   11 1
    17   11   12 1
    18   11   21 1
    19   11   53 1
    20   12   13 1
    21   12   14 1
    22   12   54 1
    23   14   15 1
    24   14   20 1
    25   14   55 1
    26   15   16 1
    27   16   17 2
    28   16   18 1
    29   16   19 1
    30   20   21 1
    31   20   22 1
    32   20   56 1
    33   22   23 1
    34   22   57 1
    35   22   58 1
    36   23   24 1
    37   24   25 2
    38   24   26 1
    39   24   27 1
    40   27   28 1
    41   28   29 2
    42   28   30 1
    43   28   31 1
    44   31   33 1
    45   32   33 1
    46   32   34 1
    47   32   35 1
    48   32   36 1
    49   33   59 1
    50   33   60 1
    51   34   61 1
    52   34   62 1
    53   34   63 1
    54   35   64 1
    55   35   65 1
    56   35   66 1
    57   36   37 1
    58   36   38 1
    59   36   67 1
    60   37   68 1
    61   38   39 2
    62   38   40 am
    63   40   41 1
    64   40   69 1
    65   41   42 1
    66   41   70 1
    67   41   71 1
    68   42   43 1
    69   42   72 1
    70   42   73 1
    71   43   44 2
    72   43   45 am
    73   45   46 1
    74   45   74 1
    75   46   47 1
    76   46   75 1
    77   46   76 1
    78   47   48 1
    79   47   77 1
    80   47   78 1
    81   48   79 1
@<TRIPOS>SUBSTRUCTURE
     1 COA         1 GROUP 0 A     ****
@<TRIPOS>MOLECULE
[5-(6-aminopurin-9-yl)-2-[[[[3-hydroxy-2,2-dimethyl-4-oxo-4-[[3-oxo-3-(2-sulfanylethylamino)propyl]amino]butoxy]-oxido-phosphoryl]oxy-oxido-phosphoryl]oxymethyl]-4-oxido-tetrahydrofuran-3-yl] phosphate
   79    81     1     0     0
SMALL
USER_CHARGES

@<TRIPOS>ATOM
      1 N1A         5.7146    2.0302   -0.7890 N.ar      1 COA        -0.5260
      2 C2A         4.3962    2.1571   -0.5034 C.ar      1 COA         0.6629
      3 N3A         3.3299    1.7526   -1.2276 N.ar      1 COA        -0.5260
      4 C4A         3.7311    1.1587   -2.3614 C.ar      1 COA         0.5212
      5 C5A         5.0346    0.9576   -2.7868 C.ar      1 COA         0.0088
      6 C6A         6.0470    1.4195   -1.9517 C.ar      1 COA         0.5212
      7 N6A         7.3978    1.2581   -2.3043 N.pl3     1 COA        -0.6025
      8 N7A         5.0562    0.3154   -3.9993 N.2       1 COA        -0.4271
      9 C8A         3.7892    0.1293   -4.3054 C.ar      1 COA         0.5691
     10 N9A         2.9479    0.6234   -3.3440 N.pl3     1 COA        -0.5033
     11 C1B         1.4328    0.5815   -3.3775 C.3       1 COA         0.2693
     12 C2B         0.6799   -0.1567   -2.2458 C.3       1 COA         0.2008
     13 O2B         0.5449   -1.4388   -2.5302 O.co2     1 COA        -0.1615
     14 C3B        -0.6749    0.5672   -2.2968 C.3       1 COA         0.1111
     15 O3B        -1.4782    0.1594   -3.4088 O.3       1 COA         0.1618
     16 P3B        -3.0996    0.4363   -3.3454 P.3       1 COA        -1.1921
     17 O7A        -3.5828   -0.3425   -2.1254 O.co2     1 COA         0.3195
     18 O8A        -3.6001   -0.1211   -4.6746 O.co2     1 COA         0.3195
     19 O9A        -3.2339    1.9510   -3.2185 O.co2     1 COA         0.3195
     20 C4B        -0.2635    2.0121   -2.5599 C.3       1 COA         0.1111
     21 O4B         0.9490    1.9478   -3.3354 O.3       1 COA        -0.1436
     22 C5B         0.0275    2.8029   -1.2913 C.3       1 COA         0.1504
     23 O5B         0.3986    4.1249   -1.6460 O.3       1 COA         0.1618
     24 P1A         0.7670    5.1936   -0.4641 P.3       1 COA        -1.1062
     25 O1A         1.1289    6.5260   -1.0837 O.co2     1 COA         0.3195
     26 O2A         1.6876    4.5161    0.5275 O.co2     1 COA         0.3195
     27 O3A        -0.6886    5.3125    0.2679 O.3       1 COA         0.4672
     28 P2A        -1.1429    6.2040    1.5594 P.3       1 COA        -1.1062
     29 O4A        -2.6377    6.0612    1.7476 O.co2     1 COA         0.3195
     30 O5A        -0.1888    5.9134    2.6974 O.co2     1 COA         0.3195
     31 O6A        -0.8065    7.6957    0.9792 O.3       1 COA         0.1618
     32 CBP        -1.0090    9.5771   -0.5793 C.3       1 COA         0.0000
     33 CCP        -1.4652    8.1470   -0.1994 C.3       1 COA         0.1504
     34 CDP         0.5182    9.5632   -0.8289 C.3       1 COA         0.1179
     35 CEP        -1.6888   10.0085   -1.8940 C.3       1 COA         0.1179
     36 CAP        -1.3149   10.5877    0.5658 C.3       1 COA         0.0611
     37 OAP        -2.7163   10.6149    0.8239 O.3       1 COA        -0.2728
     38 C9P        -0.6314   10.2649    1.8928 C.2       1 COA         0.3561
     39 O9P        -1.1331    9.5097    2.7236 O.2       1 COA        -0.2391
     40 N8P         0.5984   10.8887    2.0282 N.am      1 COA        -0.1909
     41 C7P         1.4450   10.7163    3.1861 C.3       1 COA         0.1160
     42 C6P         2.2684   11.9760    3.4117 C.3       1 COA         0.0286
     43 C5P         3.1834   11.8618    4.6178 C.2       1 COA         0.3561
     44 O5P         3.2414   10.8595    5.3249 O.2       1 COA        -0.2391
     45 N4P         3.9250   13.0187    4.8068 N.am      1 COA        -0.1909
     46 C3P         4.8731   13.1772    5.8854 C.3       1 COA         0.1160
     47 C2P         4.2444   13.7589    7.1411 C.3       1 COA         0.2607
     48 S1P         3.5223   15.4031    6.8532 S.3       1 COA        -0.3539
     49 H2A         4.1666    2.6505    0.4351 H         1 COA        -0.1369
     50 H61A        8.1108    1.6399   -1.7121 H         1 COA         0.2048
     51 H62A        7.6305    0.8472   -3.1886 H         1 COA         0.2048
     52 H8A         3.4224   -0.3522   -5.2016 H         1 COA        -0.1292
     53 H1B         1.1905    0.2000   -4.4133 H         1 COA        -0.0393
     54 H2B         1.1486    0.1388   -1.2941 H         1 COA        -0.0393
     55 H3B        -1.2745    0.4471   -1.3878 H         1 COA        -0.0393
     56 H4B        -1.0100    2.5497   -3.1559 H         1 COA        -0.0393
     57 H51A        0.8489    2.3441   -0.7330 H         1 COA        -0.0393
     58 H52A       -0.8601    2.8452   -0.6531 H         1 COA        -0.0393
     59 H121       -1.2324    7.4355   -0.9984 H         1 COA        -0.0393
     60 H122       -2.5440    8.1138   -0.0133 H         1 COA        -0.0393
     61 H131        0.8796   10.5616   -1.1013 H         1 COA        -0.0393
     62 H132        0.7886    8.8842   -1.6454 H         1 COA        -0.0393
     63 H133        1.0681    9.2399    0.0618 H         1 COA        -0.0393
     64 H141       -1.3855   11.0192   -2.1904 H         1 COA        -0.0393
     65 H142       -2.7797   10.0132   -1.7903 H         1 COA        -0.0393
     66 H143       -1.4280    9.3402   -2.7211 H         1 COA        -0.0393
     67 H10        -1.0237   11.5996    0.2569 H         1 COA        -0.0393
     68 HO1        -2.9668    9.7148    1.0837 H         1 COA         0.2010
     69 HN8         0.9463   11.4752    1.2758 H         1 COA         0.0865
     70 H71         0.8208   10.5013    4.0593 H         1 COA        -0.0393
     71 H72         2.0973    9.8514    3.0292 H         1 COA        -0.0393
     72 H61         1.6056   12.8374    3.5615 H         1 COA        -0.0393
     73 H62         2.8850   12.1861    2.5288 H         1 COA        -0.0393
     74 HN4         3.7956   13.7893    4.1577 H         1 COA         0.0865
     75 H31         5.2628   12.1782    6.0979 H         1 COA        -0.0393
     76 H32         5.6982   13.7899    5.5134 H         1 COA        -0.0393
     77 H21         3.4615   13.0997    7.5299 H         1 COA        -0.0393
     78 H22         5.0123   13.8653    7.9136 H         1 COA        -0.0393
     79 HS1         4.6636   15.9905    6.4701 H         1 COA         0.1718
@<TRIPOS>BOND
     1    1    2 ar
     2    1    6 ar
     3    2    3 ar
     4    2   49 1
     5    3    4 ar
     6    4    5 ar
     7    4   10 ar
     8    5    6 ar
     9    5    8 ar
    10    6    7 1
    11    7   50 1
    12    7   51 1
    13    8    9 ar
    14    9   10 ar
    15    9   52 1
    16   10   11 1
    17   11   12 1
    18   11   21 1
    19   11   53 1
    20   12   13 1
    21   12   14 1
    22   12   54 1
    23   14   15 1
    24   14   20 1
    25   14   55 1
    26   15   16 1
    27   16   17 2
    28   16   18 1
    29   16   19 1
    30   20   21 1
    31   20   22 1
    32   20   56 1
    33   22   23 1
    34   22   57 1
    35   22   58 1
    36   23   24 1
    37   24   25 2
    38   24   26 1
    39   24   27 1
    40   27   28 1
    41   28   29 2
    42   28   30 1
    43   28   31 1
    44   31   33 1
    45   32   33 1
    46   32   34 1
    47   32   35 1
    48   32   36 1
    49   33   59 1
    50   33   60 1
    51   34   61 1
    52   34   62 1
    53   34   63 1
    54   35   64 1
    55   35   65 1
    56   35   66 1
    57   36   37 1
    58   36   38 1
    59   36   67 1
    60   37   68 1
    61   38   39 2
    62   38   40 am
    63   40   41 1
    64   40   69 1
    65   41   42 1
    66   41   70 1
    67   41   71 1
    68   42   43 1
    69   42   72 1
    70   42   73 1
    71   43   44 2
    72   43   45 am
    73   45   46 1
    74   45   74 1
    75   46   47 1
    76   46   75 1
    77   46   76 1
    78   47   48 1
    79   47   77 1
    80   47   78 1
    81   48   79 1
@<TRIPOS>SUBSTRUCTURE
     1 COA         1 GROUP 0 A     ****
@<TRIPOS>MOLECULE
[5-(6-aminopurin-9-yl)-2-[[[[3-hydroxy-2,2-dimethyl-4-oxo-4-[[3-oxo-3-(2-sulfanylethylamino)propyl]amino]butoxy]-oxido-phosphoryl]oxy-oxido-phosphoryl]oxymethyl]-4-oxido-tetrahydrofuran-3-yl] phosphate
   79    81     1     0     0
SMALL
USER_CHARGES

@<TRIPOS>ATOM
      1 N1A         6.3197    3.3711    0.1967 N.ar      1 COA        -0.5260
      2 C2A         5.0033    3.3256    0.5141 C.ar      1 COA         0.6629
      3 N3A         4.0730    2.4196    0.1418 N.ar      1 COA        -0.5260
      4 C4A         4.6208    1.4811   -0.6447 C.ar      1 COA         0.5212
      5 C5A         5.9423    1.3962   -1.0530 C.ar      1 COA         0.0088
      6 C6A         6.8050    2.3902   -0.6021 C.ar      1 COA         0.5212
      7 N6A         8.1621    2.3826   -0.9671 N.pl3     1 COA        -0.6025
      8 N7A         6.1335    0.2987   -1.8543 N.2       1 COA        -0.4271
      9 C8A         4.9500   -0.2731   -1.9316 C.ar      1 COA         0.5691
     10 N9A         4.0006    0.4065   -1.2155 N.pl3     1 COA        -0.5033
     11 C1B         2.5376    0.0288   -1.0907 C.3       1 COA         0.2693
     12 C2B         1.9579   -0.2640    0.3131 C.3       1 COA         0.2008
     13 O2B         2.1299   -1.5323    0.6368 O.co2     1 COA        -0.1615
     14 C3B         0.4729    0.0487    0.0699 C.3       1 COA         0.1111
     15 O3B        -0.1943   -0.9780   -0.6709 O.3       1 COA         0.1618
     16 P3B        -1.8364   -1.0586   -0.5907 P.3       1 COA        -1.1921
     17 O7A        -2.1459   -1.2889    0.8856 O.co2     1 COA         0.3195
     18 O8A        -2.1706   -2.2476   -1.4866 O.co2     1 COA         0.3195
     19 O9A        -2.3217    0.2823   -1.1335 O.co2     1 COA         0.3195
     20 C4B         0.5412    1.2713   -0.8394 C.3       1 COA         0.1111
     21 O4B         1.7485    1.1278   -1.6124 O.3       1 COA        -0.1436
     22 C5B         0.6184    2.5901   -0.0816 C.3       1 COA         0.1504
     23 O5B         0.6777    3.6562   -1.0149 O.3       1 COA         0.1618
     24 P1A         0.7670    5.1936   -0.4641 P.3       1 COA        -1.1062
     25 O1A         0.8194    6.1476   -1.6376 O.co2     1 COA         0.3195
     26 O2A         1.8029    5.2507    0.6375 O.co2     1 COA         0.3195
     27 O3A        -0.6886    5.3125    0.2679 O.3       1 COA         0.4672
     28 P2A        -1.1429    6.2040    1.5594 P.3       1 COA        -1.1062
     29 O4A        -2.6377    6.0612    1.7476 O.co2     1 COA         0.3195
     30 O5A        -0.1888    5.9134    2.6974 O.co2     1 COA         0.3195
     31 O6A        -0.8065    7.6957    0.9792 O.3       1 COA         0.1618
     32 CBP        -1.0463    9.4480   -0.7182 C.3       1 COA         0.0000
     33 CCP        -1.7297    8.3208    0.0940 C.3       1 COA         0.1504
     34 CDP         0.1097    8.8359   -1.5452 C.3       1 COA         0.1179
     35 CEP        -2.0542   10.0578   -1.7127 C.3       1 COA         0.1179
     36 CAP        -0.4581   10.5415    0.2222 C.3       1 COA         0.0611
     37 OAP         0.1628   11.5628   -0.5541 O.3       1 COA        -0.2728
     38 C9P        -1.4903   11.2331    1.1103 C.2       1 COA         0.3561
     39 O9P        -2.1297   12.2135    0.7334 O.2       1 COA        -0.2391
     40 N8P        -1.6312   10.6209    2.3453 N.am      1 COA        -0.1909
     41 C7P        -2.5657   11.0776    3.3480 C.3       1 COA         0.1160
     42 C6P        -1.8923   12.1042    4.2472 C.3       1 COA         0.0286
     43 C5P        -0.6795   11.5390    4.9645 C.2       1 COA         0.3561
     44 O5P        -0.5753   10.3567    5.2795 O.2       1 COA        -0.2391
     45 N4P         0.2703   12.5195    5.2108 N.am      1 COA        -0.1909
     46 C3P         1.5208   12.2514    5.8830 C.3       1 COA         0.1160
     47 C2P         2.6345   11.8668    4.9229 C.3       1 COA         0.2607
     48 S1P         2.9807   13.1750    3.7078 S.3       1 COA        -0.3539
     49 H2A         4.6492    4.1260    1.1552 H         1 COA        -0.1369
     50 H61A        8.7564    3.1335   -0.6708 H         1 COA         0.2048
     51 H62A        8.4991    1.6788   -1.5963 H         1 COA         0.2048
     52 H8A         4.7208   -1.1726   -2.4865 H         1 COA        -0.1292
     53 H1B         2.4085   -0.8200   -1.8256 H         1 COA        -0.0393
     54 H2B         2.3286    0.5212    0.9904 H         1 COA        -0.0393
     55 H3B        -0.0977    0.2245    0.9885 H         1 COA        -0.0393
     56 H4B        -0.2996    1.3083   -1.5416 H         1 COA        -0.0393
     57 H51A        1.5144    2.6204    0.5455 H         1 COA        -0.0393
     58 H52A       -0.2654    2.7227    0.5494 H         1 COA        -0.0393
     59 H121       -2.1262    7.5446   -0.5686 H         1 COA        -0.0393
     60 H122       -2.5562    8.7139    0.6956 H         1 COA        -0.0393
     61 H131        0.6194    9.6060   -2.1356 H         1 COA        -0.0393
     62 H132       -0.2524    8.0744   -2.2449 H         1 COA        -0.0393
     63 H133        0.8566    8.3597   -0.9005 H         1 COA        -0.0393
     64 H141       -1.5995   10.8607   -2.3043 H         1 COA        -0.0393
     65 H142       -2.9149   10.4873   -1.1878 H         1 COA        -0.0393
     66 H143       -2.4255    9.3094   -2.4205 H         1 COA        -0.0393
     67 H10         0.3192   10.1040    0.8613 H         1 COA        -0.0393
     68 HO1        -0.5280   11.9349   -1.1241 H         1 COA         0.2010
     69 HN8        -1.0789    9.7962    2.5598 H         1 COA         0.0865
     70 H71        -3.4403   11.5120    2.8534 H         1 COA        -0.0393
     71 H72        -2.9130   10.2202    3.9332 H         1 COA        -0.0393
     72 H61        -2.6016   12.4670    5.0015 H         1 COA        -0.0393
     73 H62        -1.5711   12.9703    3.6552 H         1 COA        -0.0393
     74 HN4         0.0780   13.4688    4.9047 H         1 COA         0.0865
     75 H31         1.7886   13.1725    6.4072 H         1 COA        -0.0393
     76 H32         1.3344   11.4779    6.6324 H         1 COA        -0.0393
     77 H21         3.5595   11.6426    5.4639 H         1 COA        -0.0393
     78 H22         2.3402   10.9700    4.3689 H         1 COA        -0.0393
     79 HS1         1.7539   13.1929    3.1702 H         1 COA         0.1718
@<TRIPOS>BOND
     1    1    2 ar
     2    1    6 ar
     3    2    3 ar
     4    2   49 1
     5    3    4 ar
     6    4    5 ar
     7    4   10 ar
     8    5    6 ar
     9    5    8 ar
    10    6    7 1
    11    7   50 1
    12    7   51 1
    13    8    9 ar
    14    9   10 ar
    15    9   52 1
    16   10   11 1
    17   11   12 1
    18   11   21 1
    19   11   53 1
    20   12   13 1
    21   12   14 1
    22   12   54 1
    23   14   15 1
    24   14   20 1
    25   14   55 1
    26   15   16 1
    27   16   17 2
    28   16   18 1
    29   16   19 1
    30   20   21 1
    31   20   22 1
    32   20   56 1
    33   22   23 1
    34   22   57 1
    35   22   58 1
    36   23   24 1
    37   24   25 2
    38   24   26 1
    39   24   27 1
    40   27   28 1
    41   28   29 2
    42   28   30 1
    43   28   31 1
    44   31   33 1
    45   32   33 1
    46   32   34 1
    47   32   35 1
    48   32   36 1
    49   33   59 1
    50   33   60 1
    51   34   61 1
    52   34   62 1
    53   34   63 1
    54   35   64 1
    55   35   65 1
    56   35   66 1
    57   36   37 1
    58   36   38 1
    59   36   67 1
    60   37   68 1
    61   38   39 2
    62   38   40 am
    63   40   41 1
    64   40   69 1
    65   41   42 1
    66   41   70 1
    67   41   71 1
    68   42   43 1
    69   42   72 1
    70   42   73 1
    71   43   44 2
    72   43   45 am
    73   45   46 1
    74   45   74 1
    75   46   47 1
    76   46   75 1
    77   46   76 1
    78   47   48 1
    79   47   77 1
    80   47   78 1
    81   48   79 1
@<TRIPOS>SUBSTRUCTURE
     1 COA         1 GROUP 0 A     ****
@<TRIPOS>MOLECULE
[5-(6-aminopurin-9-yl)-2-[[[[3-hydroxy-2,2-dimethyl-4-oxo-4-[[3-oxo-3-(2-sulfanylethylamino)propyl]amino]butoxy]-oxido-phosphoryl]oxy-oxido-phosphoryl]oxymethyl]-4-oxido-tetrahydrofuran-3-yl] phosphate
   79    81     1     0     0
SMALL
USER_CHARGES

@<TRIPOS>ATOM
      1 N1A         4.6908    0.9263    0.5284 N.ar      1 COA        -0.5260
      2 C2A         3.4193    1.3931    0.4919 C.ar      1 COA         0.6629
      3 N3A         2.4653    1.1803   -0.4405 N.ar      1 COA        -0.5260
      4 C4A         2.9338    0.3916   -1.4192 C.ar      1 COA         0.5212
      5 C5A         4.2020   -0.1580   -1.5185 C.ar      1 COA         0.0088
      6 C6A         5.0963    0.1348   -0.4937 C.ar      1 COA         0.5212
      7 N6A         6.4038   -0.3801   -0.5131 N.pl3     1 COA        -0.6025
      8 N7A         4.3170   -0.9111   -2.6598 N.2       1 COA        -0.4271
      9 C8A         3.1403   -0.8212   -3.2436 C.ar      1 COA         0.5691
     10 N9A         2.2683   -0.0422   -2.5302 N.pl3     1 COA        -0.5033
     11 C1B         0.8363    0.2748   -2.9142 C.3       1 COA         0.2693
     12 C2B        -0.3043   -0.1391   -1.9549 C.3       1 COA         0.2008
     13 O2B        -0.6991   -1.3747   -2.2004 O.co2     1 COA        -0.1615
     14 C3B        -1.3853    0.8773   -2.3558 C.3       1 COA         0.1111
     15 O3B        -2.0094    0.5576   -3.6033 O.3       1 COA         0.1618
     16 P3B        -3.4806    1.2180   -3.9334 P.3       1 COA        -1.1921
     17 O7A        -4.3962    0.7100   -2.8235 O.co2     1 COA         0.3195
     18 O8A        -3.8112    0.6588   -5.3140 O.co2     1 COA         0.3195
     19 O9A        -3.2466    2.7257   -3.9151 O.co2     1 COA         0.3195
     20 C4B        -0.5713    2.1464   -2.5855 C.3       1 COA         0.1111
     21 O4B         0.7211    1.7136   -3.0526 O.3       1 COA        -0.1436
     22 C5B        -0.3655    2.9745   -1.3239 C.3       1 COA         0.1504
     23 O5B         0.3986    4.1249   -1.6460 O.3       1 COA         0.1618
     24 P1A         0.7670    5.1936   -0.4641 P.3       1 COA        -1.1062
     25 O1A         1.1289    6.5260   -1.0837 O.co2     1 COA         0.3195
     26 O2A         1.6876    4.5161    0.5275 O.co2     1 COA         0.3195
     27 O3A        -0.6886    5.3125    0.2679 O.3       1 COA         0.4672
     28 P2A        -1.1429    6.2040    1.5594 P.3       1 COA        -1.1062
     29 O4A        -2.6377    6.0612    1.7476 O.co2     1 COA         0.3195
     30 O5A        -0.1888    5.9134    2.6974 O.co2     1 COA         0.3195
     31 O6A        -0.8065    7.6957    0.9792 O.3       1 COA         0.1618
     32 CBP        -1.0090    9.5771   -0.5793 C.3       1 COA         0.0000
     33 CCP        -1.4652    8.1470   -0.1994 C.3       1 COA         0.1504
     34 CDP         0.5182    9.5632   -0.8289 C.3       1 COA         0.1179
     35 CEP        -1.6888   10.0085   -1.8940 C.3       1 COA         0.1179
     36 CAP        -1.3149   10.5877    0.5658 C.3       1 COA         0.0611
     37 OAP        -0.8841   11.8921    0.1862 O.3       1 COA        -0.2728
     38 C9P        -2.7940   10.7032    0.9282 C.2       1 COA         0.3561
     39 O9P        -3.6519   11.0028    0.0998 O.2       1 COA        -0.2391
     40 N8P        -3.0442   10.4114    2.2595 N.am      1 COA        -0.1909
     41 C7P        -4.3702   10.4275    2.8329 C.3       1 COA         0.1160
     42 C6P        -5.0021    9.0493    2.7028 C.3       1 COA         0.0286
     43 C5P        -6.4020    8.9964    3.2879 C.2       1 COA         0.3561
     44 O5P        -7.1558    9.9654    3.3161 O.2       1 COA        -0.2391
     45 N4P        -6.7034    7.7334    3.7761 N.am      1 COA        -0.1909
     46 C3P        -7.9714    7.4093    4.3882 C.3       1 COA         0.1160
     47 C2P        -7.9755    7.6394    5.8907 C.3       1 COA         0.2607
     48 S1P        -9.5771    7.2274    6.6476 S.3       1 COA        -0.3539
     49 H2A         3.1287    2.0232    1.3259 H         1 COA        -0.1369
     50 H61A        7.0472   -0.1189    0.2098 H         1 COA         0.2048
     51 H62A        6.7069   -0.9256   -1.2976 H         1 COA         0.2048
     52 H8A         2.8628   -1.2932   -4.1762 H         1 COA        -0.1292
     53 H1B         0.7316   -0.1451   -3.9582 H         1 COA        -0.0393
     54 H2B         0.0098    0.1350   -0.9357 H         1 COA        -0.0393
     55 H3B        -2.1756    1.0002   -1.6070 H         1 COA        -0.0393
     56 H4B        -1.0101    2.7804   -3.3646 H         1 COA        -0.0393
     57 H51A        0.1721    2.3946   -0.5677 H         1 COA        -0.0393
     58 H52A       -1.3279    3.2941   -0.9132 H         1 COA        -0.0393
     59 H121       -1.2324    7.4355   -0.9984 H         1 COA        -0.0393
     60 H122       -2.5440    8.1138   -0.0133 H         1 COA        -0.0393
     61 H131        0.8796   10.5616   -1.1013 H         1 COA        -0.0393
     62 H132        0.7886    8.8842   -1.6454 H         1 COA        -0.0393
     63 H133        1.0681    9.2399    0.0618 H         1 COA        -0.0393
     64 H141       -1.3855   11.0192   -2.1904 H         1 COA        -0.0393
     65 H142       -2.7797   10.0132   -1.7903 H         1 COA        -0.0393
     66 H143       -1.4280    9.3402   -2.7211 H         1 COA        -0.0393
     67 H10        -0.7524   10.3112    1.4665 H         1 COA        -0.0393
     68 HO1        -1.3767   12.1229   -0.6167 H         1 COA         0.2010
     69 HN8        -2.2741   10.1459    2.8657 H         1 COA         0.0865
     70 H71        -4.3037   10.7243    3.8844 H         1 COA        -0.0393
     71 H72        -4.9756   11.1803    2.3180 H         1 COA        -0.0393
     72 H61        -4.3847    8.3019    3.2165 H         1 COA        -0.0393
     73 H62        -5.0579    8.7587    1.6463 H         1 COA        -0.0393
     74 HN4        -6.0010    7.0036    3.6998 H         1 COA         0.0865
     75 H31        -8.7131    8.0577    3.9146 H         1 COA        -0.0393
     76 H32        -8.2102    6.3753    4.1269 H         1 COA        -0.0393
     77 H21        -7.1974    7.0455    6.3811 H         1 COA        -0.0393
     78 H22        -7.7748    8.6957    6.0950 H         1 COA        -0.0393
     79 HS1       -10.2956    8.1094    5.9402 H         1 COA         0.1718
@<TRIPOS>BOND
     1    1    2 ar
     2    1    6 ar
     3    2    3 ar
     4    2   49 1
     5    3    4 ar
     6    4    5 ar
     7    4   10 ar
     8    5    6 ar
     9    5    8 ar
    10    6    7 1
    11    7   50 1
    12    7   51 1
    13    8    9 ar
    14    9   10 ar
    15    9   52 1
    16   10   11 1
    17   11   12 1
    18   11   21 1
    19   11   53 1
    20   12   13 1
    21   12   14 1
    22   12   54 1
    23   14   15 1
    24   14   20 1
    25   14   55 1
    26   15   16 1
    27   16   17 2
    28   16   18 1
    29   16   19 1
    30   20   21 1
    31   20   22 1
    32   20   56 1
    33   22   23 1
    34   22   57 1
    35   22   58 1
    36   23   24 1
    37   24   25 2
    38   24   26 1
    39   24   27 1
    40   27   28 1
    41   28   29 2
    42   28   30 1
    43   28   31 1
    44   31   33 1
    45   32   33 1
    46   32   34 1
    47   32   35 1
    48   32   36 1
    49   33   59 1
    50   33   60 1
    51   34   61 1
    52   34   62 1
    53   34   63 1
    54   35   64 1
    55   35   65 1
    56   35   66 1
    57   36   37 1
    58   36   38 1
    59   36   67 1
    60   37   68 1
    61   38   39 2
    62   38   40 am
    63   40   41 1
    64   40   69 1
    65   41   42 1
    66   41   70 1
    67   41   71 1
    68   42   43 1
    69   42   72 1
    70   42   73 1
    71   43   44 2
    72   43   45 am
    73   45   46 1
    74   45   74 1
    75   46   47 1
    76   46   75 1
    77   46   76 1
    78   47   48 1
    79   47   77 1
    80   47   78 1
    81   48   79 1
@<TRIPOS>SUBSTRUCTURE
     1 COA         1 GROUP 0 A     ****
@<TRIPOS>MOLECULE
[5-(6-aminopurin-9-yl)-2-[[[[3-hydroxy-2,2-dimethyl-4-oxo-4-[[3-oxo-3-(2-sulfanylethylamino)propyl]amino]butoxy]-oxido-phosphoryl]oxy-oxido-phosphoryl]oxymethyl]-4-oxido-tetrahydrofuran-3-yl] phosphate
   79    81     1     0     0
SMALL
USER_CHARGES

@<TRIPOS>ATOM
      1 N1A         6.1093    3.4221   -2.1706 N.ar      1 COA        -0.5260
      2 C2A         4.9028    3.1932   -1.5982 C.ar      1 COA         0.6629
      3 N3A         3.8250    2.5648   -2.1163 N.ar      1 COA        -0.5260
      4 C4A         4.0802    2.1492   -3.3659 C.ar      1 COA         0.5212
      5 C5A         5.2577    2.3095   -4.0788 C.ar      1 COA         0.0088
      6 C6A         6.2970    2.9741   -3.4353 C.ar      1 COA         0.5212
      7 N6A         7.5267    3.1813   -4.0834 N.pl3     1 COA        -0.6025
      8 N7A         5.1483    1.7539   -5.3288 N.2       1 COA        -0.4271
      9 C8A         3.9267    1.2647   -5.3749 C.ar      1 COA         0.5691
     10 N9A         3.2402    1.4796   -4.2093 N.pl3     1 COA        -0.5033
     11 C1B         1.8139    1.0528   -3.9225 C.3       1 COA         0.2693
     12 C2B         1.5441    0.0924   -2.7404 C.3       1 COA         0.2008
     13 O2B         1.6560   -1.1661   -3.1231 O.co2     1 COA        -0.1615
     14 C3B         0.0825    0.4469   -2.4241 C.3       1 COA         0.1111
     15 O3B        -0.8371   -0.0985   -3.3754 O.3       1 COA         0.1618
     16 P3B        -2.4169   -0.2494   -2.9382 P.3       1 COA        -1.1921
     17 O7A        -2.4022   -1.1842   -1.7323 O.co2     1 COA         0.3195
     18 O8A        -3.0660   -0.8511   -4.1810 O.co2     1 COA         0.3195
     19 O9A        -2.8748    1.1724   -2.6264 O.co2     1 COA         0.3195
     20 C4B         0.0646    1.9600   -2.6151 C.3       1 COA         0.1111
     21 O4B         1.0421    2.2460   -3.6341 O.3       1 COA        -0.1436
     22 C5B         0.4465    2.7364   -1.3618 C.3       1 COA         0.1504
     23 O5B         0.3986    4.1249   -1.6460 O.3       1 COA         0.1618
     24 P1A         0.7670    5.1936   -0.4641 P.3       1 COA        -1.1062
     25 O1A         1.1289    6.5260   -1.0837 O.co2     1 COA         0.3195
     26 O2A         1.6876    4.5161    0.5275 O.co2     1 COA         0.3195
     27 O3A        -0.6886    5.3125    0.2679 O.3       1 COA         0.4672
     28 P2A        -1.1429    6.2040    1.5594 P.3       1 COA        -1.1062
     29 O4A        -2.6377    6.0612    1.7476 O.co2     1 COA         0.3195
     30 O5A        -0.1888    5.9134    2.6974 O.co2     1 COA         0.3195
     31 O6A        -0.8065    7.6957    0.9792 O.3       1 COA         0.1618
     32 CBP        -1.0090    9.5771   -0.5793 C.3       1 COA         0.0000
     33 CCP        -1.4652    8.1470   -0.1994 C.3       1 COA         0.1504
     34 CDP         0.5182    9.5632   -0.8289 C.3       1 COA         0.1179
     35 CEP        -1.6888   10.0085   -1.8940 C.3       1 COA         0.1179
     36 CAP        -1.3149   10.5877    0.5658 C.3       1 COA         0.0611
     37 OAP        -0.6287   10.1955    1.7518 O.3       1 COA        -0.2728
     38 C9P        -0.8916   12.0249    0.2699 C.2       1 COA         0.3561
     39 O9P         0.2422   12.4378    0.5067 O.2       1 COA        -0.2391
     40 N8P        -1.9050   12.7747   -0.3052 N.am      1 COA        -0.1909
     41 C7P        -1.7368   14.1547   -0.6986 C.3       1 COA         0.1160
     42 C6P        -1.2514   14.2219   -2.1393 C.3       1 COA         0.0286
     43 C5P        -1.0533   15.6490   -2.6178 C.2       1 COA         0.3561
     44 O5P        -1.2665   16.6306   -1.9114 O.2       1 COA        -0.2391
     45 N4P        -0.6112   15.6896   -3.9320 N.am      1 COA        -0.1909
     46 C3P        -0.3453   16.9241   -4.6341 C.3       1 COA         0.1160
     47 C2P         0.7433   16.7807   -5.6851 C.3       1 COA         0.2607
     48 S1P         0.3166   15.5536   -6.9578 S.3       1 COA        -0.3539
     49 H2A         4.7878    3.5651   -0.5856 H         1 COA        -0.1369
     50 H61A        8.2460    3.7037   -3.6204 H         1 COA         0.2048
     51 H62A        7.6376    2.8871   -5.0353 H         1 COA         0.2048
     52 H8A         3.4866    0.7495   -6.2177 H         1 COA        -0.1292
     53 H1B         1.4348    0.6728   -4.9170 H         1 COA        -0.0393
     54 H2B         2.1376    0.4515   -1.8851 H         1 COA        -0.0393
     55 H3B        -0.2421    0.1333   -1.4258 H         1 COA        -0.0393
     56 H4B        -0.9063    2.3168   -2.9777 H         1 COA        -0.0393
     57 H51A        1.4605    2.4765   -1.0434 H         1 COA        -0.0393
     58 H52A       -0.2515    2.5189   -0.5478 H         1 COA        -0.0393
     59 H121       -1.2324    7.4355   -0.9984 H         1 COA        -0.0393
     60 H122       -2.5440    8.1138   -0.0133 H         1 COA        -0.0393
     61 H131        0.8796   10.5616   -1.1013 H         1 COA        -0.0393
     62 H132        0.7886    8.8842   -1.6454 H         1 COA        -0.0393
     63 H133        1.0681    9.2399    0.0618 H         1 COA        -0.0393
     64 H141       -1.3855   11.0192   -2.1904 H         1 COA        -0.0393
     65 H142       -2.7797   10.0132   -1.7903 H         1 COA        -0.0393
     66 H143       -1.4280    9.3402   -2.7211 H         1 COA        -0.0393
     67 H10        -2.3880   10.5770    0.7950 H         1 COA        -0.0393
     68 HO1         0.3169   10.1957    1.5366 H         1 COA         0.2010
     69 HN8        -2.8042   12.3405   -0.4899 H         1 COA         0.0865
     70 H71        -2.6911   14.6793   -0.5876 H         1 COA        -0.0393
     71 H72        -1.0190   14.6354   -0.0263 H         1 COA        -0.0393
     72 H61        -1.9744   13.7322   -2.8035 H         1 COA        -0.0393
     73 H62        -0.2983   13.6879   -2.2410 H         1 COA        -0.0393
     74 HN4        -0.4679   14.8119   -4.4228 H         1 COA         0.0865
     75 H31        -1.2848   17.2101   -5.1141 H         1 COA        -0.0393
     76 H32        -0.1022   17.6839   -3.8870 H         1 COA        -0.0393
     77 H21         0.9412   17.7376   -6.1788 H         1 COA        -0.0393
     78 H22         1.6690   16.4500   -5.2037 H         1 COA        -0.0393
     79 HS1        -0.7952   16.1711   -7.3784 H         1 COA         0.1718
@<TRIPOS>BOND
     1    1    2 ar
     2    1    6 ar
     3    2    3 ar
     4    2   49 1
     5    3    4 ar
     6    4    5 ar
     7    4   10 ar
     8    5    6 ar
     9    5    8 ar
    10    6    7 1
    11    7   50 1
    12    7   51 1
    13    8    9 ar
    14    9   10 ar
    15    9   52 1
    16   10   11 1
    17   11   12 1
    18   11   21 1
    19   11   53 1
    20   12   13 1
    21   12   14 1
    22   12   54 1
    23   14   15 1
    24   14   20 1
    25   14   55 1
    26   15   16 1
    27   16   17 2
    28   16   18 1
    29   16   19 1
    30   20   21 1
    31   20   22 1
    32   20   56 1
    33   22   23 1
    34   22   57 1
    35   22   58 1
    36   23   24 1
    37   24   25 2
    38   24   26 1
    39   24   27 1
    40   27   28 1
    41   28   29 2
    42   28   30 1
    43   28   31 1
    44   31   33 1
    45   32   33 1
    46   32   34 1
    47   32   35 1
    48   32   36 1
    49   33   59 1
    50   33   60 1
    51   34   61 1
    52   34   62 1
    53   34   63 1
    54   35   64 1
    55   35   65 1
    56   35   66 1
    57   36   37 1
    58   36   38 1
    59   36   67 1
    60   37   68 1
    61   38   39 2
    62   38   40 am
    63   40   41 1
    64   40   69 1
    65   41   42 1
    66   41   70 1
    67   41   71 1
    68   42   43 1
    69   42   72 1
    70   42   73 1
    71   43   44 2
    72   43   45 am
    73   45   46 1
    74   45   74 1
    75   46   47 1
    76   46   75 1
    77   46   76 1
    78   47   48 1
    79   47   77 1
    80   47   78 1
    81   48   79 1
@<TRIPOS>SUBSTRUCTURE
     1 COA         1 GROUP 0 A     ****
@<TRIPOS>MOLECULE
[5-(6-aminopurin-9-yl)-2-[[[[3-hydroxy-2,2-dimethyl-4-oxo-4-[[3-oxo-3-(2-sulfanylethylamino)propyl]amino]butoxy]-oxido-phosphoryl]oxy-oxido-phosphoryl]oxymethyl]-4-oxido-tetrahydrofuran-3-yl] phosphate
   79    81     1     0     0
SMALL
USER_CHARGES

@<TRIPOS>ATOM
      1 N1A         6.1093    3.4221   -2.1706 N.ar      1 COA        -0.5260
      2 C2A         4.9028    3.1932   -1.5982 C.ar      1 COA         0.6629
      3 N3A         3.8250    2.5648   -2.1163 N.ar      1 COA        -0.5260
      4 C4A         4.0802    2.1492   -3.3659 C.ar      1 COA         0.5212
      5 C5A         5.2577    2.3095   -4.0788 C.ar      1 COA         0.0088
      6 C6A         6.2970    2.9741   -3.4353 C.ar      1 COA         0.5212
      7 N6A         7.5267    3.1813   -4.0834 N.pl3     1 COA        -0.6025
      8 N7A         5.1483    1.7539   -5.3288 N.2       1 COA        -0.4271
      9 C8A         3.9267    1.2647   -5.3749 C.ar      1 COA         0.5691
     10 N9A         3.2402    1.4796   -4.2093 N.pl3     1 COA        -0.5033
     11 C1B         1.8139    1.0528   -3.9225 C.3       1 COA         0.2693
     12 C2B         1.5441    0.0924   -2.7404 C.3       1 COA         0.2008
     13 O2B         1.6560   -1.1661   -3.1231 O.co2     1 COA        -0.1615
     14 C3B         0.0825    0.4469   -2.4241 C.3       1 COA         0.1111
     15 O3B        -0.8371   -0.0985   -3.3754 O.3       1 COA         0.1618
     16 P3B        -2.4169   -0.2494   -2.9382 P.3       1 COA        -1.1921
     17 O7A        -2.4022   -1.1842   -1.7323 O.co2     1 COA         0.3195
     18 O8A        -3.0660   -0.8511   -4.1810 O.co2     1 COA         0.3195
     19 O9A        -2.8748    1.1724   -2.6264 O.co2     1 COA         0.3195
     20 C4B         0.0646    1.9600   -2.6151 C.3       1 COA         0.1111
     21 O4B         1.0421    2.2460   -3.6341 O.3       1 COA        -0.1436
     22 C5B         0.4465    2.7364   -1.3618 C.3       1 COA         0.1504
     23 O5B         0.3986    4.1249   -1.6460 O.3       1 COA         0.1618
     24 P1A         0.7670    5.1936   -0.4641 P.3       1 COA        -1.1062
     25 O1A         1.1289    6.5260   -1.0837 O.co2     1 COA         0.3195
     26 O2A         1.6876    4.5161    0.5275 O.co2     1 COA         0.3195
     27 O3A        -0.6886    5.3125    0.2679 O.3       1 COA         0.4672
     28 P2A        -1.1429    6.2040    1.5594 P.3       1 COA        -1.1062
     29 O4A        -2.6377    6.0612    1.7476 O.co2     1 COA         0.3195
     30 O5A        -0.1888    5.9134    2.6974 O.co2     1 COA         0.3195
     31 O6A        -0.8065    7.6957    0.9792 O.3       1 COA         0.1618
     32 CBP        -1.0090    9.5771   -0.5793 C.3       1 COA         0.0000
     33 CCP        -1.4652    8.1470   -0.1994 C.3       1 COA         0.1504
     34 CDP         0.5182    9.5632   -0.8289 C.3       1 COA         0.1179
     35 CEP        -1.6888   10.0085   -1.8940 C.3       1 COA         0.1179
     36 CAP        -1.3149   10.5877    0.5658 C.3       1 COA         0.0611
     37 OAP        -0.8841   11.8921    0.1862 O.3       1 COA        -0.2728
     38 C9P        -2.7940   10.7032    0.9282 C.2       1 COA         0.3561
     39 O9P        -3.6570   10.0067    0.3969 O.2       1 COA        -0.2391
     40 N8P        -3.0315   11.6427    1.9186 N.am      1 COA        -0.1909
     41 C7P        -4.3486   11.9130    2.4473 C.3       1 COA         0.1160
     42 C6P        -4.6208   11.0029    3.6363 C.3       1 COA         0.0286
     43 C5P        -3.6187   11.2018    4.7593 C.2       1 COA         0.3561
     44 O5P        -2.6952   12.0090    4.7011 O.2       1 COA        -0.2391
     45 N4P        -3.8831   10.3643    5.8331 N.am      1 COA        -0.1909
     46 C3P        -3.0800   10.3484    7.0340 C.3       1 COA         0.1160
     47 C2P        -1.9289    9.3586    6.9591 C.3       1 COA         0.2607
     48 S1P        -2.5022    7.6510    6.7082 S.3       1 COA        -0.3539
     49 H2A         4.7878    3.5651   -0.5856 H         1 COA        -0.1369
     50 H61A        8.2460    3.7037   -3.6204 H         1 COA         0.2048
     51 H62A        7.6376    2.8871   -5.0353 H         1 COA         0.2048
     52 H8A         3.4866    0.7495   -6.2177 H         1 COA        -0.1292
     53 H1B         1.4348    0.6728   -4.9170 H         1 COA        -0.0393
     54 H2B         2.1376    0.4515   -1.8851 H         1 COA        -0.0393
     55 H3B        -0.2421    0.1333   -1.4258 H         1 COA        -0.0393
     56 H4B        -0.9063    2.3168   -2.9777 H         1 COA        -0.0393
     57 H51A        1.4605    2.4765   -1.0434 H         1 COA        -0.0393
     58 H52A       -0.2515    2.5189   -0.5478 H         1 COA        -0.0393
     59 H121       -1.2324    7.4355   -0.9984 H         1 COA        -0.0393
     60 H122       -2.5440    8.1138   -0.0133 H         1 COA        -0.0393
     61 H131        0.8796   10.5616   -1.1013 H         1 COA        -0.0393
     62 H132        0.7886    8.8842   -1.6454 H         1 COA        -0.0393
     63 H133        1.0681    9.2399    0.0618 H         1 COA        -0.0393
     64 H141       -1.3855   11.0192   -2.1904 H         1 COA        -0.0393
     65 H142       -2.7797   10.0132   -1.7903 H         1 COA        -0.0393
     66 H143       -1.4280    9.3402   -2.7211 H         1 COA        -0.0393
     67 H10        -0.7524   10.3112    1.4665 H         1 COA        -0.0393
     68 HO1        -1.3767   12.1229   -0.6167 H         1 COA         0.2010
     69 HN8        -2.2509   12.1532    2.3202 H         1 COA         0.0865
     70 H71        -4.4081   12.9648    2.7445 H         1 COA        -0.0393
     71 H72        -5.0921   11.7528    1.6601 H         1 COA        -0.0393
     72 H61        -4.5839    9.9523    3.3226 H         1 COA        -0.0393
     73 H62        -5.6263   11.1919    4.0328 H         1 COA        -0.0393
     74 HN4        -4.6772    9.7338    5.7723 H         1 COA         0.0865
     75 H31        -2.6870   11.3617    7.1512 H         1 COA        -0.0393
     76 H32        -3.7470   10.1450    7.8755 H         1 COA        -0.0393
     77 H21        -1.2415    9.6164    6.1469 H         1 COA        -0.0393
     78 H22        -1.3681    9.3849    7.8986 H         1 COA        -0.0393
     79 HS1        -3.2316    7.5836    7.8297 H         1 COA         0.1718
@<TRIPOS>BOND
     1    1    2 ar
     2    1    6 ar
     3    2    3 ar
     4    2   49 1
     5    3    4 ar
     6    4    5 ar
     7    4   10 ar
     8    5    6 ar
     9    5    8 ar
    10    6    7 1
    11    7   50 1
    12    7   51 1
    13    8    9 ar
    14    9   10 ar
    15    9   52 1
    16   10   11 1
    17   11   12 1
    18   11   21 1
    19   11   53 1
    20   12   13 1
    21   12   14 1
    22   12   54 1
    23   14   15 1
    24   14   20 1
    25   14   55 1
    26   15   16 1
    27   16   17 2
    28   16   18 1
    29   16   19 1
    30   20   21 1
    31   20   22 1
    32   20   56 1
    33   22   23 1
    34   22   57 1
    35   22   58 1
    36   23   24 1
    37   24   25 2
    38   24   26 1
    39   24   27 1
    40   27   28 1
    41   28   29 2
    42   28   30 1
    43   28   31 1
    44   31   33 1
    45   32   33 1
    46   32   34 1
    47   32   35 1
    48   32   36 1
    49   33   59 1
    50   33   60 1
    51   34   61 1
    52   34   62 1
    53   34   63 1
    54   35   64 1
    55   35   65 1
    56   35   66 1
    57   36   37 1
    58   36   38 1
    59   36   67 1
    60   37   68 1
    61   38   39 2
    62   38   40 am
    63   40   41 1
    64   40   69 1
    65   41   42 1
    66   41   70 1
    67   41   71 1
    68   42   43 1
    69   42   72 1
    70   42   73 1
    71   43   44 2
    72   43   45 am
    73   45   46 1
    74   45   74 1
    75   46   47 1
    76   46   75 1
    77   46   76 1
    78   47   48 1
    79   47   77 1
    80   47   78 1
    81   48   79 1
@<TRIPOS>SUBSTRUCTURE
     1 COA         1 GROUP 0 A     ****
@<TRIPOS>MOLECULE
[5-(6-aminopurin-9-yl)-2-[[[[3-hydroxy-2,2-dimethyl-4-oxo-4-[[3-oxo-3-(2-sulfanylethylamino)propyl]amino]butoxy]-oxido-phosphoryl]oxy-oxido-phosphoryl]oxymethyl]-4-oxido-tetrahydrofuran-3-yl] phosphate
   79    81     1     0     0
SMALL
USER_CHARGES

@<TRIPOS>ATOM
      1 N1A         6.3197    3.3711    0.1967 N.ar      1 COA        -0.5260
      2 C2A         5.0033    3.3256    0.5141 C.ar      1 COA         0.6629
      3 N3A         4.0730    2.4196    0.1418 N.ar      1 COA        -0.5260
      4 C4A         4.6208    1.4811   -0.6447 C.ar      1 COA         0.5212
      5 C5A         5.9423    1.3962   -1.0530 C.ar      1 COA         0.0088
      6 C6A         6.8050    2.3902   -0.6021 C.ar      1 COA         0.5212
      7 N6A         8.1621    2.3826   -0.9671 N.pl3     1 COA        -0.6025
      8 N7A         6.1335    0.2987   -1.8543 N.2       1 COA        -0.4271
      9 C8A         4.9500   -0.2731   -1.9316 C.ar      1 COA         0.5691
     10 N9A         4.0006    0.4065   -1.2155 N.pl3     1 COA        -0.5033
     11 C1B         2.5376    0.0288   -1.0907 C.3       1 COA         0.2693
     12 C2B         1.9579   -0.2640    0.3131 C.3       1 COA         0.2008
     13 O2B         2.1299   -1.5323    0.6368 O.co2     1 COA        -0.1615
     14 C3B         0.4729    0.0487    0.0699 C.3       1 COA         0.1111
     15 O3B        -0.1943   -0.9780   -0.6709 O.3       1 COA         0.1618
     16 P3B        -1.8364   -1.0586   -0.5907 P.3       1 COA        -1.1921
     17 O7A        -2.1459   -1.2889    0.8856 O.co2     1 COA         0.3195
     18 O8A        -2.1706   -2.2476   -1.4866 O.co2     1 COA         0.3195
     19 O9A        -2.3217    0.2823   -1.1335 O.co2     1 COA         0.3195
     20 C4B         0.5412    1.2713   -0.8394 C.3       1 COA         0.1111
     21 O4B         1.7485    1.1278   -1.6124 O.3       1 COA        -0.1436
     22 C5B         0.6184    2.5901   -0.0816 C.3       1 COA         0.1504
     23 O5B         0.6777    3.6562   -1.0149 O.3       1 COA         0.1618
     24 P1A         0.7670    5.1936   -0.4641 P.3       1 COA        -1.1062
     25 O1A         0.8194    6.1476   -1.6376 O.co2     1 COA         0.3195
     26 O2A         1.8029    5.2507    0.6375 O.co2     1 COA         0.3195
     27 O3A        -0.6886    5.3125    0.2679 O.3       1 COA         0.4672
     28 P2A        -1.1429    6.2040    1.5594 P.3       1 COA        -1.1062
     29 O4A        -2.6377    6.0612    1.7476 O.co2     1 COA         0.3195
     30 O5A        -0.1888    5.9134    2.6974 O.co2     1 COA         0.3195
     31 O6A        -0.8065    7.6957    0.9792 O.3       1 COA         0.1618
     32 CBP        -1.0090    9.5771   -0.5793 C.3       1 COA         0.0000
     33 CCP        -1.4652    8.1470   -0.1994 C.3       1 COA         0.1504
     34 CDP         0.5182    9.5632   -0.8289 C.3       1 COA         0.1179
     35 CEP        -1.6888   10.0085   -1.8940 C.3       1 COA         0.1179
     36 CAP        -1.3149   10.5877    0.5658 C.3       1 COA         0.0611
     37 OAP        -0.8841   11.8921    0.1862 O.3       1 COA        -0.2728
     38 C9P        -2.7940   10.7032    0.9282 C.2       1 COA         0.3561
     39 O9P        -3.6891   10.4664    0.1190 O.2       1 COA        -0.2391
     40 N8P        -2.9952   11.0709    2.2489 N.am      1 COA        -0.1909
     41 C7P        -4.3082   11.2196    2.8331 C.3       1 COA         0.1160
     42 C6P        -4.4893   12.6459    3.3319 C.3       1 COA         0.0286
     43 C5P        -5.8530   12.8713    3.9597 C.2       1 COA         0.3561
     44 O5P        -6.7063   11.9925    4.0472 O.2       1 COA        -0.2391
     45 N4P        -5.9989   14.1759    4.4079 N.am      1 COA        -0.1909
     46 C3P        -7.2029   14.6585    5.0442 C.3       1 COA         0.1160
     47 C2P        -7.1818   14.4827    6.5538 C.3       1 COA         0.2607
     48 S1P        -5.8020   15.3752    7.3333 S.3       1 COA        -0.3539
     49 H2A         4.6492    4.1260    1.1552 H         1 COA        -0.1369
     50 H61A        8.7564    3.1335   -0.6708 H         1 COA         0.2048
     51 H62A        8.4991    1.6788   -1.5963 H         1 COA         0.2048
     52 H8A         4.7208   -1.1726   -2.4865 H         1 COA        -0.1292
     53 H1B         2.4085   -0.8200   -1.8256 H         1 COA        -0.0393
     54 H2B         2.3286    0.5212    0.9904 H         1 COA        -0.0393
     55 H3B        -0.0977    0.2245    0.9885 H         1 COA        -0.0393
     56 H4B        -0.2996    1.3083   -1.5416 H         1 COA        -0.0393
     57 H51A        1.5144    2.6204    0.5455 H         1 COA        -0.0393
     58 H52A       -0.2654    2.7227    0.5494 H         1 COA        -0.0393
     59 H121       -1.2324    7.4355   -0.9984 H         1 COA        -0.0393
     60 H122       -2.5440    8.1138   -0.0133 H         1 COA        -0.0393
     61 H131        0.8796   10.5616   -1.1013 H         1 COA        -0.0393
     62 H132        0.7886    8.8842   -1.6454 H         1 COA        -0.0393
     63 H133        1.0681    9.2399    0.0618 H         1 COA        -0.0393
     64 H141       -1.3855   11.0192   -2.1904 H         1 COA        -0.0393
     65 H142       -2.7797   10.0132   -1.7903 H         1 COA        -0.0393
     66 H143       -1.4280    9.3402   -2.7211 H         1 COA        -0.0393
     67 H10        -0.7524   10.3112    1.4665 H         1 COA        -0.0393
     68 HO1        -1.3767   12.1229   -0.6167 H         1 COA         0.2010
     69 HN8        -2.1931   11.2196    2.8537 H         1 COA         0.0865
     70 H71        -5.0659   10.9739    2.0822 H         1 COA        -0.0393
     71 H72        -4.4190   10.5057    3.6555 H         1 COA        -0.0393
     72 H61        -4.3702   13.3532    2.5017 H         1 COA        -0.0393
     73 H62        -3.7214   12.8840    4.0786 H         1 COA        -0.0393
     74 HN4        -5.2243   14.8211    4.2830 H         1 COA         0.0865
     75 H31        -7.2726   15.7213    4.7984 H         1 COA        -0.0393
     76 H32        -8.0502   14.1478    4.5796 H         1 COA        -0.0393
     77 H21        -8.1176   14.8309    7.0029 H         1 COA        -0.0393
     78 H22        -7.0660   13.4209    6.7924 H         1 COA        -0.0393
     79 HS1        -6.1692   16.5927    6.9125 H         1 COA         0.1718
@<TRIPOS>BOND
     1    1    2 ar
     2    1    6 ar
     3    2    3 ar
     4    2   49 1
     5    3    4 ar
     6    4    5 ar
     7    4   10 ar
     8    5    6 ar
     9    5    8 ar
    10    6    7 1
    11    7   50 1
    12    7   51 1
    13    8    9 ar
    14    9   10 ar
    15    9   52 1
    16   10   11 1
    17   11   12 1
    18   11   21 1
    19   11   53 1
    20   12   13 1
    21   12   14 1
    22   12   54 1
    23   14   15 1
    24   14   20 1
    25   14   55 1
    26   15   16 1
    27   16   17 2
    28   16   18 1
    29   16   19 1
    30   20   21 1
    31   20   22 1
    32   20   56 1
    33   22   23 1
    34   22   57 1
    35   22   58 1
    36   23   24 1
    37   24   25 2
    38   24   26 1
    39   24   27 1
    40   27   28 1
    41   28   29 2
    42   28   30 1
    43   28   31 1
    44   31   33 1
    45   32   33 1
    46   32   34 1
    47   32   35 1
    48   32   36 1
    49   33   59 1
    50   33   60 1
    51   34   61 1
    52   34   62 1
    53   34   63 1
    54   35   64 1
    55   35   65 1
    56   35   66 1
    57   36   37 1
    58   36   38 1
    59   36   67 1
    60   37   68 1
    61   38   39 2
    62   38   40 am
    63   40   41 1
    64   40   69 1
    65   41   42 1
    66   41   70 1
    67   41   71 1
    68   42   43 1
    69   42   72 1
    70   42   73 1
    71   43   44 2
    72   43   45 am
    73   45   46 1
    74   45   74 1
    75   46   47 1
    76   46   75 1
    77   46   76 1
    78   47   48 1
    79   47   77 1
    80   47   78 1
    81   48   79 1
@<TRIPOS>SUBSTRUCTURE
     1 COA         1 GROUP 0 A     ****
@<TRIPOS>MOLECULE
[5-(6-aminopurin-9-yl)-2-[[[[3-hydroxy-2,2-dimethyl-4-oxo-4-[[3-oxo-3-(2-sulfanylethylamino)propyl]amino]butoxy]-oxido-phosphoryl]oxy-oxido-phosphoryl]oxymethyl]-4-oxido-tetrahydrofuran-3-yl] phosphate
   79    81     1     0     0
SMALL
USER_CHARGES

@<TRIPOS>ATOM
      1 N1A         6.3197    3.3711    0.1967 N.ar      1 COA        -0.5260
      2 C2A         5.0033    3.3256    0.5141 C.ar      1 COA         0.6629
      3 N3A         4.0730    2.4196    0.1418 N.ar      1 COA        -0.5260
      4 C4A         4.6208    1.4811   -0.6447 C.ar      1 COA         0.5212
      5 C5A         5.9423    1.3962   -1.0530 C.ar      1 COA         0.0088
      6 C6A         6.8050    2.3902   -0.6021 C.ar      1 COA         0.5212
      7 N6A         8.1621    2.3826   -0.9671 N.pl3     1 COA        -0.6025
      8 N7A         6.1335    0.2987   -1.8543 N.2       1 COA        -0.4271
      9 C8A         4.9500   -0.2731   -1.9316 C.ar      1 COA         0.5691
     10 N9A         4.0006    0.4065   -1.2155 N.pl3     1 COA        -0.5033
     11 C1B         2.5376    0.0288   -1.0907 C.3       1 COA         0.2693
     12 C2B         1.9579   -0.2640    0.3131 C.3       1 COA         0.2008
     13 O2B         2.1299   -1.5323    0.6368 O.co2     1 COA        -0.1615
     14 C3B         0.4729    0.0487    0.0699 C.3       1 COA         0.1111
     15 O3B        -0.1943   -0.9780   -0.6709 O.3       1 COA         0.1618
     16 P3B        -1.8364   -1.0586   -0.5907 P.3       1 COA        -1.1921
     17 O7A        -2.1459   -1.2889    0.8856 O.co2     1 COA         0.3195
     18 O8A        -2.1706   -2.2476   -1.4866 O.co2     1 COA         0.3195
     19 O9A        -2.3217    0.2823   -1.1335 O.co2     1 COA         0.3195
     20 C4B         0.5412    1.2713   -0.8394 C.3       1 COA         0.1111
     21 O4B         1.7485    1.1278   -1.6124 O.3       1 COA        -0.1436
     22 C5B         0.6184    2.5901   -0.0816 C.3       1 COA         0.1504
     23 O5B         0.6777    3.6562   -1.0149 O.3       1 COA         0.1618
     24 P1A         0.7670    5.1936   -0.4641 P.3       1 COA        -1.1062
     25 O1A         0.8194    6.1476   -1.6376 O.co2     1 COA         0.3195
     26 O2A         1.8029    5.2507    0.6375 O.co2     1 COA         0.3195
     27 O3A        -0.6886    5.3125    0.2679 O.3       1 COA         0.4672
     28 P2A        -1.1429    6.2040    1.5594 P.3       1 COA        -1.1062
     29 O4A        -2.6377    6.0612    1.7476 O.co2     1 COA         0.3195
     30 O5A        -0.1888    5.9134    2.6974 O.co2     1 COA         0.3195
     31 O6A        -0.8065    7.6957    0.9792 O.3       1 COA         0.1618
     32 CBP        -1.0090    9.5771   -0.5793 C.3       1 COA         0.0000
     33 CCP        -1.4652    8.1470   -0.1994 C.3       1 COA         0.1504
     34 CDP         0.5182    9.5632   -0.8289 C.3       1 COA         0.1179
     35 CEP        -1.6888   10.0085   -1.8940 C.3       1 COA         0.1179
     36 CAP        -1.3149   10.5877    0.5658 C.3       1 COA         0.0611
     37 OAP        -2.7163   10.6149    0.8239 O.3       1 COA        -0.2728
     38 C9P        -0.6314   10.2649    1.8928 C.2       1 COA         0.3561
     39 O9P        -1.1331    9.5097    2.7236 O.2       1 COA        -0.2391
     40 N8P         0.5984   10.8887    2.0282 N.am      1 COA        -0.1909
     41 C7P         1.4450   10.7163    3.1861 C.3       1 COA         0.1160
     42 C6P         2.2684   11.9760    3.4117 C.3       1 COA         0.0286
     43 C5P         3.1834   11.8618    4.6178 C.2       1 COA         0.3561
     44 O5P         3.2414   10.8595    5.3249 O.2       1 COA        -0.2391
     45 N4P         3.9250   13.0187    4.8068 N.am      1 COA        -0.1909
     46 C3P         4.8731   13.1772    5.8854 C.3       1 COA         0.1160
     47 C2P         6.2743   12.7246    5.5086 C.3       1 COA         0.2607
     48 S1P         7.4567   12.9296    6.8752 S.3       1 COA        -0.3539
     49 H2A         4.6492    4.1260    1.1552 H         1 COA        -0.1369
     50 H61A        8.7564    3.1335   -0.6708 H         1 COA         0.2048
     51 H62A        8.4991    1.6788   -1.5963 H         1 COA         0.2048
     52 H8A         4.7208   -1.1726   -2.4865 H         1 COA        -0.1292
     53 H1B         2.4085   -0.8200   -1.8256 H         1 COA        -0.0393
     54 H2B         2.3286    0.5212    0.9904 H         1 COA        -0.0393
     55 H3B        -0.0977    0.2245    0.9885 H         1 COA        -0.0393
     56 H4B        -0.2996    1.3083   -1.5416 H         1 COA        -0.0393
     57 H51A        1.5144    2.6204    0.5455 H         1 COA        -0.0393
     58 H52A       -0.2654    2.7227    0.5494 H         1 COA        -0.0393
     59 H121       -1.2324    7.4355   -0.9984 H         1 COA        -0.0393
     60 H122       -2.5440    8.1138   -0.0133 H         1 COA        -0.0393
     61 H131        0.8796   10.5616   -1.1013 H         1 COA        -0.0393
     62 H132        0.7886    8.8842   -1.6454 H         1 COA        -0.0393
     63 H133        1.0681    9.2399    0.0618 H         1 COA        -0.0393
     64 H141       -1.3855   11.0192   -2.1904 H         1 COA        -0.0393
     65 H142       -2.7797   10.0132   -1.7903 H         1 COA        -0.0393
     66 H143       -1.4280    9.3402   -2.7211 H         1 COA        -0.0393
     67 H10        -1.0237   11.5996    0.2569 H         1 COA        -0.0393
     68 HO1        -2.9668    9.7148    1.0837 H         1 COA         0.2010
     69 HN8         0.9463   11.4752    1.2758 H         1 COA         0.0865
     70 H71         0.8208   10.5013    4.0593 H         1 COA        -0.0393
     71 H72         2.0973    9.8514    3.0292 H         1 COA        -0.0393
     72 H61         1.6056   12.8374    3.5615 H         1 COA        -0.0393
     73 H62         2.8850   12.1861    2.5288 H         1 COA        -0.0393
     74 HN4         3.7956   13.7893    4.1577 H         1 COA         0.0865
     75 H31         4.8835   14.2430    6.1280 H         1 COA        -0.0393
     76 H32         4.4823   12.6371    6.7515 H         1 COA        -0.0393
     77 H21         6.2783   11.6737    5.2015 H         1 COA        -0.0393
     78 H22         6.6338   13.3248    4.6670 H         1 COA        -0.0393
     79 HS1         6.8165   12.1256    7.7342 H         1 COA         0.1718
@<TRIPOS>BOND
     1    1    2 ar
     2    1    6 ar
     3    2    3 ar
     4    2   49 1
     5    3    4 ar
     6    4    5 ar
     7    4   10 ar
     8    5    6 ar
     9    5    8 ar
    10    6    7 1
    11    7   50 1
    12    7   51 1
    13    8    9 ar
    14    9   10 ar
    15    9   52 1
    16   10   11 1
    17   11   12 1
    18   11   21 1
    19   11   53 1
    20   12   13 1
    21   12   14 1
    22   12   54 1
    23   14   15 1
    24   14   20 1
    25   14   55 1
    26   15   16 1
    27   16   17 2
    28   16   18 1
    29   16   19 1
    30   20   21 1
    31   20   22 1
    32   20   56 1
    33   22   23 1
    34   22   57 1
    35   22   58 1
    36   23   24 1
    37   24   25 2
    38   24   26 1
    39   24   27 1
    40   27   28 1
    41   28   29 2
    42   28   30 1
    43   28   31 1
    44   31   33 1
    45   32   33 1
    46   32   34 1
    47   32   35 1
    48   32   36 1
    49   33   59 1
    50   33   60 1
    51   34   61 1
    52   34   62 1
    53   34   63 1
    54   35   64 1
    55   35   65 1
    56   35   66 1
    57   36   37 1
    58   36   38 1
    59   36   67 1
    60   37   68 1
    61   38   39 2
    62   38   40 am
    63   40   41 1
    64   40   69 1
    65   41   42 1
    66   41   70 1
    67   41   71 1
    68   42   43 1
    69   42   72 1
    70   42   73 1
    71   43   44 2
    72   43   45 am
    73   45   46 1
    74   45   74 1
    75   46   47 1
    76   46   75 1
    77   46   76 1
    78   47   48 1
    79   47   77 1
    80   47   78 1
    81   48   79 1
@<TRIPOS>SUBSTRUCTURE
     1 COA         1 GROUP 0 A     ****
@<TRIPOS>MOLECULE
[5-(6-aminopurin-9-yl)-2-[[[[3-hydroxy-2,2-dimethyl-4-oxo-4-[[3-oxo-3-(2-sulfanylethylamino)propyl]amino]butoxy]-oxido-phosphoryl]oxy-oxido-phosphoryl]oxymethyl]-4-oxido-tetrahydrofuran-3-yl] phosphate
   79    81     1     0     0
SMALL
USER_CHARGES

@<TRIPOS>ATOM
      1 N1A         4.6908    0.9263    0.5284 N.ar      1 COA        -0.5260
      2 C2A         3.4193    1.3931    0.4919 C.ar      1 COA         0.6629
      3 N3A         2.4653    1.1803   -0.4405 N.ar      1 COA        -0.5260
      4 C4A         2.9338    0.3916   -1.4192 C.ar      1 COA         0.5212
      5 C5A         4.2020   -0.1580   -1.5185 C.ar      1 COA         0.0088
      6 C6A         5.0963    0.1348   -0.4937 C.ar      1 COA         0.5212
      7 N6A         6.4038   -0.3801   -0.5131 N.pl3     1 COA        -0.6025
      8 N7A         4.3170   -0.9111   -2.6598 N.2       1 COA        -0.4271
      9 C8A         3.1403   -0.8212   -3.2436 C.ar      1 COA         0.5691
     10 N9A         2.2683   -0.0422   -2.5302 N.pl3     1 COA        -0.5033
     11 C1B         0.8363    0.2748   -2.9142 C.3       1 COA         0.2693
     12 C2B        -0.3043   -0.1391   -1.9549 C.3       1 COA         0.2008
     13 O2B        -0.6991   -1.3747   -2.2004 O.co2     1 COA        -0.1615
     14 C3B        -1.3853    0.8773   -2.3558 C.3       1 COA         0.1111
     15 O3B        -2.0094    0.5576   -3.6033 O.3       1 COA         0.1618
     16 P3B        -3.4806    1.2180   -3.9334 P.3       1 COA        -1.1921
     17 O7A        -4.3962    0.7100   -2.8235 O.co2     1 COA         0.3195
     18 O8A        -3.8112    0.6588   -5.3140 O.co2     1 COA         0.3195
     19 O9A        -3.2466    2.7257   -3.9151 O.co2     1 COA         0.3195
     20 C4B        -0.5713    2.1464   -2.5855 C.3       1 COA         0.1111
     21 O4B         0.7211    1.7136   -3.0526 O.3       1 COA        -0.1436
     22 C5B        -0.3655    2.9745   -1.3239 C.3       1 COA         0.1504
     23 O5B         0.3986    4.1249   -1.6460 O.3       1 COA         0.1618
     24 P1A         0.7670    5.1936   -0.4641 P.3       1 COA        -1.1062
     25 O1A         1.1289    6.5260   -1.0837 O.co2     1 COA         0.3195
     26 O2A         1.6876    4.5161    0.5275 O.co2     1 COA         0.3195
     27 O3A        -0.6886    5.3125    0.2679 O.3       1 COA         0.4672
     28 P2A        -1.1429    6.2040    1.5594 P.3       1 COA        -1.1062
     29 O4A        -2.6377    6.0612    1.7476 O.co2     1 COA         0.3195
     30 O5A        -0.1888    5.9134    2.6974 O.co2     1 COA         0.3195
     31 O6A        -0.8065    7.6957    0.9792 O.3       1 COA         0.1618
     32 CBP        -1.0090    9.5771   -0.5793 C.3       1 COA         0.0000
     33 CCP        -1.4652    8.1470   -0.1994 C.3       1 COA         0.1504
     34 CDP         0.5182    9.5632   -0.8289 C.3       1 COA         0.1179
     35 CEP        -1.6888   10.0085   -1.8940 C.3       1 COA         0.1179
     36 CAP        -1.3149   10.5877    0.5658 C.3       1 COA         0.0611
     37 OAP        -0.8841   11.8921    0.1862 O.3       1 COA        -0.2728
     38 C9P        -2.7940   10.7032    0.9282 C.2       1 COA         0.3561
     39 O9P        -3.6570   10.0067    0.3969 O.2       1 COA        -0.2391
     40 N8P        -3.0315   11.6427    1.9186 N.am      1 COA        -0.1909
     41 C7P        -4.3486   11.9130    2.4473 C.3       1 COA         0.1160
     42 C6P        -5.0118   13.0149    1.6339 C.3       1 COA         0.0286
     43 C5P        -6.4041   13.3494    2.1383 C.2       1 COA         0.3561
     44 O5P        -6.9257   12.7846    3.0959 O.2       1 COA        -0.2391
     45 N4P        -6.9917   14.3550    1.3849 N.am      1 COA        -0.1909
     46 C3P        -8.3180   14.8631    1.6502 C.3       1 COA         0.1160
     47 C2P        -8.3169   16.0327    2.6209 C.3       1 COA         0.2607
     48 S1P        -7.3469   17.4415    2.0029 S.3       1 COA        -0.3539
     49 H2A         3.1287    2.0232    1.3259 H         1 COA        -0.1369
     50 H61A        7.0472   -0.1189    0.2098 H         1 COA         0.2048
     51 H62A        6.7069   -0.9256   -1.2976 H         1 COA         0.2048
     52 H8A         2.8628   -1.2932   -4.1762 H         1 COA        -0.1292
     53 H1B         0.7316   -0.1451   -3.9582 H         1 COA        -0.0393
     54 H2B         0.0098    0.1350   -0.9357 H         1 COA        -0.0393
     55 H3B        -2.1756    1.0002   -1.6070 H         1 COA        -0.0393
     56 H4B        -1.0101    2.7804   -3.3646 H         1 COA        -0.0393
     57 H51A        0.1721    2.3946   -0.5677 H         1 COA        -0.0393
     58 H52A       -1.3279    3.2941   -0.9132 H         1 COA        -0.0393
     59 H121       -1.2324    7.4355   -0.9984 H         1 COA        -0.0393
     60 H122       -2.5440    8.1138   -0.0133 H         1 COA        -0.0393
     61 H131        0.8796   10.5616   -1.1013 H         1 COA        -0.0393
     62 H132        0.7886    8.8842   -1.6454 H         1 COA        -0.0393
     63 H133        1.0681    9.2399    0.0618 H         1 COA        -0.0393
     64 H141       -1.3855   11.0192   -2.1904 H         1 COA        -0.0393
     65 H142       -2.7797   10.0132   -1.7903 H         1 COA        -0.0393
     66 H143       -1.4280    9.3402   -2.7211 H         1 COA        -0.0393
     67 H10        -0.7524   10.3112    1.4665 H         1 COA        -0.0393
     68 HO1        -1.3767   12.1229   -0.6167 H         1 COA         0.2010
     69 HN8        -2.2509   12.1532    2.3202 H         1 COA         0.0865
     70 H71        -4.9450   10.9957    2.4135 H         1 COA        -0.0393
     71 H72        -4.2610   12.2077    3.4979 H         1 COA        -0.0393
     72 H61        -5.0890   12.7122    0.5822 H         1 COA        -0.0393
     73 H62        -4.4031   13.9272    1.6689 H         1 COA        -0.0393
     74 HN4        -6.4659   14.7521    0.6118 H         1 COA         0.0865
     75 H31        -8.7193   15.1855    0.6859 H         1 COA        -0.0393
     76 H32        -8.9265   14.0286    2.0078 H         1 COA        -0.0393
     77 H21        -9.3366   16.3761    2.8233 H         1 COA        -0.0393
     78 H22        -7.8720   15.7149    3.5690 H         1 COA        -0.0393
     79 HS1        -8.0708   17.6316    0.8920 H         1 COA         0.1718
@<TRIPOS>BOND
     1    1    2 ar
     2    1    6 ar
     3    2    3 ar
     4    2   49 1
     5    3    4 ar
     6    4    5 ar
     7    4   10 ar
     8    5    6 ar
     9    5    8 ar
    10    6    7 1
    11    7   50 1
    12    7   51 1
    13    8    9 ar
    14    9   10 ar
    15    9   52 1
    16   10   11 1
    17   11   12 1
    18   11   21 1
    19   11   53 1
    20   12   13 1
    21   12   14 1
    22   12   54 1
    23   14   15 1
    24   14   20 1
    25   14   55 1
    26   15   16 1
    27   16   17 2
    28   16   18 1
    29   16   19 1
    30   20   21 1
    31   20   22 1
    32   20   56 1
    33   22   23 1
    34   22   57 1
    35   22   58 1
    36   23   24 1
    37   24   25 2
    38   24   26 1
    39   24   27 1
    40   27   28 1
    41   28   29 2
    42   28   30 1
    43   28   31 1
    44   31   33 1
    45   32   33 1
    46   32   34 1
    47   32   35 1
    48   32   36 1
    49   33   59 1
    50   33   60 1
    51   34   61 1
    52   34   62 1
    53   34   63 1
    54   35   64 1
    55   35   65 1
    56   35   66 1
    57   36   37 1
    58   36   38 1
    59   36   67 1
    60   37   68 1
    61   38   39 2
    62   38   40 am
    63   40   41 1
    64   40   69 1
    65   41   42 1
    66   41   70 1
    67   41   71 1
    68   42   43 1
    69   42   72 1
    70   42   73 1
    71   43   44 2
    72   43   45 am
    73   45   46 1
    74   45   74 1
    75   46   47 1
    76   46   75 1
    77   46   76 1
    78   47   48 1
    79   47   77 1
    80   47   78 1
    81   48   79 1
@<TRIPOS>SUBSTRUCTURE
     1 COA         1 GROUP 0 A     ****
@<TRIPOS>MOLECULE
[5-(6-aminopurin-9-yl)-2-[[[[3-hydroxy-2,2-dimethyl-4-oxo-4-[[3-oxo-3-(2-sulfanylethylamino)propyl]amino]butoxy]-oxido-phosphoryl]oxy-oxido-phosphoryl]oxymethyl]-4-oxido-tetrahydrofuran-3-yl] phosphate
   79    81     1     0     0
SMALL
USER_CHARGES

@<TRIPOS>ATOM
      1 N1A         6.3197    3.3711    0.1967 N.ar      1 COA        -0.5260
      2 C2A         5.0033    3.3256    0.5141 C.ar      1 COA         0.6629
      3 N3A         4.0730    2.4196    0.1418 N.ar      1 COA        -0.5260
      4 C4A         4.6208    1.4811   -0.6447 C.ar      1 COA         0.5212
      5 C5A         5.9423    1.3962   -1.0530 C.ar      1 COA         0.0088
      6 C6A         6.8050    2.3902   -0.6021 C.ar      1 COA         0.5212
      7 N6A         8.1621    2.3826   -0.9671 N.pl3     1 COA        -0.6025
      8 N7A         6.1335    0.2987   -1.8543 N.2       1 COA        -0.4271
      9 C8A         4.9500   -0.2731   -1.9316 C.ar      1 COA         0.5691
     10 N9A         4.0006    0.4065   -1.2155 N.pl3     1 COA        -0.5033
     11 C1B         2.5376    0.0288   -1.0907 C.3       1 COA         0.2693
     12 C2B         1.9579   -0.2640    0.3131 C.3       1 COA         0.2008
     13 O2B         2.1299   -1.5323    0.6368 O.co2     1 COA        -0.1615
     14 C3B         0.4729    0.0487    0.0699 C.3       1 COA         0.1111
     15 O3B        -0.1943   -0.9780   -0.6709 O.3       1 COA         0.1618
     16 P3B        -1.8364   -1.0586   -0.5907 P.3       1 COA        -1.1921
     17 O7A        -2.1459   -1.2889    0.8856 O.co2     1 COA         0.3195
     18 O8A        -2.1706   -2.2476   -1.4866 O.co2     1 COA         0.3195
     19 O9A        -2.3217    0.2823   -1.1335 O.co2     1 COA         0.3195
     20 C4B         0.5412    1.2713   -0.8394 C.3       1 COA         0.1111
     21 O4B         1.7485    1.1278   -1.6124 O.3       1 COA        -0.1436
     22 C5B         0.6184    2.5901   -0.0816 C.3       1 COA         0.1504
     23 O5B         0.6777    3.6562   -1.0149 O.3       1 COA         0.1618
     24 P1A         0.7670    5.1936   -0.4641 P.3       1 COA        -1.1062
     25 O1A         0.8194    6.1476   -1.6376 O.co2     1 COA         0.3195
     26 O2A         1.8029    5.2507    0.6375 O.co2     1 COA         0.3195
     27 O3A        -0.6886    5.3125    0.2679 O.3       1 COA         0.4672
     28 P2A        -1.1429    6.2040    1.5594 P.3       1 COA        -1.1062
     29 O4A        -2.6377    6.0612    1.7476 O.co2     1 COA         0.3195
     30 O5A        -0.1888    5.9134    2.6974 O.co2     1 COA         0.3195
     31 O6A        -0.8065    7.6957    0.9792 O.3       1 COA         0.1618
     32 CBP        -1.0463    9.4480   -0.7182 C.3       1 COA         0.0000
     33 CCP        -1.7297    8.3208    0.0940 C.3       1 COA         0.1504
     34 CDP         0.1097    8.8359   -1.5452 C.3       1 COA         0.1179
     35 CEP        -2.0542   10.0578   -1.7127 C.3       1 COA         0.1179
     36 CAP        -0.4581   10.5415    0.2222 C.3       1 COA         0.0611
     37 OAP        -1.5012   11.1177    1.0041 O.3       1 COA        -0.2728
     38 C9P         0.5942   10.0309    1.2042 C.2       1 COA         0.3561
     39 O9P         0.2963    9.5605    2.3006 O.2       1 COA        -0.2391
     40 N8P         1.8845   10.1361    0.7101 N.am      1 COA        -0.1909
     41 C7P         3.0471    9.6947    1.4453 C.3       1 COA         0.1160
     42 C6P         3.3398    8.2380    1.1161 C.3       1 COA         0.0286
     43 C5P         3.6140    8.0219   -0.3614 C.2       1 COA         0.3561
     44 O5P         3.5964    8.9297   -1.1882 O.2       1 COA        -0.2391
     45 N4P         3.8783    6.6893   -0.6416 N.am      1 COA        -0.1909
     46 C3P         4.1701    6.2087   -1.9725 C.3       1 COA         0.1160
     47 C2P         5.6549    6.2381   -2.2965 C.3       1 COA         0.2607
     48 S1P         6.0073    5.6307   -3.9741 S.3       1 COA        -0.3539
     49 H2A         4.6492    4.1260    1.1552 H         1 COA        -0.1369
     50 H61A        8.7564    3.1335   -0.6708 H         1 COA         0.2048
     51 H62A        8.4991    1.6788   -1.5963 H         1 COA         0.2048
     52 H8A         4.7208   -1.1726   -2.4865 H         1 COA        -0.1292
     53 H1B         2.4085   -0.8200   -1.8256 H         1 COA        -0.0393
     54 H2B         2.3286    0.5212    0.9904 H         1 COA        -0.0393
     55 H3B        -0.0977    0.2245    0.9885 H         1 COA        -0.0393
     56 H4B        -0.2996    1.3083   -1.5416 H         1 COA        -0.0393
     57 H51A        1.5144    2.6204    0.5455 H         1 COA        -0.0393
     58 H52A       -0.2654    2.7227    0.5494 H         1 COA        -0.0393
     59 H121       -2.1262    7.5446   -0.5686 H         1 COA        -0.0393
     60 H122       -2.5562    8.7139    0.6956 H         1 COA        -0.0393
     61 H131        0.6194    9.6060   -2.1356 H         1 COA        -0.0393
     62 H132       -0.2524    8.0744   -2.2449 H         1 COA        -0.0393
     63 H133        0.8566    8.3597   -0.9005 H         1 COA        -0.0393
     64 H141       -1.5995   10.8607   -2.3043 H         1 COA        -0.0393
     65 H142       -2.9149   10.4873   -1.1878 H         1 COA        -0.0393
     66 H143       -2.4255    9.3094   -2.4205 H         1 COA        -0.0393
     67 H10        -0.0186   11.3498   -0.3758 H         1 COA        -0.0393
     68 HO1        -1.8916   10.3949    1.5193 H         1 COA         0.2010
     69 HN8         2.0335   10.5134   -0.2208 H         1 COA         0.0865
     70 H71         3.9002   10.3287    1.1838 H         1 COA        -0.0393
     71 H72         2.8635    9.8190    2.5172 H         1 COA        -0.0393
     72 H61         2.4892    7.6083    1.4052 H         1 COA        -0.0393
     73 H62         4.2125    7.8916    1.6838 H         1 COA        -0.0393
     74 HN4         3.8662    6.0212    0.1235 H         1 COA         0.0865
     75 H31         3.8052    5.1790   -2.0116 H         1 COA        -0.0393
     76 H32         3.5810    6.8031   -2.6754 H         1 COA        -0.0393
     77 H21         6.0573    7.2520   -2.2032 H         1 COA        -0.0393
     78 H22         6.1911    5.5946   -1.5921 H         1 COA        -0.0393
     79 HS1         5.4947    4.4070   -3.7890 H         1 COA         0.1718
@<TRIPOS>BOND
     1    1    2 ar
     2    1    6 ar
     3    2    3 ar
     4    2   49 1
     5    3    4 ar
     6    4    5 ar
     7    4   10 ar
     8    5    6 ar
     9    5    8 ar
    10    6    7 1
    11    7   50 1
    12    7   51 1
    13    8    9 ar
    14    9   10 ar
    15    9   52 1
    16   10   11 1
    17   11   12 1
    18   11   21 1
    19   11   53 1
    20   12   13 1
    21   12   14 1
    22   12   54 1
    23   14   15 1
    24   14   20 1
    25   14   55 1
    26   15   16 1
    27   16   17 2
    28   16   18 1
    29   16   19 1
    30   20   21 1
    31   20   22 1
    32   20   56 1
    33   22   23 1
    34   22   57 1
    35   22   58 1
    36   23   24 1
    37   24   25 2
    38   24   26 1
    39   24   27 1
    40   27   28 1
    41   28   29 2
    42   28   30 1
    43   28   31 1
    44   31   33 1
    45   32   33 1
    46   32   34 1
    47   32   35 1
    48   32   36 1
    49   33   59 1
    50   33   60 1
    51   34   61 1
    52   34   62 1
    53   34   63 1
    54   35   64 1
    55   35   65 1
    56   35   66 1
    57   36   37 1
    58   36   38 1
    59   36   67 1
    60   37   68 1
    61   38   39 2
    62   38   40 am
    63   40   41 1
    64   40   69 1
    65   41   42 1
    66   41   70 1
    67   41   71 1
    68   42   43 1
    69   42   72 1
    70   42   73 1
    71   43   44 2
    72   43   45 am
    73   45   46 1
    74   45   74 1
    75   46   47 1
    76   46   75 1
    77   46   76 1
    78   47   48 1
    79   47   77 1
    80   47   78 1
    81   48   79 1
@<TRIPOS>SUBSTRUCTURE
     1 COA         1 GROUP 0 A     ****
@<TRIPOS>MOLECULE
[5-(6-aminopurin-9-yl)-2-[[[[3-hydroxy-2,2-dimethyl-4-oxo-4-[[3-oxo-3-(2-sulfanylethylamino)propyl]amino]butoxy]-oxido-phosphoryl]oxy-oxido-phosphoryl]oxymethyl]-4-oxido-tetrahydrofuran-3-yl] phosphate
   79    81     1     0     0
SMALL
USER_CHARGES

@<TRIPOS>ATOM
      1 N1A         4.6908    0.9263    0.5284 N.ar      1 COA        -0.5260
      2 C2A         3.4193    1.3931    0.4919 C.ar      1 COA         0.6629
      3 N3A         2.4653    1.1803   -0.4405 N.ar      1 COA        -0.5260
      4 C4A         2.9338    0.3916   -1.4192 C.ar      1 COA         0.5212
      5 C5A         4.2020   -0.1580   -1.5185 C.ar      1 COA         0.0088
      6 C6A         5.0963    0.1348   -0.4937 C.ar      1 COA         0.5212
      7 N6A         6.4038   -0.3801   -0.5131 N.pl3     1 COA        -0.6025
      8 N7A         4.3170   -0.9111   -2.6598 N.2       1 COA        -0.4271
      9 C8A         3.1403   -0.8212   -3.2436 C.ar      1 COA         0.5691
     10 N9A         2.2683   -0.0422   -2.5302 N.pl3     1 COA        -0.5033
     11 C1B         0.8363    0.2748   -2.9142 C.3       1 COA         0.2693
     12 C2B        -0.3043   -0.1391   -1.9549 C.3       1 COA         0.2008
     13 O2B        -0.6991   -1.3747   -2.2004 O.co2     1 COA        -0.1615
     14 C3B        -1.3853    0.8773   -2.3558 C.3       1 COA         0.1111
     15 O3B        -2.0094    0.5576   -3.6033 O.3       1 COA         0.1618
     16 P3B        -3.4806    1.2180   -3.9334 P.3       1 COA        -1.1921
     17 O7A        -4.3962    0.7100   -2.8235 O.co2     1 COA         0.3195
     18 O8A        -3.8112    0.6588   -5.3140 O.co2     1 COA         0.3195
     19 O9A        -3.2466    2.7257   -3.9151 O.co2     1 COA         0.3195
     20 C4B        -0.5713    2.1464   -2.5855 C.3       1 COA         0.1111
     21 O4B         0.7211    1.7136   -3.0526 O.3       1 COA        -0.1436
     22 C5B        -0.3655    2.9745   -1.3239 C.3       1 COA         0.1504
     23 O5B         0.3986    4.1249   -1.6460 O.3       1 COA         0.1618
     24 P1A         0.7670    5.1936   -0.4641 P.3       1 COA        -1.1062
     25 O1A         1.1289    6.5260   -1.0837 O.co2     1 COA         0.3195
     26 O2A         1.6876    4.5161    0.5275 O.co2     1 COA         0.3195
     27 O3A        -0.6886    5.3125    0.2679 O.3       1 COA         0.4672
     28 P2A        -1.1429    6.2040    1.5594 P.3       1 COA        -1.1062
     29 O4A        -2.6377    6.0612    1.7476 O.co2     1 COA         0.3195
     30 O5A        -0.1888    5.9134    2.6974 O.co2     1 COA         0.3195
     31 O6A        -0.8065    7.6957    0.9792 O.3       1 COA         0.1618
     32 CBP        -1.0090    9.5771   -0.5793 C.3       1 COA         0.0000
     33 CCP        -1.4652    8.1470   -0.1994 C.3       1 COA         0.1504
     34 CDP         0.5182    9.5632   -0.8289 C.3       1 COA         0.1179
     35 CEP        -1.6888   10.0085   -1.8940 C.3       1 COA         0.1179
     36 CAP        -1.3149   10.5877    0.5658 C.3       1 COA         0.0611
     37 OAP        -0.8841   11.8921    0.1862 O.3       1 COA        -0.2728
     38 C9P        -2.7940   10.7032    0.9282 C.2       1 COA         0.3561
     39 O9P        -3.6570   10.0067    0.3969 O.2       1 COA        -0.2391
     40 N8P        -3.0315   11.6427    1.9186 N.am      1 COA        -0.1909
     41 C7P        -4.3486   11.9130    2.4473 C.3       1 COA         0.1160
     42 C6P        -4.6208   11.0029    3.6363 C.3       1 COA         0.0286
     43 C5P        -3.6187   11.2018    4.7593 C.2       1 COA         0.3561
     44 O5P        -3.0619   12.2735    4.9814 O.2       1 COA        -0.2391
     45 N4P        -3.4225   10.0333    5.4807 N.am      1 COA        -0.1909
     46 C3P        -2.5172    9.9452    6.6032 C.3       1 COA         0.1160
     47 C2P        -1.0811   10.2726    6.2282 C.3       1 COA         0.2607
     48 S1P        -0.4262    9.1485    4.9573 S.3       1 COA        -0.3539
     49 H2A         3.1287    2.0232    1.3259 H         1 COA        -0.1369
     50 H61A        7.0472   -0.1189    0.2098 H         1 COA         0.2048
     51 H62A        6.7069   -0.9256   -1.2976 H         1 COA         0.2048
     52 H8A         2.8628   -1.2932   -4.1762 H         1 COA        -0.1292
     53 H1B         0.7316   -0.1451   -3.9582 H         1 COA        -0.0393
     54 H2B         0.0098    0.1350   -0.9357 H         1 COA        -0.0393
     55 H3B        -2.1756    1.0002   -1.6070 H         1 COA        -0.0393
     56 H4B        -1.0101    2.7804   -3.3646 H         1 COA        -0.0393
     57 H51A        0.1721    2.3946   -0.5677 H         1 COA        -0.0393
     58 H52A       -1.3279    3.2941   -0.9132 H         1 COA        -0.0393
     59 H121       -1.2324    7.4355   -0.9984 H         1 COA        -0.0393
     60 H122       -2.5440    8.1138   -0.0133 H         1 COA        -0.0393
     61 H131        0.8796   10.5616   -1.1013 H         1 COA        -0.0393
     62 H132        0.7886    8.8842   -1.6454 H         1 COA        -0.0393
     63 H133        1.0681    9.2399    0.0618 H         1 COA        -0.0393
     64 H141       -1.3855   11.0192   -2.1904 H         1 COA        -0.0393
     65 H142       -2.7797   10.0132   -1.7903 H         1 COA        -0.0393
     66 H143       -1.4280    9.3402   -2.7211 H         1 COA        -0.0393
     67 H10        -0.7524   10.3112    1.4665 H         1 COA        -0.0393
     68 HO1        -1.3767   12.1229   -0.6167 H         1 COA         0.2010
     69 HN8        -2.2509   12.1532    2.3202 H         1 COA         0.0865
     70 H71        -4.4081   12.9648    2.7445 H         1 COA        -0.0393
     71 H72        -5.0921   11.7528    1.6601 H         1 COA        -0.0393
     72 H61        -4.5839    9.9523    3.3226 H         1 COA        -0.0393
     73 H62        -5.6263   11.1919    4.0328 H         1 COA        -0.0393
     74 HN4        -3.9386    9.2022    5.2074 H         1 COA         0.0865
     75 H31        -2.8777   10.6649    7.3428 H         1 COA        -0.0393
     76 H32        -2.6158    8.9438    7.0300 H         1 COA        -0.0393
     77 H21        -0.9959   11.2999    5.8595 H         1 COA        -0.0393
     78 H22        -0.4456   10.1768    7.1141 H         1 COA        -0.0393
     79 HS1        -1.3361    9.4514    4.0222 H         1 COA         0.1718
@<TRIPOS>BOND
     1    1    2 ar
     2    1    6 ar
     3    2    3 ar
     4    2   49 1
     5    3    4 ar
     6    4    5 ar
     7    4   10 ar
     8    5    6 ar
     9    5    8 ar
    10    6    7 1
    11    7   50 1
    12    7   51 1
    13    8    9 ar
    14    9   10 ar
    15    9   52 1
    16   10   11 1
    17   11   12 1
    18   11   21 1
    19   11   53 1
    20   12   13 1
    21   12   14 1
    22   12   54 1
    23   14   15 1
    24   14   20 1
    25   14   55 1
    26   15   16 1
    27   16   17 2
    28   16   18 1
    29   16   19 1
    30   20   21 1
    31   20   22 1
    32   20   56 1
    33   22   23 1
    34   22   57 1
    35   22   58 1
    36   23   24 1
    37   24   25 2
    38   24   26 1
    39   24   27 1
    40   27   28 1
    41   28   29 2
    42   28   30 1
    43   28   31 1
    44   31   33 1
    45   32   33 1
    46   32   34 1
    47   32   35 1
    48   32   36 1
    49   33   59 1
    50   33   60 1
    51   34   61 1
    52   34   62 1
    53   34   63 1
    54   35   64 1
    55   35   65 1
    56   35   66 1
    57   36   37 1
    58   36   38 1
    59   36   67 1
    60   37   68 1
    61   38   39 2
    62   38   40 am
    63   40   41 1
    64   40   69 1
    65   41   42 1
    66   41   70 1
    67   41   71 1
    68   42   43 1
    69   42   72 1
    70   42   73 1
    71   43   44 2
    72   43   45 am
    73   45   46 1
    74   45   74 1
    75   46   47 1
    76   46   75 1
    77   46   76 1
    78   47   48 1
    79   47   77 1
    80   47   78 1
    81   48   79 1
@<TRIPOS>SUBSTRUCTURE
     1 COA         1 GROUP 0 A     ****
@<TRIPOS>MOLECULE
[5-(6-aminopurin-9-yl)-2-[[[[3-hydroxy-2,2-dimethyl-4-oxo-4-[[3-oxo-3-(2-sulfanylethylamino)propyl]amino]butoxy]-oxido-phosphoryl]oxy-oxido-phosphoryl]oxymethyl]-4-oxido-tetrahydrofuran-3-yl] phosphate
   79    81     1     0     0
SMALL
USER_CHARGES

@<TRIPOS>ATOM
      1 N1A         4.6908    0.9263    0.5284 N.ar      1 COA        -0.5260
      2 C2A         3.4193    1.3931    0.4919 C.ar      1 COA         0.6629
      3 N3A         2.4653    1.1803   -0.4405 N.ar      1 COA        -0.5260
      4 C4A         2.9338    0.3916   -1.4192 C.ar      1 COA         0.5212
      5 C5A         4.2020   -0.1580   -1.5185 C.ar      1 COA         0.0088
      6 C6A         5.0963    0.1348   -0.4937 C.ar      1 COA         0.5212
      7 N6A         6.4038   -0.3801   -0.5131 N.pl3     1 COA        -0.6025
      8 N7A         4.3170   -0.9111   -2.6598 N.2       1 COA        -0.4271
      9 C8A         3.1403   -0.8212   -3.2436 C.ar      1 COA         0.5691
     10 N9A         2.2683   -0.0422   -2.5302 N.pl3     1 COA        -0.5033
     11 C1B         0.8363    0.2748   -2.9142 C.3       1 COA         0.2693
     12 C2B        -0.3043   -0.1391   -1.9549 C.3       1 COA         0.2008
     13 O2B        -0.6991   -1.3747   -2.2004 O.co2     1 COA        -0.1615
     14 C3B        -1.3853    0.8773   -2.3558 C.3       1 COA         0.1111
     15 O3B        -2.0094    0.5576   -3.6033 O.3       1 COA         0.1618
     16 P3B        -3.4806    1.2180   -3.9334 P.3       1 COA        -1.1921
     17 O7A        -4.3962    0.7100   -2.8235 O.co2     1 COA         0.3195
     18 O8A        -3.8112    0.6588   -5.3140 O.co2     1 COA         0.3195
     19 O9A        -3.2466    2.7257   -3.9151 O.co2     1 COA         0.3195
     20 C4B        -0.5713    2.1464   -2.5855 C.3       1 COA         0.1111
     21 O4B         0.7211    1.7136   -3.0526 O.3       1 COA        -0.1436
     22 C5B        -0.3655    2.9745   -1.3239 C.3       1 COA         0.1504
     23 O5B         0.3986    4.1249   -1.6460 O.3       1 COA         0.1618
     24 P1A         0.7670    5.1936   -0.4641 P.3       1 COA        -1.1062
     25 O1A         1.1289    6.5260   -1.0837 O.co2     1 COA         0.3195
     26 O2A         1.6876    4.5161    0.5275 O.co2     1 COA         0.3195
     27 O3A        -0.6886    5.3125    0.2679 O.3       1 COA         0.4672
     28 P2A        -1.1429    6.2040    1.5594 P.3       1 COA        -1.1062
     29 O4A        -2.6377    6.0612    1.7476 O.co2     1 COA         0.3195
     30 O5A        -0.1888    5.9134    2.6974 O.co2     1 COA         0.3195
     31 O6A        -0.8065    7.6957    0.9792 O.3       1 COA         0.1618
     32 CBP        -1.0090    9.5771   -0.5793 C.3       1 COA         0.0000
     33 CCP        -1.4652    8.1470   -0.1994 C.3       1 COA         0.1504
     34 CDP         0.5182    9.5632   -0.8289 C.3       1 COA         0.1179
     35 CEP        -1.6888   10.0085   -1.8940 C.3       1 COA         0.1179
     36 CAP        -1.3149   10.5877    0.5658 C.3       1 COA         0.0611
     37 OAP        -0.6287   10.1955    1.7518 O.3       1 COA        -0.2728
     38 C9P        -0.8916   12.0249    0.2699 C.2       1 COA         0.3561
     39 O9P         0.2422   12.4378    0.5067 O.2       1 COA        -0.2391
     40 N8P        -1.9050   12.7747   -0.3052 N.am      1 COA        -0.1909
     41 C7P        -1.7368   14.1547   -0.6986 C.3       1 COA         0.1160
     42 C6P        -1.9874   14.2964   -2.1929 C.3       1 COA         0.0286
     43 C5P        -1.8264   15.7273   -2.6741 C.2       1 COA         0.3561
     44 O5P        -1.5288   16.6573   -1.9296 O.2       1 COA        -0.2391
     45 N4P        -2.0586   15.8361   -4.0373 N.am      1 COA        -0.1909
     46 C3P        -1.9737   17.0891   -4.7516 C.3       1 COA         0.1160
     47 C2P        -0.5804   17.3650   -5.2927 C.3       1 COA         0.2607
     48 S1P        -0.4884   18.9448   -6.1890 S.3       1 COA        -0.3539
     49 H2A         3.1287    2.0232    1.3259 H         1 COA        -0.1369
     50 H61A        7.0472   -0.1189    0.2098 H         1 COA         0.2048
     51 H62A        6.7069   -0.9256   -1.2976 H         1 COA         0.2048
     52 H8A         2.8628   -1.2932   -4.1762 H         1 COA        -0.1292
     53 H1B         0.7316   -0.1451   -3.9582 H         1 COA        -0.0393
     54 H2B         0.0098    0.1350   -0.9357 H         1 COA        -0.0393
     55 H3B        -2.1756    1.0002   -1.6070 H         1 COA        -0.0393
     56 H4B        -1.0101    2.7804   -3.3646 H         1 COA        -0.0393
     57 H51A        0.1721    2.3946   -0.5677 H         1 COA        -0.0393
     58 H52A       -1.3279    3.2941   -0.9132 H         1 COA        -0.0393
     59 H121       -1.2324    7.4355   -0.9984 H         1 COA        -0.0393
     60 H122       -2.5440    8.1138   -0.0133 H         1 COA        -0.0393
     61 H131        0.8796   10.5616   -1.1013 H         1 COA        -0.0393
     62 H132        0.7886    8.8842   -1.6454 H         1 COA        -0.0393
     63 H133        1.0681    9.2399    0.0618 H         1 COA        -0.0393
     64 H141       -1.3855   11.0192   -2.1904 H         1 COA        -0.0393
     65 H142       -2.7797   10.0132   -1.7903 H         1 COA        -0.0393
     66 H143       -1.4280    9.3402   -2.7211 H         1 COA        -0.0393
     67 H10        -2.3880   10.5770    0.7950 H         1 COA        -0.0393
     68 HO1         0.3169   10.1957    1.5366 H         1 COA         0.2010
     69 HN8        -2.8042   12.3405   -0.4899 H         1 COA         0.0865
     70 H71        -2.4332   14.7785   -0.1293 H         1 COA        -0.0393
     71 H72        -0.7231   14.4802   -0.4443 H         1 COA        -0.0393
     72 H61        -3.0031   13.9619   -2.4378 H         1 COA        -0.0393
     73 H62        -1.2890   13.6626   -2.7536 H         1 COA        -0.0393
     74 HN4        -2.2991   14.9970   -4.5569 H         1 COA         0.0865
     75 H31        -2.6826   17.0161   -5.5805 H         1 COA        -0.0393
     76 H32        -2.3204   17.8776   -4.0788 H         1 COA        -0.0393
     77 H21         0.1585   17.3812   -4.4850 H         1 COA        -0.0393
     78 H22        -0.3006   16.5709   -5.9920 H         1 COA        -0.0393
     79 HS1        -0.8535   19.7128   -5.1540 H         1 COA         0.1718
@<TRIPOS>BOND
     1    1    2 ar
     2    1    6 ar
     3    2    3 ar
     4    2   49 1
     5    3    4 ar
     6    4    5 ar
     7    4   10 ar
     8    5    6 ar
     9    5    8 ar
    10    6    7 1
    11    7   50 1
    12    7   51 1
    13    8    9 ar
    14    9   10 ar
    15    9   52 1
    16   10   11 1
    17   11   12 1
    18   11   21 1
    19   11   53 1
    20   12   13 1
    21   12   14 1
    22   12   54 1
    23   14   15 1
    24   14   20 1
    25   14   55 1
    26   15   16 1
    27   16   17 2
    28   16   18 1
    29   16   19 1
    30   20   21 1
    31   20   22 1
    32   20   56 1
    33   22   23 1
    34   22   57 1
    35   22   58 1
    36   23   24 1
    37   24   25 2
    38   24   26 1
    39   24   27 1
    40   27   28 1
    41   28   29 2
    42   28   30 1
    43   28   31 1
    44   31   33 1
    45   32   33 1
    46   32   34 1
    47   32   35 1
    48   32   36 1
    49   33   59 1
    50   33   60 1
    51   34   61 1
    52   34   62 1
    53   34   63 1
    54   35   64 1
    55   35   65 1
    56   35   66 1
    57   36   37 1
    58   36   38 1
    59   36   67 1
    60   37   68 1
    61   38   39 2
    62   38   40 am
    63   40   41 1
    64   40   69 1
    65   41   42 1
    66   41   70 1
    67   41   71 1
    68   42   43 1
    69   42   72 1
    70   42   73 1
    71   43   44 2
    72   43   45 am
    73   45   46 1
    74   45   74 1
    75   46   47 1
    76   46   75 1
    77   46   76 1
    78   47   48 1
    79   47   77 1
    80   47   78 1
    81   48   79 1
@<TRIPOS>SUBSTRUCTURE
     1 COA         1 GROUP 0 A     ****
@<TRIPOS>MOLECULE
[5-(6-aminopurin-9-yl)-2-[[[[3-hydroxy-2,2-dimethyl-4-oxo-4-[[3-oxo-3-(2-sulfanylethylamino)propyl]amino]butoxy]-oxido-phosphoryl]oxy-oxido-phosphoryl]oxymethyl]-4-oxido-tetrahydrofuran-3-yl] phosphate
   79    81     1     0     0
SMALL
USER_CHARGES

@<TRIPOS>ATOM
      1 N1A         4.6908    0.9263    0.5284 N.ar      1 COA        -0.5260
      2 C2A         3.4193    1.3931    0.4919 C.ar      1 COA         0.6629
      3 N3A         2.4653    1.1803   -0.4405 N.ar      1 COA        -0.5260
      4 C4A         2.9338    0.3916   -1.4192 C.ar      1 COA         0.5212
      5 C5A         4.2020   -0.1580   -1.5185 C.ar      1 COA         0.0088
      6 C6A         5.0963    0.1348   -0.4937 C.ar      1 COA         0.5212
      7 N6A         6.4038   -0.3801   -0.5131 N.pl3     1 COA        -0.6025
      8 N7A         4.3170   -0.9111   -2.6598 N.2       1 COA        -0.4271
      9 C8A         3.1403   -0.8212   -3.2436 C.ar      1 COA         0.5691
     10 N9A         2.2683   -0.0422   -2.5302 N.pl3     1 COA        -0.5033
     11 C1B         0.8363    0.2748   -2.9142 C.3       1 COA         0.2693
     12 C2B        -0.3043   -0.1391   -1.9549 C.3       1 COA         0.2008
     13 O2B        -0.6991   -1.3747   -2.2004 O.co2     1 COA        -0.1615
     14 C3B        -1.3853    0.8773   -2.3558 C.3       1 COA         0.1111
     15 O3B        -2.0094    0.5576   -3.6033 O.3       1 COA         0.1618
     16 P3B        -3.4806    1.2180   -3.9334 P.3       1 COA        -1.1921
     17 O7A        -4.3962    0.7100   -2.8235 O.co2     1 COA         0.3195
     18 O8A        -3.8112    0.6588   -5.3140 O.co2     1 COA         0.3195
     19 O9A        -3.2466    2.7257   -3.9151 O.co2     1 COA         0.3195
     20 C4B        -0.5713    2.1464   -2.5855 C.3       1 COA         0.1111
     21 O4B         0.7211    1.7136   -3.0526 O.3       1 COA        -0.1436
     22 C5B        -0.3655    2.9745   -1.3239 C.3       1 COA         0.1504
     23 O5B         0.3986    4.1249   -1.6460 O.3       1 COA         0.1618
     24 P1A         0.7670    5.1936   -0.4641 P.3       1 COA        -1.1062
     25 O1A         1.1289    6.5260   -1.0837 O.co2     1 COA         0.3195
     26 O2A         1.6876    4.5161    0.5275 O.co2     1 COA         0.3195
     27 O3A        -0.6886    5.3125    0.2679 O.3       1 COA         0.4672
     28 P2A        -1.1429    6.2040    1.5594 P.3       1 COA        -1.1062
     29 O4A        -2.6377    6.0612    1.7476 O.co2     1 COA         0.3195
     30 O5A        -0.1888    5.9134    2.6974 O.co2     1 COA         0.3195
     31 O6A        -0.8065    7.6957    0.9792 O.3       1 COA         0.1618
     32 CBP        -1.0090    9.5771   -0.5793 C.3       1 COA         0.0000
     33 CCP        -1.4652    8.1470   -0.1994 C.3       1 COA         0.1504
     34 CDP         0.5182    9.5632   -0.8289 C.3       1 COA         0.1179
     35 CEP        -1.6888   10.0085   -1.8940 C.3       1 COA         0.1179
     36 CAP        -1.3149   10.5877    0.5658 C.3       1 COA         0.0611
     37 OAP        -0.6287   10.1955    1.7518 O.3       1 COA        -0.2728
     38 C9P        -0.8916   12.0249    0.2699 C.2       1 COA         0.3561
     39 O9P         0.2422   12.4378    0.5067 O.2       1 COA        -0.2391
     40 N8P        -1.9050   12.7747   -0.3052 N.am      1 COA        -0.1909
     41 C7P        -1.7368   14.1547   -0.6986 C.3       1 COA         0.1160
     42 C6P        -2.1026   15.0674    0.4629 C.3       1 COA         0.0286
     43 C5P        -3.5409   14.8840    0.9130 C.2       1 COA         0.3561
     44 O5P        -4.3128   14.0858    0.3885 O.2       1 COA        -0.2391
     45 N4P        -3.8551   15.7237    1.9714 N.am      1 COA        -0.1909
     46 C3P        -5.1602   15.7533    2.5907 C.3       1 COA         0.1160
     47 C2P        -6.0991   16.7543    1.9374 C.3       1 COA         0.2607
     48 S1P        -7.7373   16.7808    2.7266 S.3       1 COA        -0.3539
     49 H2A         3.1287    2.0232    1.3259 H         1 COA        -0.1369
     50 H61A        7.0472   -0.1189    0.2098 H         1 COA         0.2048
     51 H62A        6.7069   -0.9256   -1.2976 H         1 COA         0.2048
     52 H8A         2.8628   -1.2932   -4.1762 H         1 COA        -0.1292
     53 H1B         0.7316   -0.1451   -3.9582 H         1 COA        -0.0393
     54 H2B         0.0098    0.1350   -0.9357 H         1 COA        -0.0393
     55 H3B        -2.1756    1.0002   -1.6070 H         1 COA        -0.0393
     56 H4B        -1.0101    2.7804   -3.3646 H         1 COA        -0.0393
     57 H51A        0.1721    2.3946   -0.5677 H         1 COA        -0.0393
     58 H52A       -1.3279    3.2941   -0.9132 H         1 COA        -0.0393
     59 H121       -1.2324    7.4355   -0.9984 H         1 COA        -0.0393
     60 H122       -2.5440    8.1138   -0.0133 H         1 COA        -0.0393
     61 H131        0.8796   10.5616   -1.1013 H         1 COA        -0.0393
     62 H132        0.7886    8.8842   -1.6454 H         1 COA        -0.0393
     63 H133        1.0681    9.2399    0.0618 H         1 COA        -0.0393
     64 H141       -1.3855   11.0192   -2.1904 H         1 COA        -0.0393
     65 H142       -2.7797   10.0132   -1.7903 H         1 COA        -0.0393
     66 H143       -1.4280    9.3402   -2.7211 H         1 COA        -0.0393
     67 H10        -2.3880   10.5770    0.7950 H         1 COA        -0.0393
     68 HO1         0.3169   10.1957    1.5366 H         1 COA         0.2010
     69 HN8        -2.8042   12.3405   -0.4899 H         1 COA         0.0865
     70 H71        -0.6987   14.3172   -1.0054 H         1 COA        -0.0393
     71 H72        -2.3708   14.3611   -1.5667 H         1 COA        -0.0393
     72 H61        -1.9618   16.1170    0.1758 H         1 COA        -0.0393
     73 H62        -1.4448   14.8702    1.3186 H         1 COA        -0.0393
     74 HN4        -3.1353   16.3459    2.3272 H         1 COA         0.0865
     75 H31        -5.5689   14.7446    2.4886 H         1 COA        -0.0393
     76 H32        -5.0167   15.9539    3.6554 H         1 COA        -0.0393
     77 H21        -5.6811   17.7656    1.9723 H         1 COA        -0.0393
     78 H22        -6.2422   16.4830    0.8868 H         1 COA        -0.0393
     79 HS1        -8.0278   15.4954    2.4862 H         1 COA         0.1718
@<TRIPOS>BOND
     1    1    2 ar
     2    1    6 ar
     3    2    3 ar
     4    2   49 1
     5    3    4 ar
     6    4    5 ar
     7    4   10 ar
     8    5    6 ar
     9    5    8 ar
    10    6    7 1
    11    7   50 1
    12    7   51 1
    13    8    9 ar
    14    9   10 ar
    15    9   52 1
    16   10   11 1
    17   11   12 1
    18   11   21 1
    19   11   53 1
    20   12   13 1
    21   12   14 1
    22   12   54 1
    23   14   15 1
    24   14   20 1
    25   14   55 1
    26   15   16 1
    27   16   17 2
    28   16   18 1
    29   16   19 1
    30   20   21 1
    31   20   22 1
    32   20   56 1
    33   22   23 1
    34   22   57 1
    35   22   58 1
    36   23   24 1
    37   24   25 2
    38   24   26 1
    39   24   27 1
    40   27   28 1
    41   28   29 2
    42   28   30 1
    43   28   31 1
    44   31   33 1
    45   32   33 1
    46   32   34 1
    47   32   35 1
    48   32   36 1
    49   33   59 1
    50   33   60 1
    51   34   61 1
    52   34   62 1
    53   34   63 1
    54   35   64 1
    55   35   65 1
    56   35   66 1
    57   36   37 1
    58   36   38 1
    59   36   67 1
    60   37   68 1
    61   38   39 2
    62   38   40 am
    63   40   41 1
    64   40   69 1
    65   41   42 1
    66   41   70 1
    67   41   71 1
    68   42   43 1
    69   42   72 1
    70   42   73 1
    71   43   44 2
    72   43   45 am
    73   45   46 1
    74   45   74 1
    75   46   47 1
    76   46   75 1
    77   46   76 1
    78   47   48 1
    79   47   77 1
    80   47   78 1
    81   48   79 1
@<TRIPOS>SUBSTRUCTURE
     1 COA         1 GROUP 0 A     ****
@<TRIPOS>MOLECULE
[5-(6-aminopurin-9-yl)-2-[[[[3-hydroxy-2,2-dimethyl-4-oxo-4-[[3-oxo-3-(2-sulfanylethylamino)propyl]amino]butoxy]-oxido-phosphoryl]oxy-oxido-phosphoryl]oxymethyl]-4-oxido-tetrahydrofuran-3-yl] phosphate
   79    81     1     0     0
SMALL
USER_CHARGES

@<TRIPOS>ATOM
      1 N1A         4.6908    0.9263    0.5284 N.ar      1 COA        -0.5260
      2 C2A         3.4193    1.3931    0.4919 C.ar      1 COA         0.6629
      3 N3A         2.4653    1.1803   -0.4405 N.ar      1 COA        -0.5260
      4 C4A         2.9338    0.3916   -1.4192 C.ar      1 COA         0.5212
      5 C5A         4.2020   -0.1580   -1.5185 C.ar      1 COA         0.0088
      6 C6A         5.0963    0.1348   -0.4937 C.ar      1 COA         0.5212
      7 N6A         6.4038   -0.3801   -0.5131 N.pl3     1 COA        -0.6025
      8 N7A         4.3170   -0.9111   -2.6598 N.2       1 COA        -0.4271
      9 C8A         3.1403   -0.8212   -3.2436 C.ar      1 COA         0.5691
     10 N9A         2.2683   -0.0422   -2.5302 N.pl3     1 COA        -0.5033
     11 C1B         0.8363    0.2748   -2.9142 C.3       1 COA         0.2693
     12 C2B        -0.3043   -0.1391   -1.9549 C.3       1 COA         0.2008
     13 O2B        -0.6991   -1.3747   -2.2004 O.co2     1 COA        -0.1615
     14 C3B        -1.3853    0.8773   -2.3558 C.3       1 COA         0.1111
     15 O3B        -2.0094    0.5576   -3.6033 O.3       1 COA         0.1618
     16 P3B        -3.4806    1.2180   -3.9334 P.3       1 COA        -1.1921
     17 O7A        -4.3962    0.7100   -2.8235 O.co2     1 COA         0.3195
     18 O8A        -3.8112    0.6588   -5.3140 O.co2     1 COA         0.3195
     19 O9A        -3.2466    2.7257   -3.9151 O.co2     1 COA         0.3195
     20 C4B        -0.5713    2.1464   -2.5855 C.3       1 COA         0.1111
     21 O4B         0.7211    1.7136   -3.0526 O.3       1 COA        -0.1436
     22 C5B        -0.3655    2.9745   -1.3239 C.3       1 COA         0.1504
     23 O5B         0.3986    4.1249   -1.6460 O.3       1 COA         0.1618
     24 P1A         0.7670    5.1936   -0.4641 P.3       1 COA        -1.1062
     25 O1A         1.1289    6.5260   -1.0837 O.co2     1 COA         0.3195
     26 O2A         1.6876    4.5161    0.5275 O.co2     1 COA         0.3195
     27 O3A        -0.6886    5.3125    0.2679 O.3       1 COA         0.4672
     28 P2A        -1.1429    6.2040    1.5594 P.3       1 COA        -1.1062
     29 O4A        -2.6377    6.0612    1.7476 O.co2     1 COA         0.3195
     30 O5A        -0.1888    5.9134    2.6974 O.co2     1 COA         0.3195
     31 O6A        -0.8065    7.6957    0.9792 O.3       1 COA         0.1618
     32 CBP        -1.0090    9.5771   -0.5793 C.3       1 COA         0.0000
     33 CCP        -1.4652    8.1470   -0.1994 C.3       1 COA         0.1504
     34 CDP         0.5182    9.5632   -0.8289 C.3       1 COA         0.1179
     35 CEP        -1.6888   10.0085   -1.8940 C.3       1 COA         0.1179
     36 CAP        -1.3149   10.5877    0.5658 C.3       1 COA         0.0611
     37 OAP        -0.6287   10.1955    1.7518 O.3       1 COA        -0.2728
     38 C9P        -0.8916   12.0249    0.2699 C.2       1 COA         0.3561
     39 O9P         0.2422   12.4378    0.5067 O.2       1 COA        -0.2391
     40 N8P        -1.9050   12.7747   -0.3052 N.am      1 COA        -0.1909
     41 C7P        -1.7368   14.1547   -0.6986 C.3       1 COA         0.1160
     42 C6P        -3.0657   14.8869   -0.5824 C.3       1 COA         0.0286
     43 C5P        -2.9592   16.3476   -0.9823 C.2       1 COA         0.3561
     44 O5P        -1.9110   16.8679   -1.3544 O.2       1 COA        -0.2391
     45 N4P        -4.1796   16.9975   -0.8699 N.am      1 COA        -0.1909
     46 C3P        -4.3575   18.3959   -1.1865 C.3       1 COA         0.1160
     47 C2P        -4.1274   19.3042    0.0103 C.3       1 COA         0.2607
     48 S1P        -5.2686   18.9438    1.3798 S.3       1 COA        -0.3539
     49 H2A         3.1287    2.0232    1.3259 H         1 COA        -0.1369
     50 H61A        7.0472   -0.1189    0.2098 H         1 COA         0.2048
     51 H62A        6.7069   -0.9256   -1.2976 H         1 COA         0.2048
     52 H8A         2.8628   -1.2932   -4.1762 H         1 COA        -0.1292
     53 H1B         0.7316   -0.1451   -3.9582 H         1 COA        -0.0393
     54 H2B         0.0098    0.1350   -0.9357 H         1 COA        -0.0393
     55 H3B        -2.1756    1.0002   -1.6070 H         1 COA        -0.0393
     56 H4B        -1.0101    2.7804   -3.3646 H         1 COA        -0.0393
     57 H51A        0.1721    2.3946   -0.5677 H         1 COA        -0.0393
     58 H52A       -1.3279    3.2941   -0.9132 H         1 COA        -0.0393
     59 H121       -1.2324    7.4355   -0.9984 H         1 COA        -0.0393
     60 H122       -2.5440    8.1138   -0.0133 H         1 COA        -0.0393
     61 H131        0.8796   10.5616   -1.1013 H         1 COA        -0.0393
     62 H132        0.7886    8.8842   -1.6454 H         1 COA        -0.0393
     63 H133        1.0681    9.2399    0.0618 H         1 COA        -0.0393
     64 H141       -1.3855   11.0192   -2.1904 H         1 COA        -0.0393
     65 H142       -2.7797   10.0132   -1.7903 H         1 COA        -0.0393
     66 H143       -1.4280    9.3402   -2.7211 H         1 COA        -0.0393
     67 H10        -2.3880   10.5770    0.7950 H         1 COA        -0.0393
     68 HO1         0.3169   10.1957    1.5366 H         1 COA         0.2010
     69 HN8        -2.8042   12.3405   -0.4899 H         1 COA         0.0865
     70 H71        -0.9813   14.6216   -0.0586 H         1 COA        -0.0393
     71 H72        -1.3634   14.1927   -1.7268 H         1 COA        -0.0393
     72 H61        -3.4340   14.8375    0.4499 H         1 COA        -0.0393
     73 H62        -3.8172   14.4074   -1.2221 H         1 COA        -0.0393
     74 HN4        -4.9844   16.4663   -0.5505 H         1 COA         0.0865
     75 H31        -3.6294   18.6264   -1.9686 H         1 COA        -0.0393
     76 H32        -5.3579   18.5146   -1.6102 H         1 COA        -0.0393
     77 H21        -3.1013   19.2131    0.3811 H         1 COA        -0.0393
     78 H22        -4.2882   20.3445   -0.2894 H         1 COA        -0.0393
     79 HS1        -6.3918   19.1902    0.6927 H         1 COA         0.1718
@<TRIPOS>BOND
     1    1    2 ar
     2    1    6 ar
     3    2    3 ar
     4    2   49 1
     5    3    4 ar
     6    4    5 ar
     7    4   10 ar
     8    5    6 ar
     9    5    8 ar
    10    6    7 1
    11    7   50 1
    12    7   51 1
    13    8    9 ar
    14    9   10 ar
    15    9   52 1
    16   10   11 1
    17   11   12 1
    18   11   21 1
    19   11   53 1
    20   12   13 1
    21   12   14 1
    22   12   54 1
    23   14   15 1
    24   14   20 1
    25   14   55 1
    26   15   16 1
    27   16   17 2
    28   16   18 1
    29   16   19 1
    30   20   21 1
    31   20   22 1
    32   20   56 1
    33   22   23 1
    34   22   57 1
    35   22   58 1
    36   23   24 1
    37   24   25 2
    38   24   26 1
    39   24   27 1
    40   27   28 1
    41   28   29 2
    42   28   30 1
    43   28   31 1
    44   31   33 1
    45   32   33 1
    46   32   34 1
    47   32   35 1
    48   32   36 1
    49   33   59 1
    50   33   60 1
    51   34   61 1
    52   34   62 1
    53   34   63 1
    54   35   64 1
    55   35   65 1
    56   35   66 1
    57   36   37 1
    58   36   38 1
    59   36   67 1
    60   37   68 1
    61   38   39 2
    62   38   40 am
    63   40   41 1
    64   40   69 1
    65   41   42 1
    66   41   70 1
    67   41   71 1
    68   42   43 1
    69   42   72 1
    70   42   73 1
    71   43   44 2
    72   43   45 am
    73   45   46 1
    74   45   74 1
    75   46   47 1
    76   46   75 1
    77   46   76 1
    78   47   48 1
    79   47   77 1
    80   47   78 1
    81   48   79 1
@<TRIPOS>SUBSTRUCTURE
     1 COA         1 GROUP 0 A     ****
@<TRIPOS>MOLECULE
[5-(6-aminopurin-9-yl)-2-[[[[3-hydroxy-2,2-dimethyl-4-oxo-4-[[3-oxo-3-(2-sulfanylethylamino)propyl]amino]butoxy]-oxido-phosphoryl]oxy-oxido-phosphoryl]oxymethyl]-4-oxido-tetrahydrofuran-3-yl] phosphate
   79    81     1     0     0
SMALL
USER_CHARGES

@<TRIPOS>ATOM
      1 N1A         6.1093    3.4221   -2.1706 N.ar      1 COA        -0.5260
      2 C2A         4.9028    3.1932   -1.5982 C.ar      1 COA         0.6629
      3 N3A         3.8250    2.5648   -2.1163 N.ar      1 COA        -0.5260
      4 C4A         4.0802    2.1492   -3.3659 C.ar      1 COA         0.5212
      5 C5A         5.2577    2.3095   -4.0788 C.ar      1 COA         0.0088
      6 C6A         6.2970    2.9741   -3.4353 C.ar      1 COA         0.5212
      7 N6A         7.5267    3.1813   -4.0834 N.pl3     1 COA        -0.6025
      8 N7A         5.1483    1.7539   -5.3288 N.2       1 COA        -0.4271
      9 C8A         3.9267    1.2647   -5.3749 C.ar      1 COA         0.5691
     10 N9A         3.2402    1.4796   -4.2093 N.pl3     1 COA        -0.5033
     11 C1B         1.8139    1.0528   -3.9225 C.3       1 COA         0.2693
     12 C2B         1.5441    0.0924   -2.7404 C.3       1 COA         0.2008
     13 O2B         1.6560   -1.1661   -3.1231 O.co2     1 COA        -0.1615
     14 C3B         0.0825    0.4469   -2.4241 C.3       1 COA         0.1111
     15 O3B        -0.8371   -0.0985   -3.3754 O.3       1 COA         0.1618
     16 P3B        -2.4169   -0.2494   -2.9382 P.3       1 COA        -1.1921
     17 O7A        -2.4022   -1.1842   -1.7323 O.co2     1 COA         0.3195
     18 O8A        -3.0660   -0.8511   -4.1810 O.co2     1 COA         0.3195
     19 O9A        -2.8748    1.1724   -2.6264 O.co2     1 COA         0.3195
     20 C4B         0.0646    1.9600   -2.6151 C.3       1 COA         0.1111
     21 O4B         1.0421    2.2460   -3.6341 O.3       1 COA        -0.1436
     22 C5B         0.4465    2.7364   -1.3618 C.3       1 COA         0.1504
     23 O5B         0.3986    4.1249   -1.6460 O.3       1 COA         0.1618
     24 P1A         0.7670    5.1936   -0.4641 P.3       1 COA        -1.1062
     25 O1A         1.1289    6.5260   -1.0837 O.co2     1 COA         0.3195
     26 O2A         1.6876    4.5161    0.5275 O.co2     1 COA         0.3195
     27 O3A        -0.6886    5.3125    0.2679 O.3       1 COA         0.4672
     28 P2A        -1.1429    6.2040    1.5594 P.3       1 COA        -1.1062
     29 O4A        -2.6377    6.0612    1.7476 O.co2     1 COA         0.3195
     30 O5A        -0.1888    5.9134    2.6974 O.co2     1 COA         0.3195
     31 O6A        -0.8065    7.6957    0.9792 O.3       1 COA         0.1618
     32 CBP        -1.0090    9.5771   -0.5793 C.3       1 COA         0.0000
     33 CCP        -1.4652    8.1470   -0.1994 C.3       1 COA         0.1504
     34 CDP         0.5182    9.5632   -0.8289 C.3       1 COA         0.1179
     35 CEP        -1.6888   10.0085   -1.8940 C.3       1 COA         0.1179
     36 CAP        -1.3149   10.5877    0.5658 C.3       1 COA         0.0611
     37 OAP        -0.3519   11.6382    0.5524 O.3       1 COA        -0.2728
     38 C9P        -2.6876   11.2507    0.4734 C.2       1 COA         0.3561
     39 O9P        -2.8806   12.2731   -0.1822 O.2       1 COA        -0.2391
     40 N8P        -3.6636   10.5632    1.1768 N.am      1 COA        -0.1909
     41 C7P        -5.0458   10.9816    1.2180 C.3       1 COA         0.1160
     42 C6P        -5.2614   11.9255    2.3920 C.3       1 COA         0.0286
     43 C5P        -4.9315   11.2774    3.7246 C.2       1 COA         0.3561
     44 O5P        -5.0566   10.0743    3.9362 O.2       1 COA        -0.2391
     45 N4P        -4.4823   12.2099    4.6481 N.am      1 COA        -0.1909
     46 C3P        -4.1017   11.8599    5.9972 C.3       1 COA         0.1160
     47 C2P        -2.6288   11.5052    6.1199 C.3       1 COA         0.2607
     48 S1P        -1.5445   12.8792    5.6260 S.3       1 COA        -0.3539
     49 H2A         4.7878    3.5651   -0.5856 H         1 COA        -0.1369
     50 H61A        8.2460    3.7037   -3.6204 H         1 COA         0.2048
     51 H62A        7.6376    2.8871   -5.0353 H         1 COA         0.2048
     52 H8A         3.4866    0.7495   -6.2177 H         1 COA        -0.1292
     53 H1B         1.4348    0.6728   -4.9170 H         1 COA        -0.0393
     54 H2B         2.1376    0.4515   -1.8851 H         1 COA        -0.0393
     55 H3B        -0.2421    0.1333   -1.4258 H         1 COA        -0.0393
     56 H4B        -0.9063    2.3168   -2.9777 H         1 COA        -0.0393
     57 H51A        1.4605    2.4765   -1.0434 H         1 COA        -0.0393
     58 H52A       -0.2515    2.5189   -0.5478 H         1 COA        -0.0393
     59 H121       -1.2324    7.4355   -0.9984 H         1 COA        -0.0393
     60 H122       -2.5440    8.1138   -0.0133 H         1 COA        -0.0393
     61 H131        0.8796   10.5616   -1.1013 H         1 COA        -0.0393
     62 H132        0.7886    8.8842   -1.6454 H         1 COA        -0.0393
     63 H133        1.0681    9.2399    0.0618 H         1 COA        -0.0393
     64 H141       -1.3855   11.0192   -2.1904 H         1 COA        -0.0393
     65 H142       -2.7797   10.0132   -1.7903 H         1 COA        -0.0393
     66 H143       -1.4280    9.3402   -2.7211 H         1 COA        -0.0393
     67 H10        -1.2314   10.0854    1.5378 H         1 COA        -0.0393
     68 HO1        -0.4241   12.0681   -0.3139 H         1 COA         0.2010
     69 HN8        -3.4169    9.7096    1.6684 H         1 COA         0.0865
     70 H71        -5.3008   11.4743    0.2743 H         1 COA        -0.0393
     71 H72        -5.6863   10.0986    1.3096 H         1 COA        -0.0393
     72 H61        -6.3060   12.2597    2.4197 H         1 COA        -0.0393
     73 H62        -4.6342   12.8185    2.2773 H         1 COA        -0.0393
     74 HN4        -4.4181   13.1828    4.3630 H         1 COA         0.0865
     75 H31        -4.3218   12.7358    6.6130 H         1 COA        -0.0393
     76 H32        -4.7526   11.0449    6.3237 H         1 COA        -0.0393
     77 H21        -2.3783   11.2176    7.1461 H         1 COA        -0.0393
     78 H22        -2.4059   10.6562    5.4661 H         1 COA        -0.0393
     79 HS1        -1.9938   13.7466    6.5426 H         1 COA         0.1718
@<TRIPOS>BOND
     1    1    2 ar
     2    1    6 ar
     3    2    3 ar
     4    2   49 1
     5    3    4 ar
     6    4    5 ar
     7    4   10 ar
     8    5    6 ar
     9    5    8 ar
    10    6    7 1
    11    7   50 1
    12    7   51 1
    13    8    9 ar
    14    9   10 ar
    15    9   52 1
    16   10   11 1
    17   11   12 1
    18   11   21 1
    19   11   53 1
    20   12   13 1
    21   12   14 1
    22   12   54 1
    23   14   15 1
    24   14   20 1
    25   14   55 1
    26   15   16 1
    27   16   17 2
    28   16   18 1
    29   16   19 1
    30   20   21 1
    31   20   22 1
    32   20   56 1
    33   22   23 1
    34   22   57 1
    35   22   58 1
    36   23   24 1
    37   24   25 2
    38   24   26 1
    39   24   27 1
    40   27   28 1
    41   28   29 2
    42   28   30 1
    43   28   31 1
    44   31   33 1
    45   32   33 1
    46   32   34 1
    47   32   35 1
    48   32   36 1
    49   33   59 1
    50   33   60 1
    51   34   61 1
    52   34   62 1
    53   34   63 1
    54   35   64 1
    55   35   65 1
    56   35   66 1
    57   36   37 1
    58   36   38 1
    59   36   67 1
    60   37   68 1
    61   38   39 2
    62   38   40 am
    63   40   41 1
    64   40   69 1
    65   41   42 1
    66   41   70 1
    67   41   71 1
    68   42   43 1
    69   42   72 1
    70   42   73 1
    71   43   44 2
    72   43   45 am
    73   45   46 1
    74   45   74 1
    75   46   47 1
    76   46   75 1
    77   46   76 1
    78   47   48 1
    79   47   77 1
    80   47   78 1
    81   48   79 1
@<TRIPOS>SUBSTRUCTURE
     1 COA         1 GROUP 0 A     ****
@<TRIPOS>MOLECULE
[5-(6-aminopurin-9-yl)-2-[[[[3-hydroxy-2,2-dimethyl-4-oxo-4-[[3-oxo-3-(2-sulfanylethylamino)propyl]amino]butoxy]-oxido-phosphoryl]oxy-oxido-phosphoryl]oxymethyl]-4-oxido-tetrahydrofuran-3-yl] phosphate
   79    81     1     0     0
SMALL
USER_CHARGES

@<TRIPOS>ATOM
      1 N1A         6.3197    3.3711    0.1967 N.ar      1 COA        -0.5260
      2 C2A         5.0033    3.3256    0.5141 C.ar      1 COA         0.6629
      3 N3A         4.0730    2.4196    0.1418 N.ar      1 COA        -0.5260
      4 C4A         4.6208    1.4811   -0.6447 C.ar      1 COA         0.5212
      5 C5A         5.9423    1.3962   -1.0530 C.ar      1 COA         0.0088
      6 C6A         6.8050    2.3902   -0.6021 C.ar      1 COA         0.5212
      7 N6A         8.1621    2.3826   -0.9671 N.pl3     1 COA        -0.6025
      8 N7A         6.1335    0.2987   -1.8543 N.2       1 COA        -0.4271
      9 C8A         4.9500   -0.2731   -1.9316 C.ar      1 COA         0.5691
     10 N9A         4.0006    0.4065   -1.2155 N.pl3     1 COA        -0.5033
     11 C1B         2.5376    0.0288   -1.0907 C.3       1 COA         0.2693
     12 C2B         1.9579   -0.2640    0.3131 C.3       1 COA         0.2008
     13 O2B         2.1299   -1.5323    0.6368 O.co2     1 COA        -0.1615
     14 C3B         0.4729    0.0487    0.0699 C.3       1 COA         0.1111
     15 O3B        -0.1943   -0.9780   -0.6709 O.3       1 COA         0.1618
     16 P3B        -1.8364   -1.0586   -0.5907 P.3       1 COA        -1.1921
     17 O7A        -2.1459   -1.2889    0.8856 O.co2     1 COA         0.3195
     18 O8A        -2.1706   -2.2476   -1.4866 O.co2     1 COA         0.3195
     19 O9A        -2.3217    0.2823   -1.1335 O.co2     1 COA         0.3195
     20 C4B         0.5412    1.2713   -0.8394 C.3       1 COA         0.1111
     21 O4B         1.7485    1.1278   -1.6124 O.3       1 COA        -0.1436
     22 C5B         0.6184    2.5901   -0.0816 C.3       1 COA         0.1504
     23 O5B         0.6777    3.6562   -1.0149 O.3       1 COA         0.1618
     24 P1A         0.7670    5.1936   -0.4641 P.3       1 COA        -1.1062
     25 O1A         0.8194    6.1476   -1.6376 O.co2     1 COA         0.3195
     26 O2A         1.8029    5.2507    0.6375 O.co2     1 COA         0.3195
     27 O3A        -0.6886    5.3125    0.2679 O.3       1 COA         0.4672
     28 P2A        -1.1429    6.2040    1.5594 P.3       1 COA        -1.1062
     29 O4A        -2.6377    6.0612    1.7476 O.co2     1 COA         0.3195
     30 O5A        -0.1888    5.9134    2.6974 O.co2     1 COA         0.3195
     31 O6A        -0.8065    7.6957    0.9792 O.3       1 COA         0.1618
     32 CBP        -1.0463    9.4480   -0.7182 C.3       1 COA         0.0000
     33 CCP        -1.7297    8.3208    0.0940 C.3       1 COA         0.1504
     34 CDP         0.1097    8.8359   -1.5452 C.3       1 COA         0.1179
     35 CEP        -2.0542   10.0578   -1.7127 C.3       1 COA         0.1179
     36 CAP        -0.4581   10.5415    0.2222 C.3       1 COA         0.0611
     37 OAP         0.1628   11.5628   -0.5541 O.3       1 COA        -0.2728
     38 C9P        -1.4903   11.2331    1.1103 C.2       1 COA         0.3561
     39 O9P        -2.1297   12.2135    0.7334 O.2       1 COA        -0.2391
     40 N8P        -1.6312   10.6209    2.3453 N.am      1 COA        -0.1909
     41 C7P        -2.5657   11.0776    3.3480 C.3       1 COA         0.1160
     42 C6P        -1.8923   12.1042    4.2472 C.3       1 COA         0.0286
     43 C5P        -2.8224   12.6272    5.3271 C.2       1 COA         0.3561
     44 O5P        -3.7329   11.9602    5.8109 O.2       1 COA        -0.2391
     45 N4P        -2.5103   13.9316    5.6812 N.am      1 COA        -0.1909
     46 C3P        -3.2413   14.6698    6.6853 C.3       1 COA         0.1160
     47 C2P        -4.4126   15.4474    6.1078 C.3       1 COA         0.2607
     48 S1P        -3.8863   16.6653    4.8639 S.3       1 COA        -0.3539
     49 H2A         4.6492    4.1260    1.1552 H         1 COA        -0.1369
     50 H61A        8.7564    3.1335   -0.6708 H         1 COA         0.2048
     51 H62A        8.4991    1.6788   -1.5963 H         1 COA         0.2048
     52 H8A         4.7208   -1.1726   -2.4865 H         1 COA        -0.1292
     53 H1B         2.4085   -0.8200   -1.8256 H         1 COA        -0.0393
     54 H2B         2.3286    0.5212    0.9904 H         1 COA        -0.0393
     55 H3B        -0.0977    0.2245    0.9885 H         1 COA        -0.0393
     56 H4B        -0.2996    1.3083   -1.5416 H         1 COA        -0.0393
     57 H51A        1.5144    2.6204    0.5455 H         1 COA        -0.0393
     58 H52A       -0.2654    2.7227    0.5494 H         1 COA        -0.0393
     59 H121       -2.1262    7.5446   -0.5686 H         1 COA        -0.0393
     60 H122       -2.5562    8.7139    0.6956 H         1 COA        -0.0393
     61 H131        0.6194    9.6060   -2.1356 H         1 COA        -0.0393
     62 H132       -0.2524    8.0744   -2.2449 H         1 COA        -0.0393
     63 H133        0.8566    8.3597   -0.9005 H         1 COA        -0.0393
     64 H141       -1.5995   10.8607   -2.3043 H         1 COA        -0.0393
     65 H142       -2.9149   10.4873   -1.1878 H         1 COA        -0.0393
     66 H143       -2.4255    9.3094   -2.4205 H         1 COA        -0.0393
     67 H10         0.3192   10.1040    0.8613 H         1 COA        -0.0393
     68 HO1        -0.5280   11.9349   -1.1241 H         1 COA         0.2010
     69 HN8        -1.0789    9.7962    2.5598 H         1 COA         0.0865
     70 H71        -3.4403   11.5120    2.8534 H         1 COA        -0.0393
     71 H72        -2.9130   10.2202    3.9332 H         1 COA        -0.0393
     72 H61        -1.5426   12.9558    3.6504 H         1 COA        -0.0393
     73 H62        -1.0138   11.6609    4.7327 H         1 COA        -0.0393
     74 HN4        -1.7328   14.3883    5.2136 H         1 COA         0.0865
     75 H31        -3.6081   13.9295    7.4011 H         1 COA        -0.0393
     76 H32        -2.5295   15.3173    7.2035 H         1 COA        -0.0393
     77 H21        -5.1420   14.7738    5.6464 H         1 COA        -0.0393
     78 H22        -4.9163   15.9924    6.9122 H         1 COA        -0.0393
     79 HS1        -3.3313   15.7782    4.0276 H         1 COA         0.1718
@<TRIPOS>BOND
     1    1    2 ar
     2    1    6 ar
     3    2    3 ar
     4    2   49 1
     5    3    4 ar
     6    4    5 ar
     7    4   10 ar
     8    5    6 ar
     9    5    8 ar
    10    6    7 1
    11    7   50 1
    12    7   51 1
    13    8    9 ar
    14    9   10 ar
    15    9   52 1
    16   10   11 1
    17   11   12 1
    18   11   21 1
    19   11   53 1
    20   12   13 1
    21   12   14 1
    22   12   54 1
    23   14   15 1
    24   14   20 1
    25   14   55 1
    26   15   16 1
    27   16   17 2
    28   16   18 1
    29   16   19 1
    30   20   21 1
    31   20   22 1
    32   20   56 1
    33   22   23 1
    34   22   57 1
    35   22   58 1
    36   23   24 1
    37   24   25 2
    38   24   26 1
    39   24   27 1
    40   27   28 1
    41   28   29 2
    42   28   30 1
    43   28   31 1
    44   31   33 1
    45   32   33 1
    46   32   34 1
    47   32   35 1
    48   32   36 1
    49   33   59 1
    50   33   60 1
    51   34   61 1
    52   34   62 1
    53   34   63 1
    54   35   64 1
    55   35   65 1
    56   35   66 1
    57   36   37 1
    58   36   38 1
    59   36   67 1
    60   37   68 1
    61   38   39 2
    62   38   40 am
    63   40   41 1
    64   40   69 1
    65   41   42 1
    66   41   70 1
    67   41   71 1
    68   42   43 1
    69   42   72 1
    70   42   73 1
    71   43   44 2
    72   43   45 am
    73   45   46 1
    74   45   74 1
    75   46   47 1
    76   46   75 1
    77   46   76 1
    78   47   48 1
    79   47   77 1
    80   47   78 1
    81   48   79 1
@<TRIPOS>SUBSTRUCTURE
     1 COA         1 GROUP 0 A     ****
@<TRIPOS>MOLECULE
[5-(6-aminopurin-9-yl)-2-[[[[3-hydroxy-2,2-dimethyl-4-oxo-4-[[3-oxo-3-(2-sulfanylethylamino)propyl]amino]butoxy]-oxido-phosphoryl]oxy-oxido-phosphoryl]oxymethyl]-4-oxido-tetrahydrofuran-3-yl] phosphate
   79    81     1     0     0
SMALL
USER_CHARGES

@<TRIPOS>ATOM
      1 N1A         4.6908    0.9263    0.5284 N.ar      1 COA        -0.5260
      2 C2A         3.4193    1.3931    0.4919 C.ar      1 COA         0.6629
      3 N3A         2.4653    1.1803   -0.4405 N.ar      1 COA        -0.5260
      4 C4A         2.9338    0.3916   -1.4192 C.ar      1 COA         0.5212
      5 C5A         4.2020   -0.1580   -1.5185 C.ar      1 COA         0.0088
      6 C6A         5.0963    0.1348   -0.4937 C.ar      1 COA         0.5212
      7 N6A         6.4038   -0.3801   -0.5131 N.pl3     1 COA        -0.6025
      8 N7A         4.3170   -0.9111   -2.6598 N.2       1 COA        -0.4271
      9 C8A         3.1403   -0.8212   -3.2436 C.ar      1 COA         0.5691
     10 N9A         2.2683   -0.0422   -2.5302 N.pl3     1 COA        -0.5033
     11 C1B         0.8363    0.2748   -2.9142 C.3       1 COA         0.2693
     12 C2B        -0.3043   -0.1391   -1.9549 C.3       1 COA         0.2008
     13 O2B        -0.6991   -1.3747   -2.2004 O.co2     1 COA        -0.1615
     14 C3B        -1.3853    0.8773   -2.3558 C.3       1 COA         0.1111
     15 O3B        -2.0094    0.5576   -3.6033 O.3       1 COA         0.1618
     16 P3B        -3.4806    1.2180   -3.9334 P.3       1 COA        -1.1921
     17 O7A        -4.3962    0.7100   -2.8235 O.co2     1 COA         0.3195
     18 O8A        -3.8112    0.6588   -5.3140 O.co2     1 COA         0.3195
     19 O9A        -3.2466    2.7257   -3.9151 O.co2     1 COA         0.3195
     20 C4B        -0.5713    2.1464   -2.5855 C.3       1 COA         0.1111
     21 O4B         0.7211    1.7136   -3.0526 O.3       1 COA        -0.1436
     22 C5B        -0.3655    2.9745   -1.3239 C.3       1 COA         0.1504
     23 O5B         0.3986    4.1249   -1.6460 O.3       1 COA         0.1618
     24 P1A         0.7670    5.1936   -0.4641 P.3       1 COA        -1.1062
     25 O1A         1.1289    6.5260   -1.0837 O.co2     1 COA         0.3195
     26 O2A         1.6876    4.5161    0.5275 O.co2     1 COA         0.3195
     27 O3A        -0.6886    5.3125    0.2679 O.3       1 COA         0.4672
     28 P2A        -1.1429    6.2040    1.5594 P.3       1 COA        -1.1062
     29 O4A        -2.6377    6.0612    1.7476 O.co2     1 COA         0.3195
     30 O5A        -0.1888    5.9134    2.6974 O.co2     1 COA         0.3195
     31 O6A        -0.8065    7.6957    0.9792 O.3       1 COA         0.1618
     32 CBP        -1.0090    9.5771   -0.5793 C.3       1 COA         0.0000
     33 CCP        -1.4652    8.1470   -0.1994 C.3       1 COA         0.1504
     34 CDP         0.5182    9.5632   -0.8289 C.3       1 COA         0.1179
     35 CEP        -1.6888   10.0085   -1.8940 C.3       1 COA         0.1179
     36 CAP        -1.3149   10.5877    0.5658 C.3       1 COA         0.0611
     37 OAP        -0.6287   10.1955    1.7518 O.3       1 COA        -0.2728
     38 C9P        -0.8916   12.0249    0.2699 C.2       1 COA         0.3561
     39 O9P         0.2422   12.4378    0.5067 O.2       1 COA        -0.2391
     40 N8P        -1.9050   12.7747   -0.3052 N.am      1 COA        -0.1909
     41 C7P        -1.7368   14.1547   -0.6986 C.3       1 COA         0.1160
     42 C6P        -1.2514   14.2219   -2.1393 C.3       1 COA         0.0286
     43 C5P        -2.2251   13.5770   -3.1093 C.2       1 COA         0.3561
     44 O5P        -3.4380   13.5422   -2.9207 O.2       1 COA        -0.2391
     45 N4P        -1.5707   13.0438   -4.2100 N.am      1 COA        -0.1909
     46 C3P        -2.2618   12.3703   -5.2853 C.3       1 COA         0.1160
     47 C2P        -2.4035   10.8756   -5.0489 C.3       1 COA         0.2607
     48 S1P        -3.2750   10.0412   -6.4097 S.3       1 COA        -0.3539
     49 H2A         3.1287    2.0232    1.3259 H         1 COA        -0.1369
     50 H61A        7.0472   -0.1189    0.2098 H         1 COA         0.2048
     51 H62A        6.7069   -0.9256   -1.2976 H         1 COA         0.2048
     52 H8A         2.8628   -1.2932   -4.1762 H         1 COA        -0.1292
     53 H1B         0.7316   -0.1451   -3.9582 H         1 COA        -0.0393
     54 H2B         0.0098    0.1350   -0.9357 H         1 COA        -0.0393
     55 H3B        -2.1756    1.0002   -1.6070 H         1 COA        -0.0393
     56 H4B        -1.0101    2.7804   -3.3646 H         1 COA        -0.0393
     57 H51A        0.1721    2.3946   -0.5677 H         1 COA        -0.0393
     58 H52A       -1.3279    3.2941   -0.9132 H         1 COA        -0.0393
     59 H121       -1.2324    7.4355   -0.9984 H         1 COA        -0.0393
     60 H122       -2.5440    8.1138   -0.0133 H         1 COA        -0.0393
     61 H131        0.8796   10.5616   -1.1013 H         1 COA        -0.0393
     62 H132        0.7886    8.8842   -1.6454 H         1 COA        -0.0393
     63 H133        1.0681    9.2399    0.0618 H         1 COA        -0.0393
     64 H141       -1.3855   11.0192   -2.1904 H         1 COA        -0.0393
     65 H142       -2.7797   10.0132   -1.7903 H         1 COA        -0.0393
     66 H143       -1.4280    9.3402   -2.7211 H         1 COA        -0.0393
     67 H10        -2.3880   10.5770    0.7950 H         1 COA        -0.0393
     68 HO1         0.3169   10.1957    1.5366 H         1 COA         0.2010
     69 HN8        -2.8042   12.3405   -0.4899 H         1 COA         0.0865
     70 H71        -2.6911   14.6793   -0.5876 H         1 COA        -0.0393
     71 H72        -1.0190   14.6354   -0.0263 H         1 COA        -0.0393
     72 H61        -0.2828   13.7155   -2.2344 H         1 COA        -0.0393
     73 H62        -1.1061   15.2673   -2.4393 H         1 COA        -0.0393
     74 HN4        -0.5600   13.1307   -4.2624 H         1 COA         0.0865
     75 H31        -3.2523   12.8289   -5.3453 H         1 COA        -0.0393
     76 H32        -1.7288   12.5943   -6.2128 H         1 COA        -0.0393
     77 H21        -1.4238   10.4032   -4.9234 H         1 COA        -0.0393
     78 H22        -2.9803   10.7075   -4.1341 H         1 COA        -0.0393
     79 HS1        -4.4119   10.7402   -6.2954 H         1 COA         0.1718
@<TRIPOS>BOND
     1    1    2 ar
     2    1    6 ar
     3    2    3 ar
     4    2   49 1
     5    3    4 ar
     6    4    5 ar
     7    4   10 ar
     8    5    6 ar
     9    5    8 ar
    10    6    7 1
    11    7   50 1
    12    7   51 1
    13    8    9 ar
    14    9   10 ar
    15    9   52 1
    16   10   11 1
    17   11   12 1
    18   11   21 1
    19   11   53 1
    20   12   13 1
    21   12   14 1
    22   12   54 1
    23   14   15 1
    24   14   20 1
    25   14   55 1
    26   15   16 1
    27   16   17 2
    28   16   18 1
    29   16   19 1
    30   20   21 1
    31   20   22 1
    32   20   56 1
    33   22   23 1
    34   22   57 1
    35   22   58 1
    36   23   24 1
    37   24   25 2
    38   24   26 1
    39   24   27 1
    40   27   28 1
    41   28   29 2
    42   28   30 1
    43   28   31 1
    44   31   33 1
    45   32   33 1
    46   32   34 1
    47   32   35 1
    48   32   36 1
    49   33   59 1
    50   33   60 1
    51   34   61 1
    52   34   62 1
    53   34   63 1
    54   35   64 1
    55   35   65 1
    56   35   66 1
    57   36   37 1
    58   36   38 1
    59   36   67 1
    60   37   68 1
    61   38   39 2
    62   38   40 am
    63   40   41 1
    64   40   69 1
    65   41   42 1
    66   41   70 1
    67   41   71 1
    68   42   43 1
    69   42   72 1
    70   42   73 1
    71   43   44 2
    72   43   45 am
    73   45   46 1
    74   45   74 1
    75   46   47 1
    76   46   75 1
    77   46   76 1
    78   47   48 1
    79   47   77 1
    80   47   78 1
    81   48   79 1
@<TRIPOS>SUBSTRUCTURE
     1 COA         1 GROUP 0 A     ****
@<TRIPOS>MOLECULE
[5-(6-aminopurin-9-yl)-2-[[[[3-hydroxy-2,2-dimethyl-4-oxo-4-[[3-oxo-3-(2-sulfanylethylamino)propyl]amino]butoxy]-oxido-phosphoryl]oxy-oxido-phosphoryl]oxymethyl]-4-oxido-tetrahydrofuran-3-yl] phosphate
   79    81     1     0     0
SMALL
USER_CHARGES

@<TRIPOS>ATOM
      1 N1A         6.1093    3.4221   -2.1706 N.ar      1 COA        -0.5260
      2 C2A         4.9028    3.1932   -1.5982 C.ar      1 COA         0.6629
      3 N3A         3.8250    2.5648   -2.1163 N.ar      1 COA        -0.5260
      4 C4A         4.0802    2.1492   -3.3659 C.ar      1 COA         0.5212
      5 C5A         5.2577    2.3095   -4.0788 C.ar      1 COA         0.0088
      6 C6A         6.2970    2.9741   -3.4353 C.ar      1 COA         0.5212
      7 N6A         7.5267    3.1813   -4.0834 N.pl3     1 COA        -0.6025
      8 N7A         5.1483    1.7539   -5.3288 N.2       1 COA        -0.4271
      9 C8A         3.9267    1.2647   -5.3749 C.ar      1 COA         0.5691
     10 N9A         3.2402    1.4796   -4.2093 N.pl3     1 COA        -0.5033
     11 C1B         1.8139    1.0528   -3.9225 C.3       1 COA         0.2693
     12 C2B         1.5441    0.0924   -2.7404 C.3       1 COA         0.2008
     13 O2B         1.6560   -1.1661   -3.1231 O.co2     1 COA        -0.1615
     14 C3B         0.0825    0.4469   -2.4241 C.3       1 COA         0.1111
     15 O3B        -0.8371   -0.0985   -3.3754 O.3       1 COA         0.1618
     16 P3B        -2.4169   -0.2494   -2.9382 P.3       1 COA        -1.1921
     17 O7A        -2.4022   -1.1842   -1.7323 O.co2     1 COA         0.3195
     18 O8A        -3.0660   -0.8511   -4.1810 O.co2     1 COA         0.3195
     19 O9A        -2.8748    1.1724   -2.6264 O.co2     1 COA         0.3195
     20 C4B         0.0646    1.9600   -2.6151 C.3       1 COA         0.1111
     21 O4B         1.0421    2.2460   -3.6341 O.3       1 COA        -0.1436
     22 C5B         0.4465    2.7364   -1.3618 C.3       1 COA         0.1504
     23 O5B         0.3986    4.1249   -1.6460 O.3       1 COA         0.1618
     24 P1A         0.7670    5.1936   -0.4641 P.3       1 COA        -1.1062
     25 O1A         1.1289    6.5260   -1.0837 O.co2     1 COA         0.3195
     26 O2A         1.6876    4.5161    0.5275 O.co2     1 COA         0.3195
     27 O3A        -0.6886    5.3125    0.2679 O.3       1 COA         0.4672
     28 P2A        -1.1429    6.2040    1.5594 P.3       1 COA        -1.1062
     29 O4A        -2.6377    6.0612    1.7476 O.co2     1 COA         0.3195
     30 O5A        -0.1888    5.9134    2.6974 O.co2     1 COA         0.3195
     31 O6A        -0.8065    7.6957    0.9792 O.3       1 COA         0.1618
     32 CBP        -1.0090    9.5771   -0.5793 C.3       1 COA         0.0000
     33 CCP        -1.4652    8.1470   -0.1994 C.3       1 COA         0.1504
     34 CDP         0.5182    9.5632   -0.8289 C.3       1 COA         0.1179
     35 CEP        -1.6888   10.0085   -1.8940 C.3       1 COA         0.1179
     36 CAP        -1.3149   10.5877    0.5658 C.3       1 COA         0.0611
     37 OAP        -0.8841   11.8921    0.1862 O.3       1 COA        -0.2728
     38 C9P        -2.7940   10.7032    0.9282 C.2       1 COA         0.3561
     39 O9P        -3.6891   10.4664    0.1190 O.2       1 COA        -0.2391
     40 N8P        -2.9952   11.0709    2.2489 N.am      1 COA        -0.1909
     41 C7P        -4.3082   11.2196    2.8331 C.3       1 COA         0.1160
     42 C6P        -4.7588    9.8929    3.4269 C.3       1 COA         0.0286
     43 C5P        -6.1362    9.9793    4.0596 C.2       1 COA         0.3561
     44 O5P        -6.8010   11.0115    4.0841 O.2       1 COA        -0.2391
     45 N4P        -6.5290    8.7614    4.5948 N.am      1 COA        -0.1909
     46 C3P        -7.7977    8.5669    5.2582 C.3       1 COA         0.1160
     47 C2P        -8.6600    7.5135    4.5820 C.3       1 COA         0.2607
     48 S1P        -9.0483    7.9424    2.8578 S.3       1 COA        -0.3539
     49 H2A         4.7878    3.5651   -0.5856 H         1 COA        -0.1369
     50 H61A        8.2460    3.7037   -3.6204 H         1 COA         0.2048
     51 H62A        7.6376    2.8871   -5.0353 H         1 COA         0.2048
     52 H8A         3.4866    0.7495   -6.2177 H         1 COA        -0.1292
     53 H1B         1.4348    0.6728   -4.9170 H         1 COA        -0.0393
     54 H2B         2.1376    0.4515   -1.8851 H         1 COA        -0.0393
     55 H3B        -0.2421    0.1333   -1.4258 H         1 COA        -0.0393
     56 H4B        -0.9063    2.3168   -2.9777 H         1 COA        -0.0393
     57 H51A        1.4605    2.4765   -1.0434 H         1 COA        -0.0393
     58 H52A       -0.2515    2.5189   -0.5478 H         1 COA        -0.0393
     59 H121       -1.2324    7.4355   -0.9984 H         1 COA        -0.0393
     60 H122       -2.5440    8.1138   -0.0133 H         1 COA        -0.0393
     61 H131        0.8796   10.5616   -1.1013 H         1 COA        -0.0393
     62 H132        0.7886    8.8842   -1.6454 H         1 COA        -0.0393
     63 H133        1.0681    9.2399    0.0618 H         1 COA        -0.0393
     64 H141       -1.3855   11.0192   -2.1904 H         1 COA        -0.0393
     65 H142       -2.7797   10.0132   -1.7903 H         1 COA        -0.0393
     66 H143       -1.4280    9.3402   -2.7211 H         1 COA        -0.0393
     67 H10        -0.7524   10.3112    1.4665 H         1 COA        -0.0393
     68 HO1        -1.3767   12.1229   -0.6167 H         1 COA         0.2010
     69 HN8        -2.1931   11.2196    2.8537 H         1 COA         0.0865
     70 H71        -4.2731   11.9958    3.6041 H         1 COA        -0.0393
     71 H72        -5.0090   11.5556    2.0622 H         1 COA        -0.0393
     72 H61        -4.0469    9.5622    4.1934 H         1 COA        -0.0393
     73 H62        -4.7842    9.1208    2.6478 H         1 COA        -0.0393
     74 HN4        -5.8961    7.9706    4.5169 H         1 COA         0.0865
     75 H31        -7.5631    8.2511    6.2781 H         1 COA        -0.0393
     76 H32        -8.2957    9.5383    5.3111 H         1 COA        -0.0393
     77 H21        -8.1672    6.5360    4.5935 H         1 COA        -0.0393
     78 H22        -9.6077    7.4216    5.1217 H         1 COA        -0.0393
     79 HS1        -7.7775    7.9861    2.4363 H         1 COA         0.1718
@<TRIPOS>BOND
     1    1    2 ar
     2    1    6 ar
     3    2    3 ar
     4    2   49 1
     5    3    4 ar
     6    4    5 ar
     7    4   10 ar
     8    5    6 ar
     9    5    8 ar
    10    6    7 1
    11    7   50 1
    12    7   51 1
    13    8    9 ar
    14    9   10 ar
    15    9   52 1
    16   10   11 1
    17   11   12 1
    18   11   21 1
    19   11   53 1
    20   12   13 1
    21   12   14 1
    22   12   54 1
    23   14   15 1
    24   14   20 1
    25   14   55 1
    26   15   16 1
    27   16   17 2
    28   16   18 1
    29   16   19 1
    30   20   21 1
    31   20   22 1
    32   20   56 1
    33   22   23 1
    34   22   57 1
    35   22   58 1
    36   23   24 1
    37   24   25 2
    38   24   26 1
    39   24   27 1
    40   27   28 1
    41   28   29 2
    42   28   30 1
    43   28   31 1
    44   31   33 1
    45   32   33 1
    46   32   34 1
    47   32   35 1
    48   32   36 1
    49   33   59 1
    50   33   60 1
    51   34   61 1
    52   34   62 1
    53   34   63 1
    54   35   64 1
    55   35   65 1
    56   35   66 1
    57   36   37 1
    58   36   38 1
    59   36   67 1
    60   37   68 1
    61   38   39 2
    62   38   40 am
    63   40   41 1
    64   40   69 1
    65   41   42 1
    66   41   70 1
    67   41   71 1
    68   42   43 1
    69   42   72 1
    70   42   73 1
    71   43   44 2
    72   43   45 am
    73   45   46 1
    74   45   74 1
    75   46   47 1
    76   46   75 1
    77   46   76 1
    78   47   48 1
    79   47   77 1
    80   47   78 1
    81   48   79 1
@<TRIPOS>SUBSTRUCTURE
     1 COA         1 GROUP 0 A     ****
@<TRIPOS>MOLECULE
[5-(6-aminopurin-9-yl)-2-[[[[3-hydroxy-2,2-dimethyl-4-oxo-4-[[3-oxo-3-(2-sulfanylethylamino)propyl]amino]butoxy]-oxido-phosphoryl]oxy-oxido-phosphoryl]oxymethyl]-4-oxido-tetrahydrofuran-3-yl] phosphate
   79    81     1     0     0
SMALL
USER_CHARGES

@<TRIPOS>ATOM
      1 N1A         6.3197    3.3711    0.1967 N.ar      1 COA        -0.5260
      2 C2A         5.0033    3.3256    0.5141 C.ar      1 COA         0.6629
      3 N3A         4.0730    2.4196    0.1418 N.ar      1 COA        -0.5260
      4 C4A         4.6208    1.4811   -0.6447 C.ar      1 COA         0.5212
      5 C5A         5.9423    1.3962   -1.0530 C.ar      1 COA         0.0088
      6 C6A         6.8050    2.3902   -0.6021 C.ar      1 COA         0.5212
      7 N6A         8.1621    2.3826   -0.9671 N.pl3     1 COA        -0.6025
      8 N7A         6.1335    0.2987   -1.8543 N.2       1 COA        -0.4271
      9 C8A         4.9500   -0.2731   -1.9316 C.ar      1 COA         0.5691
     10 N9A         4.0006    0.4065   -1.2155 N.pl3     1 COA        -0.5033
     11 C1B         2.5376    0.0288   -1.0907 C.3       1 COA         0.2693
     12 C2B         1.9579   -0.2640    0.3131 C.3       1 COA         0.2008
     13 O2B         2.1299   -1.5323    0.6368 O.co2     1 COA        -0.1615
     14 C3B         0.4729    0.0487    0.0699 C.3       1 COA         0.1111
     15 O3B        -0.1943   -0.9780   -0.6709 O.3       1 COA         0.1618
     16 P3B        -1.8364   -1.0586   -0.5907 P.3       1 COA        -1.1921
     17 O7A        -2.1459   -1.2889    0.8856 O.co2     1 COA         0.3195
     18 O8A        -2.1706   -2.2476   -1.4866 O.co2     1 COA         0.3195
     19 O9A        -2.3217    0.2823   -1.1335 O.co2     1 COA         0.3195
     20 C4B         0.5412    1.2713   -0.8394 C.3       1 COA         0.1111
     21 O4B         1.7485    1.1278   -1.6124 O.3       1 COA        -0.1436
     22 C5B         0.6184    2.5901   -0.0816 C.3       1 COA         0.1504
     23 O5B         0.6777    3.6562   -1.0149 O.3       1 COA         0.1618
     24 P1A         0.7670    5.1936   -0.4641 P.3       1 COA        -1.1062
     25 O1A         0.8194    6.1476   -1.6376 O.co2     1 COA         0.3195
     26 O2A         1.8029    5.2507    0.6375 O.co2     1 COA         0.3195
     27 O3A        -0.6886    5.3125    0.2679 O.3       1 COA         0.4672
     28 P2A        -1.1429    6.2040    1.5594 P.3       1 COA        -1.1062
     29 O4A        -2.6377    6.0612    1.7476 O.co2     1 COA         0.3195
     30 O5A        -0.1888    5.9134    2.6974 O.co2     1 COA         0.3195
     31 O6A        -0.8065    7.6957    0.9792 O.3       1 COA         0.1618
     32 CBP        -1.0463    9.4480   -0.7182 C.3       1 COA         0.0000
     33 CCP        -1.7297    8.3208    0.0940 C.3       1 COA         0.1504
     34 CDP         0.1097    8.8359   -1.5452 C.3       1 COA         0.1179
     35 CEP        -2.0542   10.0578   -1.7127 C.3       1 COA         0.1179
     36 CAP        -0.4581   10.5415    0.2222 C.3       1 COA         0.0611
     37 OAP         0.1628   11.5628   -0.5541 O.3       1 COA        -0.2728
     38 C9P        -1.4903   11.2331    1.1103 C.2       1 COA         0.3561
     39 O9P        -2.1297   12.2135    0.7334 O.2       1 COA        -0.2391
     40 N8P        -1.6312   10.6209    2.3453 N.am      1 COA        -0.1909
     41 C7P        -2.5657   11.0776    3.3480 C.3       1 COA         0.1160
     42 C6P        -3.5540    9.9667    3.6721 C.3       1 COA         0.0286
     43 C5P        -4.5680   10.3819    4.7230 C.2       1 COA         0.3561
     44 O5P        -4.5772   11.4927    5.2463 O.2       1 COA        -0.2391
     45 N4P        -5.4594    9.3570    5.0047 N.am      1 COA        -0.1909
     46 C3P        -6.5259    9.4862    5.9708 C.3       1 COA         0.1160
     47 C2P        -6.1049    9.0716    7.3712 C.3       1 COA         0.2607
     48 S1P        -7.4567    9.2393    8.5763 S.3       1 COA        -0.3539
     49 H2A         4.6492    4.1260    1.1552 H         1 COA        -0.1369
     50 H61A        8.7564    3.1335   -0.6708 H         1 COA         0.2048
     51 H62A        8.4991    1.6788   -1.5963 H         1 COA         0.2048
     52 H8A         4.7208   -1.1726   -2.4865 H         1 COA        -0.1292
     53 H1B         2.4085   -0.8200   -1.8256 H         1 COA        -0.0393
     54 H2B         2.3286    0.5212    0.9904 H         1 COA        -0.0393
     55 H3B        -0.0977    0.2245    0.9885 H         1 COA        -0.0393
     56 H4B        -0.2996    1.3083   -1.5416 H         1 COA        -0.0393
     57 H51A        1.5144    2.6204    0.5455 H         1 COA        -0.0393
     58 H52A       -0.2654    2.7227    0.5494 H         1 COA        -0.0393
     59 H121       -2.1262    7.5446   -0.5686 H         1 COA        -0.0393
     60 H122       -2.5562    8.7139    0.6956 H         1 COA        -0.0393
     61 H131        0.6194    9.6060   -2.1356 H         1 COA        -0.0393
     62 H132       -0.2524    8.0744   -2.2449 H         1 COA        -0.0393
     63 H133        0.8566    8.3597   -0.9005 H         1 COA        -0.0393
     64 H141       -1.5995   10.8607   -2.3043 H         1 COA        -0.0393
     65 H142       -2.9149   10.4873   -1.1878 H         1 COA        -0.0393
     66 H143       -2.4255    9.3094   -2.4205 H         1 COA        -0.0393
     67 H10         0.3192   10.1040    0.8613 H         1 COA        -0.0393
     68 HO1        -0.5280   11.9349   -1.1241 H         1 COA         0.2010
     69 HN8        -1.0789    9.7962    2.5598 H         1 COA         0.0865
     70 H71        -2.0136   11.3770    4.2445 H         1 COA        -0.0393
     71 H72        -3.0891   11.9636    2.9749 H         1 COA        -0.0393
     72 H61        -3.0191    9.0819    4.0390 H         1 COA        -0.0393
     73 H62        -4.0971    9.6696    2.7662 H         1 COA        -0.0393
     74 HN4        -5.3577    8.4760    4.5094 H         1 COA         0.0865
     75 H31        -6.8119   10.5413    5.9697 H         1 COA        -0.0393
     76 H32        -7.3761    8.9051    5.6048 H         1 COA        -0.0393
     77 H21        -5.7548    8.0344    7.3851 H         1 COA        -0.0393
     78 H22        -5.2822    9.7114    7.7054 H         1 COA        -0.0393
     79 HS1        -7.6308   10.5566    8.4067 H         1 COA         0.1718
@<TRIPOS>BOND
     1    1    2 ar
     2    1    6 ar
     3    2    3 ar
     4    2   49 1
     5    3    4 ar
     6    4    5 ar
     7    4   10 ar
     8    5    6 ar
     9    5    8 ar
    10    6    7 1
    11    7   50 1
    12    7   51 1
    13    8    9 ar
    14    9   10 ar
    15    9   52 1
    16   10   11 1
    17   11   12 1
    18   11   21 1
    19   11   53 1
    20   12   13 1
    21   12   14 1
    22   12   54 1
    23   14   15 1
    24   14   20 1
    25   14   55 1
    26   15   16 1
    27   16   17 2
    28   16   18 1
    29   16   19 1
    30   20   21 1
    31   20   22 1
    32   20   56 1
    33   22   23 1
    34   22   57 1
    35   22   58 1
    36   23   24 1
    37   24   25 2
    38   24   26 1
    39   24   27 1
    40   27   28 1
    41   28   29 2
    42   28   30 1
    43   28   31 1
    44   31   33 1
    45   32   33 1
    46   32   34 1
    47   32   35 1
    48   32   36 1
    49   33   59 1
    50   33   60 1
    51   34   61 1
    52   34   62 1
    53   34   63 1
    54   35   64 1
    55   35   65 1
    56   35   66 1
    57   36   37 1
    58   36   38 1
    59   36   67 1
    60   37   68 1
    61   38   39 2
    62   38   40 am
    63   40   41 1
    64   40   69 1
    65   41   42 1
    66   41   70 1
    67   41   71 1
    68   42   43 1
    69   42   72 1
    70   42   73 1
    71   43   44 2
    72   43   45 am
    73   45   46 1
    74   45   74 1
    75   46   47 1
    76   46   75 1
    77   46   76 1
    78   47   48 1
    79   47   77 1
    80   47   78 1
    81   48   79 1
@<TRIPOS>SUBSTRUCTURE
     1 COA         1 GROUP 0 A     ****
@<TRIPOS>MOLECULE
[5-(6-aminopurin-9-yl)-2-[[[[3-hydroxy-2,2-dimethyl-4-oxo-4-[[3-oxo-3-(2-sulfanylethylamino)propyl]amino]butoxy]-oxido-phosphoryl]oxy-oxido-phosphoryl]oxymethyl]-4-oxido-tetrahydrofuran-3-yl] phosphate
   79    81     1     0     0
SMALL
USER_CHARGES

@<TRIPOS>ATOM
      1 N1A         6.3197    3.3711    0.1967 N.ar      1 COA        -0.5260
      2 C2A         5.0033    3.3256    0.5141 C.ar      1 COA         0.6629
      3 N3A         4.0730    2.4196    0.1418 N.ar      1 COA        -0.5260
      4 C4A         4.6208    1.4811   -0.6447 C.ar      1 COA         0.5212
      5 C5A         5.9423    1.3962   -1.0530 C.ar      1 COA         0.0088
      6 C6A         6.8050    2.3902   -0.6021 C.ar      1 COA         0.5212
      7 N6A         8.1621    2.3826   -0.9671 N.pl3     1 COA        -0.6025
      8 N7A         6.1335    0.2987   -1.8543 N.2       1 COA        -0.4271
      9 C8A         4.9500   -0.2731   -1.9316 C.ar      1 COA         0.5691
     10 N9A         4.0006    0.4065   -1.2155 N.pl3     1 COA        -0.5033
     11 C1B         2.5376    0.0288   -1.0907 C.3       1 COA         0.2693
     12 C2B         1.9579   -0.2640    0.3131 C.3       1 COA         0.2008
     13 O2B         2.1299   -1.5323    0.6368 O.co2     1 COA        -0.1615
     14 C3B         0.4729    0.0487    0.0699 C.3       1 COA         0.1111
     15 O3B        -0.1943   -0.9780   -0.6709 O.3       1 COA         0.1618
     16 P3B        -1.8364   -1.0586   -0.5907 P.3       1 COA        -1.1921
     17 O7A        -2.1459   -1.2889    0.8856 O.co2     1 COA         0.3195
     18 O8A        -2.1706   -2.2476   -1.4866 O.co2     1 COA         0.3195
     19 O9A        -2.3217    0.2823   -1.1335 O.co2     1 COA         0.3195
     20 C4B         0.5412    1.2713   -0.8394 C.3       1 COA         0.1111
     21 O4B         1.7485    1.1278   -1.6124 O.3       1 COA        -0.1436
     22 C5B         0.6184    2.5901   -0.0816 C.3       1 COA         0.1504
     23 O5B         0.6777    3.6562   -1.0149 O.3       1 COA         0.1618
     24 P1A         0.7670    5.1936   -0.4641 P.3       1 COA        -1.1062
     25 O1A         0.8194    6.1476   -1.6376 O.co2     1 COA         0.3195
     26 O2A         1.8029    5.2507    0.6375 O.co2     1 COA         0.3195
     27 O3A        -0.6886    5.3125    0.2679 O.3       1 COA         0.4672
     28 P2A        -1.1429    6.2040    1.5594 P.3       1 COA        -1.1062
     29 O4A        -2.6377    6.0612    1.7476 O.co2     1 COA         0.3195
     30 O5A        -0.1888    5.9134    2.6974 O.co2     1 COA         0.3195
     31 O6A        -0.8065    7.6957    0.9792 O.3       1 COA         0.1618
     32 CBP        -1.0090    9.5771   -0.5793 C.3       1 COA         0.0000
     33 CCP        -1.4652    8.1470   -0.1994 C.3       1 COA         0.1504
     34 CDP         0.5182    9.5632   -0.8289 C.3       1 COA         0.1179
     35 CEP        -1.6888   10.0085   -1.8940 C.3       1 COA         0.1179
     36 CAP        -1.3149   10.5877    0.5658 C.3       1 COA         0.0611
     37 OAP        -0.3519   11.6382    0.5524 O.3       1 COA        -0.2728
     38 C9P        -2.6876   11.2507    0.4734 C.2       1 COA         0.3561
     39 O9P        -2.8806   12.2731   -0.1822 O.2       1 COA        -0.2391
     40 N8P        -3.6636   10.5632    1.1768 N.am      1 COA        -0.1909
     41 C7P        -5.0458   10.9816    1.2180 C.3       1 COA         0.1160
     42 C6P        -5.4548   11.2604    2.6570 C.3       1 COA         0.0286
     43 C5P        -6.9015   11.7061    2.7721 C.2       1 COA         0.3561
     44 O5P        -7.6470   11.8258    1.8037 O.2       1 COA        -0.2391
     45 N4P        -7.2551   11.9553    4.0901 N.am      1 COA        -0.1909
     46 C3P        -8.5750   12.3950    4.4801 C.3       1 COA         0.1160
     47 C2P        -8.7106   13.9088    4.4946 C.3       1 COA         0.2607
     48 S1P       -10.3763   14.4478    4.9871 S.3       1 COA        -0.3539
     49 H2A         4.6492    4.1260    1.1552 H         1 COA        -0.1369
     50 H61A        8.7564    3.1335   -0.6708 H         1 COA         0.2048
     51 H62A        8.4991    1.6788   -1.5963 H         1 COA         0.2048
     52 H8A         4.7208   -1.1726   -2.4865 H         1 COA        -0.1292
     53 H1B         2.4085   -0.8200   -1.8256 H         1 COA        -0.0393
     54 H2B         2.3286    0.5212    0.9904 H         1 COA        -0.0393
     55 H3B        -0.0977    0.2245    0.9885 H         1 COA        -0.0393
     56 H4B        -0.2996    1.3083   -1.5416 H         1 COA        -0.0393
     57 H51A        1.5144    2.6204    0.5455 H         1 COA        -0.0393
     58 H52A       -0.2654    2.7227    0.5494 H         1 COA        -0.0393
     59 H121       -1.2324    7.4355   -0.9984 H         1 COA        -0.0393
     60 H122       -2.5440    8.1138   -0.0133 H         1 COA        -0.0393
     61 H131        0.8796   10.5616   -1.1013 H         1 COA        -0.0393
     62 H132        0.7886    8.8842   -1.6454 H         1 COA        -0.0393
     63 H133        1.0681    9.2399    0.0618 H         1 COA        -0.0393
     64 H141       -1.3855   11.0192   -2.1904 H         1 COA        -0.0393
     65 H142       -2.7797   10.0132   -1.7903 H         1 COA        -0.0393
     66 H143       -1.4280    9.3402   -2.7211 H         1 COA        -0.0393
     67 H10        -1.2314   10.0854    1.5378 H         1 COA        -0.0393
     68 HO1        -0.4241   12.0681   -0.3139 H         1 COA         0.2010
     69 HN8        -3.4169    9.7096    1.6684 H         1 COA         0.0865
     70 H71        -5.1691   11.8772    0.6009 H         1 COA        -0.0393
     71 H72        -5.6724   10.1962    0.7836 H         1 COA        -0.0393
     72 H61        -4.8170   12.0440    3.0847 H         1 COA        -0.0393
     73 H62        -5.3212   10.3589    3.2680 H         1 COA        -0.0393
     74 HN4        -6.5546   11.8226    4.8136 H         1 COA         0.0865
     75 H31        -9.2665   11.9705    3.7476 H         1 COA        -0.0393
     76 H32        -8.7979   11.9499    5.4531 H         1 COA        -0.0393
     77 H21        -7.9839   14.3618    5.1767 H         1 COA        -0.0393
     78 H22        -8.5204   14.2982    3.4896 H         1 COA        -0.0393
     79 HS1       -10.3564   13.8720    6.1964 H         1 COA         0.1718
@<TRIPOS>BOND
     1    1    2 ar
     2    1    6 ar
     3    2    3 ar
     4    2   49 1
     5    3    4 ar
     6    4    5 ar
     7    4   10 ar
     8    5    6 ar
     9    5    8 ar
    10    6    7 1
    11    7   50 1
    12    7   51 1
    13    8    9 ar
    14    9   10 ar
    15    9   52 1
    16   10   11 1
    17   11   12 1
    18   11   21 1
    19   11   53 1
    20   12   13 1
    21   12   14 1
    22   12   54 1
    23   14   15 1
    24   14   20 1
    25   14   55 1
    26   15   16 1
    27   16   17 2
    28   16   18 1
    29   16   19 1
    30   20   21 1
    31   20   22 1
    32   20   56 1
    33   22   23 1
    34   22   57 1
    35   22   58 1
    36   23   24 1
    37   24   25 2
    38   24   26 1
    39   24   27 1
    40   27   28 1
    41   28   29 2
    42   28   30 1
    43   28   31 1
    44   31   33 1
    45   32   33 1
    46   32   34 1
    47   32   35 1
    48   32   36 1
    49   33   59 1
    50   33   60 1
    51   34   61 1
    52   34   62 1
    53   34   63 1
    54   35   64 1
    55   35   65 1
    56   35   66 1
    57   36   37 1
    58   36   38 1
    59   36   67 1
    60   37   68 1
    61   38   39 2
    62   38   40 am
    63   40   41 1
    64   40   69 1
    65   41   42 1
    66   41   70 1
    67   41   71 1
    68   42   43 1
    69   42   72 1
    70   42   73 1
    71   43   44 2
    72   43   45 am
    73   45   46 1
    74   45   74 1
    75   46   47 1
    76   46   75 1
    77   46   76 1
    78   47   48 1
    79   47   77 1
    80   47   78 1
    81   48   79 1
@<TRIPOS>SUBSTRUCTURE
     1 COA         1 GROUP 0 A     ****
@<TRIPOS>MOLECULE
[5-(6-aminopurin-9-yl)-2-[[[[3-hydroxy-2,2-dimethyl-4-oxo-4-[[3-oxo-3-(2-sulfanylethylamino)propyl]amino]butoxy]-oxido-phosphoryl]oxy-oxido-phosphoryl]oxymethyl]-4-oxido-tetrahydrofuran-3-yl] phosphate
   79    81     1     0     0
SMALL
USER_CHARGES

@<TRIPOS>ATOM
      1 N1A         6.1093    3.4221   -2.1706 N.ar      1 COA        -0.5260
      2 C2A         4.9028    3.1932   -1.5982 C.ar      1 COA         0.6629
      3 N3A         3.8250    2.5648   -2.1163 N.ar      1 COA        -0.5260
      4 C4A         4.0802    2.1492   -3.3659 C.ar      1 COA         0.5212
      5 C5A         5.2577    2.3095   -4.0788 C.ar      1 COA         0.0088
      6 C6A         6.2970    2.9741   -3.4353 C.ar      1 COA         0.5212
      7 N6A         7.5267    3.1813   -4.0834 N.pl3     1 COA        -0.6025
      8 N7A         5.1483    1.7539   -5.3288 N.2       1 COA        -0.4271
      9 C8A         3.9267    1.2647   -5.3749 C.ar      1 COA         0.5691
     10 N9A         3.2402    1.4796   -4.2093 N.pl3     1 COA        -0.5033
     11 C1B         1.8139    1.0528   -3.9225 C.3       1 COA         0.2693
     12 C2B         1.5441    0.0924   -2.7404 C.3       1 COA         0.2008
     13 O2B         1.6560   -1.1661   -3.1231 O.co2     1 COA        -0.1615
     14 C3B         0.0825    0.4469   -2.4241 C.3       1 COA         0.1111
     15 O3B        -0.8371   -0.0985   -3.3754 O.3       1 COA         0.1618
     16 P3B        -2.4169   -0.2494   -2.9382 P.3       1 COA        -1.1921
     17 O7A        -2.4022   -1.1842   -1.7323 O.co2     1 COA         0.3195
     18 O8A        -3.0660   -0.8511   -4.1810 O.co2     1 COA         0.3195
     19 O9A        -2.8748    1.1724   -2.6264 O.co2     1 COA         0.3195
     20 C4B         0.0646    1.9600   -2.6151 C.3       1 COA         0.1111
     21 O4B         1.0421    2.2460   -3.6341 O.3       1 COA        -0.1436
     22 C5B         0.4465    2.7364   -1.3618 C.3       1 COA         0.1504
     23 O5B         0.3986    4.1249   -1.6460 O.3       1 COA         0.1618
     24 P1A         0.7670    5.1936   -0.4641 P.3       1 COA        -1.1062
     25 O1A         1.1289    6.5260   -1.0837 O.co2     1 COA         0.3195
     26 O2A         1.6876    4.5161    0.5275 O.co2     1 COA         0.3195
     27 O3A        -0.6886    5.3125    0.2679 O.3       1 COA         0.4672
     28 P2A        -1.1429    6.2040    1.5594 P.3       1 COA        -1.1062
     29 O4A        -2.6377    6.0612    1.7476 O.co2     1 COA         0.3195
     30 O5A        -0.1888    5.9134    2.6974 O.co2     1 COA         0.3195
     31 O6A        -0.8065    7.6957    0.9792 O.3       1 COA         0.1618
     32 CBP        -1.0090    9.5771   -0.5793 C.3       1 COA         0.0000
     33 CCP        -1.4652    8.1470   -0.1994 C.3       1 COA         0.1504
     34 CDP         0.5182    9.5632   -0.8289 C.3       1 COA         0.1179
     35 CEP        -1.6888   10.0085   -1.8940 C.3       1 COA         0.1179
     36 CAP        -1.3149   10.5877    0.5658 C.3       1 COA         0.0611
     37 OAP        -0.8841   11.8921    0.1862 O.3       1 COA        -0.2728
     38 C9P        -2.7940   10.7032    0.9282 C.2       1 COA         0.3561
     39 O9P        -3.6570   10.0067    0.3969 O.2       1 COA        -0.2391
     40 N8P        -3.0315   11.6427    1.9186 N.am      1 COA        -0.1909
     41 C7P        -4.3486   11.9130    2.4473 C.3       1 COA         0.1160
     42 C6P        -5.0118   13.0149    1.6339 C.3       1 COA         0.0286
     43 C5P        -4.2232   14.3118    1.6641 C.2       1 COA         0.3561
     44 O5P        -3.1700   14.4439    2.2816 O.2       1 COA        -0.2391
     45 N4P        -4.8430   15.3032    0.9177 N.am      1 COA        -0.1909
     46 C3P        -4.3039   16.6366    0.7802 C.3       1 COA         0.1160
     47 C2P        -4.8002   17.5861    1.8584 C.3       1 COA         0.2607
     48 S1P        -4.1139   19.2601    1.6731 S.3       1 COA        -0.3539
     49 H2A         4.7878    3.5651   -0.5856 H         1 COA        -0.1369
     50 H61A        8.2460    3.7037   -3.6204 H         1 COA         0.2048
     51 H62A        7.6376    2.8871   -5.0353 H         1 COA         0.2048
     52 H8A         3.4866    0.7495   -6.2177 H         1 COA        -0.1292
     53 H1B         1.4348    0.6728   -4.9170 H         1 COA        -0.0393
     54 H2B         2.1376    0.4515   -1.8851 H         1 COA        -0.0393
     55 H3B        -0.2421    0.1333   -1.4258 H         1 COA        -0.0393
     56 H4B        -0.9063    2.3168   -2.9777 H         1 COA        -0.0393
     57 H51A        1.4605    2.4765   -1.0434 H         1 COA        -0.0393
     58 H52A       -0.2515    2.5189   -0.5478 H         1 COA        -0.0393
     59 H121       -1.2324    7.4355   -0.9984 H         1 COA        -0.0393
     60 H122       -2.5440    8.1138   -0.0133 H         1 COA        -0.0393
     61 H131        0.8796   10.5616   -1.1013 H         1 COA        -0.0393
     62 H132        0.7886    8.8842   -1.6454 H         1 COA        -0.0393
     63 H133        1.0681    9.2399    0.0618 H         1 COA        -0.0393
     64 H141       -1.3855   11.0192   -2.1904 H         1 COA        -0.0393
     65 H142       -2.7797   10.0132   -1.7903 H         1 COA        -0.0393
     66 H143       -1.4280    9.3402   -2.7211 H         1 COA        -0.0393
     67 H10        -0.7524   10.3112    1.4665 H         1 COA        -0.0393
     68 HO1        -1.3767   12.1229   -0.6167 H         1 COA         0.2010
     69 HN8        -2.2509   12.1532    2.3202 H         1 COA         0.0865
     70 H71        -4.9450   10.9957    2.4135 H         1 COA        -0.0393
     71 H72        -4.2610   12.2077    3.4979 H         1 COA        -0.0393
     72 H61        -6.0190   13.2142    2.0205 H         1 COA        -0.0393
     73 H62        -5.1181   12.6993    0.5884 H         1 COA        -0.0393
     74 HN4        -5.7152   15.0817    0.4465 H         1 COA         0.0865
     75 H31        -3.2178   16.5351    0.8509 H         1 COA        -0.0393
     76 H32        -4.5459   16.9893   -0.2256 H         1 COA        -0.0393
     77 H21        -5.8928   17.6563    1.8474 H         1 COA        -0.0393
     78 H22        -4.4947   17.2099    2.8397 H         1 COA        -0.0393
     79 HS1        -2.8298   18.8970    1.7892 H         1 COA         0.1718
@<TRIPOS>BOND
     1    1    2 ar
     2    1    6 ar
     3    2    3 ar
     4    2   49 1
     5    3    4 ar
     6    4    5 ar
     7    4   10 ar
     8    5    6 ar
     9    5    8 ar
    10    6    7 1
    11    7   50 1
    12    7   51 1
    13    8    9 ar
    14    9   10 ar
    15    9   52 1
    16   10   11 1
    17   11   12 1
    18   11   21 1
    19   11   53 1
    20   12   13 1
    21   12   14 1
    22   12   54 1
    23   14   15 1
    24   14   20 1
    25   14   55 1
    26   15   16 1
    27   16   17 2
    28   16   18 1
    29   16   19 1
    30   20   21 1
    31   20   22 1
    32   20   56 1
    33   22   23 1
    34   22   57 1
    35   22   58 1
    36   23   24 1
    37   24   25 2
    38   24   26 1
    39   24   27 1
    40   27   28 1
    41   28   29 2
    42   28   30 1
    43   28   31 1
    44   31   33 1
    45   32   33 1
    46   32   34 1
    47   32   35 1
    48   32   36 1
    49   33   59 1
    50   33   60 1
    51   34   61 1
    52   34   62 1
    53   34   63 1
    54   35   64 1
    55   35   65 1
    56   35   66 1
    57   36   37 1
    58   36   38 1
    59   36   67 1
    60   37   68 1
    61   38   39 2
    62   38   40 am
    63   40   41 1
    64   40   69 1
    65   41   42 1
    66   41   70 1
    67   41   71 1
    68   42   43 1
    69   42   72 1
    70   42   73 1
    71   43   44 2
    72   43   45 am
    73   45   46 1
    74   45   74 1
    75   46   47 1
    76   46   75 1
    77   46   76 1
    78   47   48 1
    79   47   77 1
    80   47   78 1
    81   48   79 1
@<TRIPOS>SUBSTRUCTURE
     1 COA         1 GROUP 0 A     ****
@<TRIPOS>MOLECULE
[5-(6-aminopurin-9-yl)-2-[[[[3-hydroxy-2,2-dimethyl-4-oxo-4-[[3-oxo-3-(2-sulfanylethylamino)propyl]amino]butoxy]-oxido-phosphoryl]oxy-oxido-phosphoryl]oxymethyl]-4-oxido-tetrahydrofuran-3-yl] phosphate
   79    81     1     0     0
SMALL
USER_CHARGES

@<TRIPOS>ATOM
      1 N1A         4.6908    0.9263    0.5284 N.ar      1 COA        -0.5260
      2 C2A         3.4193    1.3931    0.4919 C.ar      1 COA         0.6629
      3 N3A         2.4653    1.1803   -0.4405 N.ar      1 COA        -0.5260
      4 C4A         2.9338    0.3916   -1.4192 C.ar      1 COA         0.5212
      5 C5A         4.2020   -0.1580   -1.5185 C.ar      1 COA         0.0088
      6 C6A         5.0963    0.1348   -0.4937 C.ar      1 COA         0.5212
      7 N6A         6.4038   -0.3801   -0.5131 N.pl3     1 COA        -0.6025
      8 N7A         4.3170   -0.9111   -2.6598 N.2       1 COA        -0.4271
      9 C8A         3.1403   -0.8212   -3.2436 C.ar      1 COA         0.5691
     10 N9A         2.2683   -0.0422   -2.5302 N.pl3     1 COA        -0.5033
     11 C1B         0.8363    0.2748   -2.9142 C.3       1 COA         0.2693
     12 C2B        -0.3043   -0.1391   -1.9549 C.3       1 COA         0.2008
     13 O2B        -0.6991   -1.3747   -2.2004 O.co2     1 COA        -0.1615
     14 C3B        -1.3853    0.8773   -2.3558 C.3       1 COA         0.1111
     15 O3B        -2.0094    0.5576   -3.6033 O.3       1 COA         0.1618
     16 P3B        -3.4806    1.2180   -3.9334 P.3       1 COA        -1.1921
     17 O7A        -4.3962    0.7100   -2.8235 O.co2     1 COA         0.3195
     18 O8A        -3.8112    0.6588   -5.3140 O.co2     1 COA         0.3195
     19 O9A        -3.2466    2.7257   -3.9151 O.co2     1 COA         0.3195
     20 C4B        -0.5713    2.1464   -2.5855 C.3       1 COA         0.1111
     21 O4B         0.7211    1.7136   -3.0526 O.3       1 COA        -0.1436
     22 C5B        -0.3655    2.9745   -1.3239 C.3       1 COA         0.1504
     23 O5B         0.3986    4.1249   -1.6460 O.3       1 COA         0.1618
     24 P1A         0.7670    5.1936   -0.4641 P.3       1 COA        -1.1062
     25 O1A         1.1289    6.5260   -1.0837 O.co2     1 COA         0.3195
     26 O2A         1.6876    4.5161    0.5275 O.co2     1 COA         0.3195
     27 O3A        -0.6886    5.3125    0.2679 O.3       1 COA         0.4672
     28 P2A        -1.1429    6.2040    1.5594 P.3       1 COA        -1.1062
     29 O4A        -2.6377    6.0612    1.7476 O.co2     1 COA         0.3195
     30 O5A        -0.1888    5.9134    2.6974 O.co2     1 COA         0.3195
     31 O6A        -0.8065    7.6957    0.9792 O.3       1 COA         0.1618
     32 CBP        -1.0090    9.5771   -0.5793 C.3       1 COA         0.0000
     33 CCP        -1.4652    8.1470   -0.1994 C.3       1 COA         0.1504
     34 CDP         0.5182    9.5632   -0.8289 C.3       1 COA         0.1179
     35 CEP        -1.6888   10.0085   -1.8940 C.3       1 COA         0.1179
     36 CAP        -1.3149   10.5877    0.5658 C.3       1 COA         0.0611
     37 OAP        -0.8841   11.8921    0.1862 O.3       1 COA        -0.2728
     38 C9P        -2.7940   10.7032    0.9282 C.2       1 COA         0.3561
     39 O9P        -3.6570   10.0067    0.3969 O.2       1 COA        -0.2391
     40 N8P        -3.0315   11.6427    1.9186 N.am      1 COA        -0.1909
     41 C7P        -4.3486   11.9130    2.4473 C.3       1 COA         0.1160
     42 C6P        -4.6208   11.0029    3.6363 C.3       1 COA         0.0286
     43 C5P        -3.6187   11.2018    4.7593 C.2       1 COA         0.3561
     44 O5P        -2.6952   12.0090    4.7011 O.2       1 COA        -0.2391
     45 N4P        -3.8831   10.3643    5.8331 N.am      1 COA        -0.1909
     46 C3P        -3.0800   10.3484    7.0340 C.3       1 COA         0.1160
     47 C2P        -3.5767   11.3252    8.0872 C.3       1 COA         0.2607
     48 S1P        -2.5567   11.2945    9.5927 S.3       1 COA        -0.3539
     49 H2A         3.1287    2.0232    1.3259 H         1 COA        -0.1369
     50 H61A        7.0472   -0.1189    0.2098 H         1 COA         0.2048
     51 H62A        6.7069   -0.9256   -1.2976 H         1 COA         0.2048
     52 H8A         2.8628   -1.2932   -4.1762 H         1 COA        -0.1292
     53 H1B         0.7316   -0.1451   -3.9582 H         1 COA        -0.0393
     54 H2B         0.0098    0.1350   -0.9357 H         1 COA        -0.0393
     55 H3B        -2.1756    1.0002   -1.6070 H         1 COA        -0.0393
     56 H4B        -1.0101    2.7804   -3.3646 H         1 COA        -0.0393
     57 H51A        0.1721    2.3946   -0.5677 H         1 COA        -0.0393
     58 H52A       -1.3279    3.2941   -0.9132 H         1 COA        -0.0393
     59 H121       -1.2324    7.4355   -0.9984 H         1 COA        -0.0393
     60 H122       -2.5440    8.1138   -0.0133 H         1 COA        -0.0393
     61 H131        0.8796   10.5616   -1.1013 H         1 COA        -0.0393
     62 H132        0.7886    8.8842   -1.6454 H         1 COA        -0.0393
     63 H133        1.0681    9.2399    0.0618 H         1 COA        -0.0393
     64 H141       -1.3855   11.0192   -2.1904 H         1 COA        -0.0393
     65 H142       -2.7797   10.0132   -1.7903 H         1 COA        -0.0393
     66 H143       -1.4280    9.3402   -2.7211 H         1 COA        -0.0393
     67 H10        -0.7524   10.3112    1.4665 H         1 COA        -0.0393
     68 HO1        -1.3767   12.1229   -0.6167 H         1 COA         0.2010
     69 HN8        -2.2509   12.1532    2.3202 H         1 COA         0.0865
     70 H71        -4.4081   12.9648    2.7445 H         1 COA        -0.0393
     71 H72        -5.0921   11.7528    1.6601 H         1 COA        -0.0393
     72 H61        -4.5839    9.9523    3.3226 H         1 COA        -0.0393
     73 H62        -5.6263   11.1919    4.0328 H         1 COA        -0.0393
     74 HN4        -4.6772    9.7338    5.7723 H         1 COA         0.0865
     75 H31        -3.1341    9.3284    7.4234 H         1 COA        -0.0393
     76 H32        -2.0450   10.5446    6.7424 H         1 COA        -0.0393
     77 H21        -3.5902   12.3486    7.6985 H         1 COA        -0.0393
     78 H22        -4.5985   11.0583    8.3742 H         1 COA        -0.0393
     79 HS1        -1.4124   11.6469    8.9920 H         1 COA         0.1718
@<TRIPOS>BOND
     1    1    2 ar
     2    1    6 ar
     3    2    3 ar
     4    2   49 1
     5    3    4 ar
     6    4    5 ar
     7    4   10 ar
     8    5    6 ar
     9    5    8 ar
    10    6    7 1
    11    7   50 1
    12    7   51 1
    13    8    9 ar
    14    9   10 ar
    15    9   52 1
    16   10   11 1
    17   11   12 1
    18   11   21 1
    19   11   53 1
    20   12   13 1
    21   12   14 1
    22   12   54 1
    23   14   15 1
    24   14   20 1
    25   14   55 1
    26   15   16 1
    27   16   17 2
    28   16   18 1
    29   16   19 1
    30   20   21 1
    31   20   22 1
    32   20   56 1
    33   22   23 1
    34   22   57 1
    35   22   58 1
    36   23   24 1
    37   24   25 2
    38   24   26 1
    39   24   27 1
    40   27   28 1
    41   28   29 2
    42   28   30 1
    43   28   31 1
    44   31   33 1
    45   32   33 1
    46   32   34 1
    47   32   35 1
    48   32   36 1
    49   33   59 1
    50   33   60 1
    51   34   61 1
    52   34   62 1
    53   34   63 1
    54   35   64 1
    55   35   65 1
    56   35   66 1
    57   36   37 1
    58   36   38 1
    59   36   67 1
    60   37   68 1
    61   38   39 2
    62   38   40 am
    63   40   41 1
    64   40   69 1
    65   41   42 1
    66   41   70 1
    67   41   71 1
    68   42   43 1
    69   42   72 1
    70   42   73 1
    71   43   44 2
    72   43   45 am
    73   45   46 1
    74   45   74 1
    75   46   47 1
    76   46   75 1
    77   46   76 1
    78   47   48 1
    79   47   77 1
    80   47   78 1
    81   48   79 1
@<TRIPOS>SUBSTRUCTURE
     1 COA         1 GROUP 0 A     ****
@<TRIPOS>MOLECULE
[5-(6-aminopurin-9-yl)-2-[[[[3-hydroxy-2,2-dimethyl-4-oxo-4-[[3-oxo-3-(2-sulfanylethylamino)propyl]amino]butoxy]-oxido-phosphoryl]oxy-oxido-phosphoryl]oxymethyl]-4-oxido-tetrahydrofuran-3-yl] phosphate
   79    81     1     0     0
SMALL
USER_CHARGES

@<TRIPOS>ATOM
      1 N1A         6.1093    3.4221   -2.1706 N.ar      1 COA        -0.5260
      2 C2A         4.9028    3.1932   -1.5982 C.ar      1 COA         0.6629
      3 N3A         3.8250    2.5648   -2.1163 N.ar      1 COA        -0.5260
      4 C4A         4.0802    2.1492   -3.3659 C.ar      1 COA         0.5212
      5 C5A         5.2577    2.3095   -4.0788 C.ar      1 COA         0.0088
      6 C6A         6.2970    2.9741   -3.4353 C.ar      1 COA         0.5212
      7 N6A         7.5267    3.1813   -4.0834 N.pl3     1 COA        -0.6025
      8 N7A         5.1483    1.7539   -5.3288 N.2       1 COA        -0.4271
      9 C8A         3.9267    1.2647   -5.3749 C.ar      1 COA         0.5691
     10 N9A         3.2402    1.4796   -4.2093 N.pl3     1 COA        -0.5033
     11 C1B         1.8139    1.0528   -3.9225 C.3       1 COA         0.2693
     12 C2B         1.5441    0.0924   -2.7404 C.3       1 COA         0.2008
     13 O2B         1.6560   -1.1661   -3.1231 O.co2     1 COA        -0.1615
     14 C3B         0.0825    0.4469   -2.4241 C.3       1 COA         0.1111
     15 O3B        -0.8371   -0.0985   -3.3754 O.3       1 COA         0.1618
     16 P3B        -2.4169   -0.2494   -2.9382 P.3       1 COA        -1.1921
     17 O7A        -2.4022   -1.1842   -1.7323 O.co2     1 COA         0.3195
     18 O8A        -3.0660   -0.8511   -4.1810 O.co2     1 COA         0.3195
     19 O9A        -2.8748    1.1724   -2.6264 O.co2     1 COA         0.3195
     20 C4B         0.0646    1.9600   -2.6151 C.3       1 COA         0.1111
     21 O4B         1.0421    2.2460   -3.6341 O.3       1 COA        -0.1436
     22 C5B         0.4465    2.7364   -1.3618 C.3       1 COA         0.1504
     23 O5B         0.3986    4.1249   -1.6460 O.3       1 COA         0.1618
     24 P1A         0.7670    5.1936   -0.4641 P.3       1 COA        -1.1062
     25 O1A         1.1289    6.5260   -1.0837 O.co2     1 COA         0.3195
     26 O2A         1.6876    4.5161    0.5275 O.co2     1 COA         0.3195
     27 O3A        -0.6886    5.3125    0.2679 O.3       1 COA         0.4672
     28 P2A        -1.1429    6.2040    1.5594 P.3       1 COA        -1.1062
     29 O4A        -2.6377    6.0612    1.7476 O.co2     1 COA         0.3195
     30 O5A        -0.1888    5.9134    2.6974 O.co2     1 COA         0.3195
     31 O6A        -0.8065    7.6957    0.9792 O.3       1 COA         0.1618
     32 CBP        -1.0090    9.5771   -0.5793 C.3       1 COA         0.0000
     33 CCP        -1.4652    8.1470   -0.1994 C.3       1 COA         0.1504
     34 CDP         0.5182    9.5632   -0.8289 C.3       1 COA         0.1179
     35 CEP        -1.6888   10.0085   -1.8940 C.3       1 COA         0.1179
     36 CAP        -1.3149   10.5877    0.5658 C.3       1 COA         0.0611
     37 OAP        -0.3519   11.6382    0.5524 O.3       1 COA        -0.2728
     38 C9P        -2.6876   11.2507    0.4734 C.2       1 COA         0.3561
     39 O9P        -2.8806   12.2731   -0.1822 O.2       1 COA        -0.2391
     40 N8P        -3.6636   10.5632    1.1768 N.am      1 COA        -0.1909
     41 C7P        -5.0458   10.9816    1.2180 C.3       1 COA         0.1160
     42 C6P        -5.2614   11.9255    2.3920 C.3       1 COA         0.0286
     43 C5P        -6.6983   12.4048    2.4937 C.2       1 COA         0.3561
     44 O5P        -7.6580   11.7357    2.1205 O.2       1 COA        -0.2391
     45 N4P        -6.7749   13.6728    3.0509 N.am      1 COA        -0.1909
     46 C3P        -8.0255   14.3655    3.2595 C.3       1 COA         0.1160
     47 C2P        -8.4338   15.2151    2.0672 C.3       1 COA         0.2607
     48 S1P        -7.2022   16.4954    1.6779 S.3       1 COA        -0.3539
     49 H2A         4.7878    3.5651   -0.5856 H         1 COA        -0.1369
     50 H61A        8.2460    3.7037   -3.6204 H         1 COA         0.2048
     51 H62A        7.6376    2.8871   -5.0353 H         1 COA         0.2048
     52 H8A         3.4866    0.7495   -6.2177 H         1 COA        -0.1292
     53 H1B         1.4348    0.6728   -4.9170 H         1 COA        -0.0393
     54 H2B         2.1376    0.4515   -1.8851 H         1 COA        -0.0393
     55 H3B        -0.2421    0.1333   -1.4258 H         1 COA        -0.0393
     56 H4B        -0.9063    2.3168   -2.9777 H         1 COA        -0.0393
     57 H51A        1.4605    2.4765   -1.0434 H         1 COA        -0.0393
     58 H52A       -0.2515    2.5189   -0.5478 H         1 COA        -0.0393
     59 H121       -1.2324    7.4355   -0.9984 H         1 COA        -0.0393
     60 H122       -2.5440    8.1138   -0.0133 H         1 COA        -0.0393
     61 H131        0.8796   10.5616   -1.1013 H         1 COA        -0.0393
     62 H132        0.7886    8.8842   -1.6454 H         1 COA        -0.0393
     63 H133        1.0681    9.2399    0.0618 H         1 COA        -0.0393
     64 H141       -1.3855   11.0192   -2.1904 H         1 COA        -0.0393
     65 H142       -2.7797   10.0132   -1.7903 H         1 COA        -0.0393
     66 H143       -1.4280    9.3402   -2.7211 H         1 COA        -0.0393
     67 H10        -1.2314   10.0854    1.5378 H         1 COA        -0.0393
     68 HO1        -0.4241   12.0681   -0.3139 H         1 COA         0.2010
     69 HN8        -3.4169    9.7096    1.6684 H         1 COA         0.0865
     70 H71        -5.3008   11.4743    0.2743 H         1 COA        -0.0393
     71 H72        -5.6863   10.0986    1.3096 H         1 COA        -0.0393
     72 H61        -4.6107   12.8034    2.2937 H         1 COA        -0.0393
     73 H62        -4.9968   11.4245    3.3316 H         1 COA        -0.0393
     74 HN4        -5.9128   14.1352    3.3245 H         1 COA         0.0865
     75 H31        -8.7772   13.5914    3.4345 H         1 COA        -0.0393
     76 H32        -7.9284   14.9554    4.1745 H         1 COA        -0.0393
     77 H21        -8.5836   14.5960    1.1767 H         1 COA        -0.0393
     78 H22        -9.3781   15.7212    2.2906 H         1 COA        -0.0393
     79 HS1        -6.1904   15.6486    1.4467 H         1 COA         0.1718
@<TRIPOS>BOND
     1    1    2 ar
     2    1    6 ar
     3    2    3 ar
     4    2   49 1
     5    3    4 ar
     6    4    5 ar
     7    4   10 ar
     8    5    6 ar
     9    5    8 ar
    10    6    7 1
    11    7   50 1
    12    7   51 1
    13    8    9 ar
    14    9   10 ar
    15    9   52 1
    16   10   11 1
    17   11   12 1
    18   11   21 1
    19   11   53 1
    20   12   13 1
    21   12   14 1
    22   12   54 1
    23   14   15 1
    24   14   20 1
    25   14   55 1
    26   15   16 1
    27   16   17 2
    28   16   18 1
    29   16   19 1
    30   20   21 1
    31   20   22 1
    32   20   56 1
    33   22   23 1
    34   22   57 1
    35   22   58 1
    36   23   24 1
    37   24   25 2
    38   24   26 1
    39   24   27 1
    40   27   28 1
    41   28   29 2
    42   28   30 1
    43   28   31 1
    44   31   33 1
    45   32   33 1
    46   32   34 1
    47   32   35 1
    48   32   36 1
    49   33   59 1
    50   33   60 1
    51   34   61 1
    52   34   62 1
    53   34   63 1
    54   35   64 1
    55   35   65 1
    56   35   66 1
    57   36   37 1
    58   36   38 1
    59   36   67 1
    60   37   68 1
    61   38   39 2
    62   38   40 am
    63   40   41 1
    64   40   69 1
    65   41   42 1
    66   41   70 1
    67   41   71 1
    68   42   43 1
    69   42   72 1
    70   42   73 1
    71   43   44 2
    72   43   45 am
    73   45   46 1
    74   45   74 1
    75   46   47 1
    76   46   75 1
    77   46   76 1
    78   47   48 1
    79   47   77 1
    80   47   78 1
    81   48   79 1
@<TRIPOS>SUBSTRUCTURE
     1 COA         1 GROUP 0 A     ****
@<TRIPOS>MOLECULE
[5-(6-aminopurin-9-yl)-2-[[[[3-hydroxy-2,2-dimethyl-4-oxo-4-[[3-oxo-3-(2-sulfanylethylamino)propyl]amino]butoxy]-oxido-phosphoryl]oxy-oxido-phosphoryl]oxymethyl]-4-oxido-tetrahydrofuran-3-yl] phosphate
   79    81     1     0     0
SMALL
USER_CHARGES

@<TRIPOS>ATOM
      1 N1A         6.1093    3.4221   -2.1706 N.ar      1 COA        -0.5260
      2 C2A         4.9028    3.1932   -1.5982 C.ar      1 COA         0.6629
      3 N3A         3.8250    2.5648   -2.1163 N.ar      1 COA        -0.5260
      4 C4A         4.0802    2.1492   -3.3659 C.ar      1 COA         0.5212
      5 C5A         5.2577    2.3095   -4.0788 C.ar      1 COA         0.0088
      6 C6A         6.2970    2.9741   -3.4353 C.ar      1 COA         0.5212
      7 N6A         7.5267    3.1813   -4.0834 N.pl3     1 COA        -0.6025
      8 N7A         5.1483    1.7539   -5.3288 N.2       1 COA        -0.4271
      9 C8A         3.9267    1.2647   -5.3749 C.ar      1 COA         0.5691
     10 N9A         3.2402    1.4796   -4.2093 N.pl3     1 COA        -0.5033
     11 C1B         1.8139    1.0528   -3.9225 C.3       1 COA         0.2693
     12 C2B         1.5441    0.0924   -2.7404 C.3       1 COA         0.2008
     13 O2B         1.6560   -1.1661   -3.1231 O.co2     1 COA        -0.1615
     14 C3B         0.0825    0.4469   -2.4241 C.3       1 COA         0.1111
     15 O3B        -0.8371   -0.0985   -3.3754 O.3       1 COA         0.1618
     16 P3B        -2.4169   -0.2494   -2.9382 P.3       1 COA        -1.1921
     17 O7A        -2.4022   -1.1842   -1.7323 O.co2     1 COA         0.3195
     18 O8A        -3.0660   -0.8511   -4.1810 O.co2     1 COA         0.3195
     19 O9A        -2.8748    1.1724   -2.6264 O.co2     1 COA         0.3195
     20 C4B         0.0646    1.9600   -2.6151 C.3       1 COA         0.1111
     21 O4B         1.0421    2.2460   -3.6341 O.3       1 COA        -0.1436
     22 C5B         0.4465    2.7364   -1.3618 C.3       1 COA         0.1504
     23 O5B         0.3986    4.1249   -1.6460 O.3       1 COA         0.1618
     24 P1A         0.7670    5.1936   -0.4641 P.3       1 COA        -1.1062
     25 O1A         1.1289    6.5260   -1.0837 O.co2     1 COA         0.3195
     26 O2A         1.6876    4.5161    0.5275 O.co2     1 COA         0.3195
     27 O3A        -0.6886    5.3125    0.2679 O.3       1 COA         0.4672
     28 P2A        -1.1429    6.2040    1.5594 P.3       1 COA        -1.1062
     29 O4A        -2.6377    6.0612    1.7476 O.co2     1 COA         0.3195
     30 O5A        -0.1888    5.9134    2.6974 O.co2     1 COA         0.3195
     31 O6A        -0.8065    7.6957    0.9792 O.3       1 COA         0.1618
     32 CBP        -1.0090    9.5771   -0.5793 C.3       1 COA         0.0000
     33 CCP        -1.4652    8.1470   -0.1994 C.3       1 COA         0.1504
     34 CDP         0.5182    9.5632   -0.8289 C.3       1 COA         0.1179
     35 CEP        -1.6888   10.0085   -1.8940 C.3       1 COA         0.1179
     36 CAP        -1.3149   10.5877    0.5658 C.3       1 COA         0.0611
     37 OAP        -0.3519   11.6382    0.5524 O.3       1 COA        -0.2728
     38 C9P        -2.6876   11.2507    0.4734 C.2       1 COA         0.3561
     39 O9P        -2.8806   12.2731   -0.1822 O.2       1 COA        -0.2391
     40 N8P        -3.6636   10.5632    1.1768 N.am      1 COA        -0.1909
     41 C7P        -5.0458   10.9816    1.2180 C.3       1 COA         0.1160
     42 C6P        -5.8119   10.3347    0.0732 C.3       1 COA         0.0286
     43 C5P        -7.2766   10.7336    0.0579 C.2       1 COA         0.3561
     44 O5P        -7.7751   11.4930    0.8842 O.2       1 COA        -0.2391
     45 N4P        -7.9575   10.1345   -0.9917 N.am      1 COA        -0.1909
     46 C3P        -9.3662   10.3429   -1.2357 C.3       1 COA         0.1160
     47 C2P       -10.0349    9.1427   -1.8858 C.3       1 COA         0.2607
     48 S1P        -9.2959    8.7288   -3.4952 S.3       1 COA        -0.3539
     49 H2A         4.7878    3.5651   -0.5856 H         1 COA        -0.1369
     50 H61A        8.2460    3.7037   -3.6204 H         1 COA         0.2048
     51 H62A        7.6376    2.8871   -5.0353 H         1 COA         0.2048
     52 H8A         3.4866    0.7495   -6.2177 H         1 COA        -0.1292
     53 H1B         1.4348    0.6728   -4.9170 H         1 COA        -0.0393
     54 H2B         2.1376    0.4515   -1.8851 H         1 COA        -0.0393
     55 H3B        -0.2421    0.1333   -1.4258 H         1 COA        -0.0393
     56 H4B        -0.9063    2.3168   -2.9777 H         1 COA        -0.0393
     57 H51A        1.4605    2.4765   -1.0434 H         1 COA        -0.0393
     58 H52A       -0.2515    2.5189   -0.5478 H         1 COA        -0.0393
     59 H121       -1.2324    7.4355   -0.9984 H         1 COA        -0.0393
     60 H122       -2.5440    8.1138   -0.0133 H         1 COA        -0.0393
     61 H131        0.8796   10.5616   -1.1013 H         1 COA        -0.0393
     62 H132        0.7886    8.8842   -1.6454 H         1 COA        -0.0393
     63 H133        1.0681    9.2399    0.0618 H         1 COA        -0.0393
     64 H141       -1.3855   11.0192   -2.1904 H         1 COA        -0.0393
     65 H142       -2.7797   10.0132   -1.7903 H         1 COA        -0.0393
     66 H143       -1.4280    9.3402   -2.7211 H         1 COA        -0.0393
     67 H10        -1.2314   10.0854    1.5378 H         1 COA        -0.0393
     68 HO1        -0.4241   12.0681   -0.3139 H         1 COA         0.2010
     69 HN8        -3.4169    9.7096    1.6684 H         1 COA         0.0865
     70 H71        -5.4791   10.6972    2.1821 H         1 COA        -0.0393
     71 H72        -5.0936   12.0728    1.1469 H         1 COA        -0.0393
     72 H61        -5.7524    9.2419    0.1503 H         1 COA        -0.0393
     73 H62        -5.3658   10.6206   -0.8876 H         1 COA        -0.0393
     74 HN4        -7.4425    9.5215   -1.6169 H         1 COA         0.0865
     75 H31        -9.8198   10.5328   -0.2594 H         1 COA        -0.0393
     76 H32        -9.4672   11.2496   -1.8375 H         1 COA        -0.0393
     77 H21        -9.9739    8.2612   -1.2394 H         1 COA        -0.0393
     78 H22       -11.0928    9.3662   -2.0550 H         1 COA        -0.0393
     79 HS1        -9.5619    9.9059   -4.0766 H         1 COA         0.1718
@<TRIPOS>BOND
     1    1    2 ar
     2    1    6 ar
     3    2    3 ar
     4    2   49 1
     5    3    4 ar
     6    4    5 ar
     7    4   10 ar
     8    5    6 ar
     9    5    8 ar
    10    6    7 1
    11    7   50 1
    12    7   51 1
    13    8    9 ar
    14    9   10 ar
    15    9   52 1
    16   10   11 1
    17   11   12 1
    18   11   21 1
    19   11   53 1
    20   12   13 1
    21   12   14 1
    22   12   54 1
    23   14   15 1
    24   14   20 1
    25   14   55 1
    26   15   16 1
    27   16   17 2
    28   16   18 1
    29   16   19 1
    30   20   21 1
    31   20   22 1
    32   20   56 1
    33   22   23 1
    34   22   57 1
    35   22   58 1
    36   23   24 1
    37   24   25 2
    38   24   26 1
    39   24   27 1
    40   27   28 1
    41   28   29 2
    42   28   30 1
    43   28   31 1
    44   31   33 1
    45   32   33 1
    46   32   34 1
    47   32   35 1
    48   32   36 1
    49   33   59 1
    50   33   60 1
    51   34   61 1
    52   34   62 1
    53   34   63 1
    54   35   64 1
    55   35   65 1
    56   35   66 1
    57   36   37 1
    58   36   38 1
    59   36   67 1
    60   37   68 1
    61   38   39 2
    62   38   40 am
    63   40   41 1
    64   40   69 1
    65   41   42 1
    66   41   70 1
    67   41   71 1
    68   42   43 1
    69   42   72 1
    70   42   73 1
    71   43   44 2
    72   43   45 am
    73   45   46 1
    74   45   74 1
    75   46   47 1
    76   46   75 1
    77   46   76 1
    78   47   48 1
    79   47   77 1
    80   47   78 1
    81   48   79 1
@<TRIPOS>SUBSTRUCTURE
     1 COA         1 GROUP 0 A     ****
@<TRIPOS>MOLECULE
[5-(6-aminopurin-9-yl)-2-[[[[3-hydroxy-2,2-dimethyl-4-oxo-4-[[3-oxo-3-(2-sulfanylethylamino)propyl]amino]butoxy]-oxido-phosphoryl]oxy-oxido-phosphoryl]oxymethyl]-4-oxido-tetrahydrofuran-3-yl] phosphate
   79    81     1     0     0
SMALL
USER_CHARGES

@<TRIPOS>ATOM
      1 N1A         4.6908    0.9263    0.5284 N.ar      1 COA        -0.5260
      2 C2A         3.4193    1.3931    0.4919 C.ar      1 COA         0.6629
      3 N3A         2.4653    1.1803   -0.4405 N.ar      1 COA        -0.5260
      4 C4A         2.9338    0.3916   -1.4192 C.ar      1 COA         0.5212
      5 C5A         4.2020   -0.1580   -1.5185 C.ar      1 COA         0.0088
      6 C6A         5.0963    0.1348   -0.4937 C.ar      1 COA         0.5212
      7 N6A         6.4038   -0.3801   -0.5131 N.pl3     1 COA        -0.6025
      8 N7A         4.3170   -0.9111   -2.6598 N.2       1 COA        -0.4271
      9 C8A         3.1403   -0.8212   -3.2436 C.ar      1 COA         0.5691
     10 N9A         2.2683   -0.0422   -2.5302 N.pl3     1 COA        -0.5033
     11 C1B         0.8363    0.2748   -2.9142 C.3       1 COA         0.2693
     12 C2B        -0.3043   -0.1391   -1.9549 C.3       1 COA         0.2008
     13 O2B        -0.6991   -1.3747   -2.2004 O.co2     1 COA        -0.1615
     14 C3B        -1.3853    0.8773   -2.3558 C.3       1 COA         0.1111
     15 O3B        -2.0094    0.5576   -3.6033 O.3       1 COA         0.1618
     16 P3B        -3.4806    1.2180   -3.9334 P.3       1 COA        -1.1921
     17 O7A        -4.3962    0.7100   -2.8235 O.co2     1 COA         0.3195
     18 O8A        -3.8112    0.6588   -5.3140 O.co2     1 COA         0.3195
     19 O9A        -3.2466    2.7257   -3.9151 O.co2     1 COA         0.3195
     20 C4B        -0.5713    2.1464   -2.5855 C.3       1 COA         0.1111
     21 O4B         0.7211    1.7136   -3.0526 O.3       1 COA        -0.1436
     22 C5B        -0.3655    2.9745   -1.3239 C.3       1 COA         0.1504
     23 O5B         0.3986    4.1249   -1.6460 O.3       1 COA         0.1618
     24 P1A         0.7670    5.1936   -0.4641 P.3       1 COA        -1.1062
     25 O1A         1.1289    6.5260   -1.0837 O.co2     1 COA         0.3195
     26 O2A         1.6876    4.5161    0.5275 O.co2     1 COA         0.3195
     27 O3A        -0.6886    5.3125    0.2679 O.3       1 COA         0.4672
     28 P2A        -1.1429    6.2040    1.5594 P.3       1 COA        -1.1062
     29 O4A        -2.6377    6.0612    1.7476 O.co2     1 COA         0.3195
     30 O5A        -0.1888    5.9134    2.6974 O.co2     1 COA         0.3195
     31 O6A        -0.8065    7.6957    0.9792 O.3       1 COA         0.1618
     32 CBP        -1.0090    9.5771   -0.5793 C.3       1 COA         0.0000
     33 CCP        -1.4652    8.1470   -0.1994 C.3       1 COA         0.1504
     34 CDP         0.5182    9.5632   -0.8289 C.3       1 COA         0.1179
     35 CEP        -1.6888   10.0085   -1.8940 C.3       1 COA         0.1179
     36 CAP        -1.3149   10.5877    0.5658 C.3       1 COA         0.0611
     37 OAP        -0.8841   11.8921    0.1862 O.3       1 COA        -0.2728
     38 C9P        -2.7940   10.7032    0.9282 C.2       1 COA         0.3561
     39 O9P        -3.6891   10.4664    0.1190 O.2       1 COA        -0.2391
     40 N8P        -2.9952   11.0709    2.2489 N.am      1 COA        -0.1909
     41 C7P        -4.3082   11.2196    2.8331 C.3       1 COA         0.1160
     42 C6P        -4.7902   12.6519    2.6541 C.3       1 COA         0.0286
     43 C5P        -3.8690   13.6602    3.3171 C.2       1 COA         0.3561
     44 O5P        -3.2066   13.4077    4.3198 O.2       1 COA        -0.2391
     45 N4P        -3.8807   14.8769    2.6511 N.am      1 COA        -0.1909
     46 C3P        -3.0939   16.0124    3.0743 C.3       1 COA         0.1160
     47 C2P        -1.7139   16.0423    2.4379 C.3       1 COA         0.2607
     48 S1P        -0.7350   17.4762    2.9795 S.3       1 COA        -0.3539
     49 H2A         3.1287    2.0232    1.3259 H         1 COA        -0.1369
     50 H61A        7.0472   -0.1189    0.2098 H         1 COA         0.2048
     51 H62A        6.7069   -0.9256   -1.2976 H         1 COA         0.2048
     52 H8A         2.8628   -1.2932   -4.1762 H         1 COA        -0.1292
     53 H1B         0.7316   -0.1451   -3.9582 H         1 COA        -0.0393
     54 H2B         0.0098    0.1350   -0.9357 H         1 COA        -0.0393
     55 H3B        -2.1756    1.0002   -1.6070 H         1 COA        -0.0393
     56 H4B        -1.0101    2.7804   -3.3646 H         1 COA        -0.0393
     57 H51A        0.1721    2.3946   -0.5677 H         1 COA        -0.0393
     58 H52A       -1.3279    3.2941   -0.9132 H         1 COA        -0.0393
     59 H121       -1.2324    7.4355   -0.9984 H         1 COA        -0.0393
     60 H122       -2.5440    8.1138   -0.0133 H         1 COA        -0.0393
     61 H131        0.8796   10.5616   -1.1013 H         1 COA        -0.0393
     62 H132        0.7886    8.8842   -1.6454 H         1 COA        -0.0393
     63 H133        1.0681    9.2399    0.0618 H         1 COA        -0.0393
     64 H141       -1.3855   11.0192   -2.1904 H         1 COA        -0.0393
     65 H142       -2.7797   10.0132   -1.7903 H         1 COA        -0.0393
     66 H143       -1.4280    9.3402   -2.7211 H         1 COA        -0.0393
     67 H10        -0.7524   10.3112    1.4665 H         1 COA        -0.0393
     68 HO1        -1.3767   12.1229   -0.6167 H         1 COA         0.2010
     69 HN8        -2.1931   11.2196    2.8537 H         1 COA         0.0865
     70 H71        -4.9972   10.5174    2.3529 H         1 COA        -0.0393
     71 H72        -4.2613   10.9576    3.8948 H         1 COA        -0.0393
     72 H61        -5.7939   12.7678    3.0816 H         1 COA        -0.0393
     73 H62        -4.8581   12.8958    1.5864 H         1 COA        -0.0393
     74 HN4        -4.4690   14.9740    1.8286 H         1 COA         0.0865
     75 H31        -3.6561   16.9011    2.7759 H         1 COA        -0.0393
     76 H32        -3.0461   15.9933    4.1661 H         1 COA        -0.0393
     77 H21        -1.1534   15.1315    2.6723 H         1 COA        -0.0393
     78 H22        -1.8189   16.1050    1.3503 H         1 COA        -0.0393
     79 HS1        -0.7481   17.1684    4.2831 H         1 COA         0.1718
@<TRIPOS>BOND
     1    1    2 ar
     2    1    6 ar
     3    2    3 ar
     4    2   49 1
     5    3    4 ar
     6    4    5 ar
     7    4   10 ar
     8    5    6 ar
     9    5    8 ar
    10    6    7 1
    11    7   50 1
    12    7   51 1
    13    8    9 ar
    14    9   10 ar
    15    9   52 1
    16   10   11 1
    17   11   12 1
    18   11   21 1
    19   11   53 1
    20   12   13 1
    21   12   14 1
    22   12   54 1
    23   14   15 1
    24   14   20 1
    25   14   55 1
    26   15   16 1
    27   16   17 2
    28   16   18 1
    29   16   19 1
    30   20   21 1
    31   20   22 1
    32   20   56 1
    33   22   23 1
    34   22   57 1
    35   22   58 1
    36   23   24 1
    37   24   25 2
    38   24   26 1
    39   24   27 1
    40   27   28 1
    41   28   29 2
    42   28   30 1
    43   28   31 1
    44   31   33 1
    45   32   33 1
    46   32   34 1
    47   32   35 1
    48   32   36 1
    49   33   59 1
    50   33   60 1
    51   34   61 1
    52   34   62 1
    53   34   63 1
    54   35   64 1
    55   35   65 1
    56   35   66 1
    57   36   37 1
    58   36   38 1
    59   36   67 1
    60   37   68 1
    61   38   39 2
    62   38   40 am
    63   40   41 1
    64   40   69 1
    65   41   42 1
    66   41   70 1
    67   41   71 1
    68   42   43 1
    69   42   72 1
    70   42   73 1
    71   43   44 2
    72   43   45 am
    73   45   46 1
    74   45   74 1
    75   46   47 1
    76   46   75 1
    77   46   76 1
    78   47   48 1
    79   47   77 1
    80   47   78 1
    81   48   79 1
@<TRIPOS>SUBSTRUCTURE
     1 COA         1 GROUP 0 A     ****
@<TRIPOS>MOLECULE
[5-(6-aminopurin-9-yl)-2-[[[[3-hydroxy-2,2-dimethyl-4-oxo-4-[[3-oxo-3-(2-sulfanylethylamino)propyl]amino]butoxy]-oxido-phosphoryl]oxy-oxido-phosphoryl]oxymethyl]-4-oxido-tetrahydrofuran-3-yl] phosphate
   79    81     1     0     0
SMALL
USER_CHARGES

@<TRIPOS>ATOM
      1 N1A         6.3197    3.3711    0.1967 N.ar      1 COA        -0.5260
      2 C2A         5.0033    3.3256    0.5141 C.ar      1 COA         0.6629
      3 N3A         4.0730    2.4196    0.1418 N.ar      1 COA        -0.5260
      4 C4A         4.6208    1.4811   -0.6447 C.ar      1 COA         0.5212
      5 C5A         5.9423    1.3962   -1.0530 C.ar      1 COA         0.0088
      6 C6A         6.8050    2.3902   -0.6021 C.ar      1 COA         0.5212
      7 N6A         8.1621    2.3826   -0.9671 N.pl3     1 COA        -0.6025
      8 N7A         6.1335    0.2987   -1.8543 N.2       1 COA        -0.4271
      9 C8A         4.9500   -0.2731   -1.9316 C.ar      1 COA         0.5691
     10 N9A         4.0006    0.4065   -1.2155 N.pl3     1 COA        -0.5033
     11 C1B         2.5376    0.0288   -1.0907 C.3       1 COA         0.2693
     12 C2B         1.9579   -0.2640    0.3131 C.3       1 COA         0.2008
     13 O2B         2.1299   -1.5323    0.6368 O.co2     1 COA        -0.1615
     14 C3B         0.4729    0.0487    0.0699 C.3       1 COA         0.1111
     15 O3B        -0.1943   -0.9780   -0.6709 O.3       1 COA         0.1618
     16 P3B        -1.8364   -1.0586   -0.5907 P.3       1 COA        -1.1921
     17 O7A        -2.1459   -1.2889    0.8856 O.co2     1 COA         0.3195
     18 O8A        -2.1706   -2.2476   -1.4866 O.co2     1 COA         0.3195
     19 O9A        -2.3217    0.2823   -1.1335 O.co2     1 COA         0.3195
     20 C4B         0.5412    1.2713   -0.8394 C.3       1 COA         0.1111
     21 O4B         1.7485    1.1278   -1.6124 O.3       1 COA        -0.1436
     22 C5B         0.6184    2.5901   -0.0816 C.3       1 COA         0.1504
     23 O5B         0.6777    3.6562   -1.0149 O.3       1 COA         0.1618
     24 P1A         0.7670    5.1936   -0.4641 P.3       1 COA        -1.1062
     25 O1A         0.8194    6.1476   -1.6376 O.co2     1 COA         0.3195
     26 O2A         1.8029    5.2507    0.6375 O.co2     1 COA         0.3195
     27 O3A        -0.6886    5.3125    0.2679 O.3       1 COA         0.4672
     28 P2A        -1.1429    6.2040    1.5594 P.3       1 COA        -1.1062
     29 O4A        -2.6377    6.0612    1.7476 O.co2     1 COA         0.3195
     30 O5A        -0.1888    5.9134    2.6974 O.co2     1 COA         0.3195
     31 O6A        -0.8065    7.6957    0.9792 O.3       1 COA         0.1618
     32 CBP        -1.0463    9.4480   -0.7182 C.3       1 COA         0.0000
     33 CCP        -1.7297    8.3208    0.0940 C.3       1 COA         0.1504
     34 CDP         0.1097    8.8359   -1.5452 C.3       1 COA         0.1179
     35 CEP        -2.0542   10.0578   -1.7127 C.3       1 COA         0.1179
     36 CAP        -0.4581   10.5415    0.2222 C.3       1 COA         0.0611
     37 OAP         0.1628   11.5628   -0.5541 O.3       1 COA        -0.2728
     38 C9P        -1.4903   11.2331    1.1103 C.2       1 COA         0.3561
     39 O9P        -2.1297   12.2135    0.7334 O.2       1 COA        -0.2391
     40 N8P        -1.6312   10.6209    2.3453 N.am      1 COA        -0.1909
     41 C7P        -2.5657   11.0776    3.3480 C.3       1 COA         0.1160
     42 C6P        -1.8923   12.1042    4.2472 C.3       1 COA         0.0286
     43 C5P        -0.6795   11.5390    4.9645 C.2       1 COA         0.3561
     44 O5P        -0.2966   10.3804    4.8270 O.2       1 COA        -0.2391
     45 N4P        -0.0799   12.4887    5.7786 N.am      1 COA        -0.1909
     46 C3P         1.0929   12.2128    6.5761 C.3       1 COA         0.1160
     47 C2P         0.8697   11.0981    7.5849 C.3       1 COA         0.2607
     48 S1P        -0.4638   11.4867    8.7590 S.3       1 COA        -0.3539
     49 H2A         4.6492    4.1260    1.1552 H         1 COA        -0.1369
     50 H61A        8.7564    3.1335   -0.6708 H         1 COA         0.2048
     51 H62A        8.4991    1.6788   -1.5963 H         1 COA         0.2048
     52 H8A         4.7208   -1.1726   -2.4865 H         1 COA        -0.1292
     53 H1B         2.4085   -0.8200   -1.8256 H         1 COA        -0.0393
     54 H2B         2.3286    0.5212    0.9904 H         1 COA        -0.0393
     55 H3B        -0.0977    0.2245    0.9885 H         1 COA        -0.0393
     56 H4B        -0.2996    1.3083   -1.5416 H         1 COA        -0.0393
     57 H51A        1.5144    2.6204    0.5455 H         1 COA        -0.0393
     58 H52A       -0.2654    2.7227    0.5494 H         1 COA        -0.0393
     59 H121       -2.1262    7.5446   -0.5686 H         1 COA        -0.0393
     60 H122       -2.5562    8.7139    0.6956 H         1 COA        -0.0393
     61 H131        0.6194    9.6060   -2.1356 H         1 COA        -0.0393
     62 H132       -0.2524    8.0744   -2.2449 H         1 COA        -0.0393
     63 H133        0.8566    8.3597   -0.9005 H         1 COA        -0.0393
     64 H141       -1.5995   10.8607   -2.3043 H         1 COA        -0.0393
     65 H142       -2.9149   10.4873   -1.1878 H         1 COA        -0.0393
     66 H143       -2.4255    9.3094   -2.4205 H         1 COA        -0.0393
     67 H10         0.3192   10.1040    0.8613 H         1 COA        -0.0393
     68 HO1        -0.5280   11.9349   -1.1241 H         1 COA         0.2010
     69 HN8        -1.0789    9.7962    2.5598 H         1 COA         0.0865
     70 H71        -3.4403   11.5120    2.8534 H         1 COA        -0.0393
     71 H72        -2.9130   10.2202    3.9332 H         1 COA        -0.0393
     72 H61        -2.6016   12.4670    5.0015 H         1 COA        -0.0393
     73 H62        -1.5711   12.9703    3.6552 H         1 COA        -0.0393
     74 HN4        -0.4835   13.4202    5.8156 H         1 COA         0.0865
     75 H31         1.8777   11.9214    5.8732 H         1 COA        -0.0393
     76 H32         1.3963   13.1483    7.0529 H         1 COA        -0.0393
     77 H21         0.6255   10.1566    7.0823 H         1 COA        -0.0393
     78 H22         1.7861   10.9456    8.1635 H         1 COA        -0.0393
     79 HS1        -1.4273   11.6141    7.8373 H         1 COA         0.1718
@<TRIPOS>BOND
     1    1    2 ar
     2    1    6 ar
     3    2    3 ar
     4    2   49 1
     5    3    4 ar
     6    4    5 ar
     7    4   10 ar
     8    5    6 ar
     9    5    8 ar
    10    6    7 1
    11    7   50 1
    12    7   51 1
    13    8    9 ar
    14    9   10 ar
    15    9   52 1
    16   10   11 1
    17   11   12 1
    18   11   21 1
    19   11   53 1
    20   12   13 1
    21   12   14 1
    22   12   54 1
    23   14   15 1
    24   14   20 1
    25   14   55 1
    26   15   16 1
    27   16   17 2
    28   16   18 1
    29   16   19 1
    30   20   21 1
    31   20   22 1
    32   20   56 1
    33   22   23 1
    34   22   57 1
    35   22   58 1
    36   23   24 1
    37   24   25 2
    38   24   26 1
    39   24   27 1
    40   27   28 1
    41   28   29 2
    42   28   30 1
    43   28   31 1
    44   31   33 1
    45   32   33 1
    46   32   34 1
    47   32   35 1
    48   32   36 1
    49   33   59 1
    50   33   60 1
    51   34   61 1
    52   34   62 1
    53   34   63 1
    54   35   64 1
    55   35   65 1
    56   35   66 1
    57   36   37 1
    58   36   38 1
    59   36   67 1
    60   37   68 1
    61   38   39 2
    62   38   40 am
    63   40   41 1
    64   40   69 1
    65   41   42 1
    66   41   70 1
    67   41   71 1
    68   42   43 1
    69   42   72 1
    70   42   73 1
    71   43   44 2
    72   43   45 am
    73   45   46 1
    74   45   74 1
    75   46   47 1
    76   46   75 1
    77   46   76 1
    78   47   48 1
    79   47   77 1
    80   47   78 1
    81   48   79 1
@<TRIPOS>SUBSTRUCTURE
     1 COA         1 GROUP 0 A     ****
@<TRIPOS>MOLECULE
[5-(6-aminopurin-9-yl)-2-[[[[3-hydroxy-2,2-dimethyl-4-oxo-4-[[3-oxo-3-(2-sulfanylethylamino)propyl]amino]butoxy]-oxido-phosphoryl]oxy-oxido-phosphoryl]oxymethyl]-4-oxido-tetrahydrofuran-3-yl] phosphate
   79    81     1     0     0
SMALL
USER_CHARGES

@<TRIPOS>ATOM
      1 N1A         6.3197    3.3711    0.1967 N.ar      1 COA        -0.5260
      2 C2A         5.0033    3.3256    0.5141 C.ar      1 COA         0.6629
      3 N3A         4.0730    2.4196    0.1418 N.ar      1 COA        -0.5260
      4 C4A         4.6208    1.4811   -0.6447 C.ar      1 COA         0.5212
      5 C5A         5.9423    1.3962   -1.0530 C.ar      1 COA         0.0088
      6 C6A         6.8050    2.3902   -0.6021 C.ar      1 COA         0.5212
      7 N6A         8.1621    2.3826   -0.9671 N.pl3     1 COA        -0.6025
      8 N7A         6.1335    0.2987   -1.8543 N.2       1 COA        -0.4271
      9 C8A         4.9500   -0.2731   -1.9316 C.ar      1 COA         0.5691
     10 N9A         4.0006    0.4065   -1.2155 N.pl3     1 COA        -0.5033
     11 C1B         2.5376    0.0288   -1.0907 C.3       1 COA         0.2693
     12 C2B         1.9579   -0.2640    0.3131 C.3       1 COA         0.2008
     13 O2B         2.1299   -1.5323    0.6368 O.co2     1 COA        -0.1615
     14 C3B         0.4729    0.0487    0.0699 C.3       1 COA         0.1111
     15 O3B        -0.1943   -0.9780   -0.6709 O.3       1 COA         0.1618
     16 P3B        -1.8364   -1.0586   -0.5907 P.3       1 COA        -1.1921
     17 O7A        -2.1459   -1.2889    0.8856 O.co2     1 COA         0.3195
     18 O8A        -2.1706   -2.2476   -1.4866 O.co2     1 COA         0.3195
     19 O9A        -2.3217    0.2823   -1.1335 O.co2     1 COA         0.3195
     20 C4B         0.5412    1.2713   -0.8394 C.3       1 COA         0.1111
     21 O4B         1.7485    1.1278   -1.6124 O.3       1 COA        -0.1436
     22 C5B         0.6184    2.5901   -0.0816 C.3       1 COA         0.1504
     23 O5B         0.6777    3.6562   -1.0149 O.3       1 COA         0.1618
     24 P1A         0.7670    5.1936   -0.4641 P.3       1 COA        -1.1062
     25 O1A         0.8194    6.1476   -1.6376 O.co2     1 COA         0.3195
     26 O2A         1.8029    5.2507    0.6375 O.co2     1 COA         0.3195
     27 O3A        -0.6886    5.3125    0.2679 O.3       1 COA         0.4672
     28 P2A        -1.1429    6.2040    1.5594 P.3       1 COA        -1.1062
     29 O4A        -2.6377    6.0612    1.7476 O.co2     1 COA         0.3195
     30 O5A        -0.1888    5.9134    2.6974 O.co2     1 COA         0.3195
     31 O6A        -0.8065    7.6957    0.9792 O.3       1 COA         0.1618
     32 CBP        -1.0090    9.5771   -0.5793 C.3       1 COA         0.0000
     33 CCP        -1.4652    8.1470   -0.1994 C.3       1 COA         0.1504
     34 CDP         0.5182    9.5632   -0.8289 C.3       1 COA         0.1179
     35 CEP        -1.6888   10.0085   -1.8940 C.3       1 COA         0.1179
     36 CAP        -1.3149   10.5877    0.5658 C.3       1 COA         0.0611
     37 OAP        -1.2622    9.9213    1.8245 O.3       1 COA        -0.2728
     38 C9P        -0.3407   11.7608    0.6502 C.2       1 COA         0.3561
     39 O9P         0.7104   11.6974    1.2852 O.2       1 COA        -0.2391
     40 N8P        -0.7630   12.8619   -0.0771 N.am      1 COA        -0.1909
     41 C7P         0.0024   14.0836   -0.1712 C.3       1 COA         0.1160
     42 C6P         0.9441   14.0084   -1.3643 C.3       1 COA         0.0286
     43 C5P         0.2033   13.8213   -2.6761 C.2       1 COA         0.3561
     44 O5P        -1.0197   13.7394   -2.7517 O.2       1 COA        -0.2391
     45 N4P         1.0778   13.7550   -3.7508 N.am      1 COA        -0.1909
     46 C3P         0.6351   13.5777   -5.1147 C.3       1 COA         0.1160
     47 C2P         0.5383   12.1150   -5.5166 C.3       1 COA         0.2607
     48 S1P         2.1359   11.2559   -5.3848 S.3       1 COA        -0.3539
     49 H2A         4.6492    4.1260    1.1552 H         1 COA        -0.1369
     50 H61A        8.7564    3.1335   -0.6708 H         1 COA         0.2048
     51 H62A        8.4991    1.6788   -1.5963 H         1 COA         0.2048
     52 H8A         4.7208   -1.1726   -2.4865 H         1 COA        -0.1292
     53 H1B         2.4085   -0.8200   -1.8256 H         1 COA        -0.0393
     54 H2B         2.3286    0.5212    0.9904 H         1 COA        -0.0393
     55 H3B        -0.0977    0.2245    0.9885 H         1 COA        -0.0393
     56 H4B        -0.2996    1.3083   -1.5416 H         1 COA        -0.0393
     57 H51A        1.5144    2.6204    0.5455 H         1 COA        -0.0393
     58 H52A       -0.2654    2.7227    0.5494 H         1 COA        -0.0393
     59 H121       -1.2324    7.4355   -0.9984 H         1 COA        -0.0393
     60 H122       -2.5440    8.1138   -0.0133 H         1 COA        -0.0393
     61 H131        0.8796   10.5616   -1.1013 H         1 COA        -0.0393
     62 H132        0.7886    8.8842   -1.6454 H         1 COA        -0.0393
     63 H133        1.0681    9.2399    0.0618 H         1 COA        -0.0393
     64 H141       -1.3855   11.0192   -2.1904 H         1 COA        -0.0393
     65 H142       -2.7797   10.0132   -1.7903 H         1 COA        -0.0393
     66 H143       -1.4280    9.3402   -2.7211 H         1 COA        -0.0393
     67 H10        -2.3323   10.9827    0.4518 H         1 COA        -0.0393
     68 HO1        -0.3644    9.5651    1.9111 H         1 COA         0.2010
     69 HN8        -1.6351   12.8136   -0.5951 H         1 COA         0.0865
     70 H71        -0.6833   14.9308   -0.2732 H         1 COA        -0.0393
     71 H72         0.5651   14.2279    0.7566 H         1 COA        -0.0393
     72 H61         1.6432   13.1719   -1.2401 H         1 COA        -0.0393
     73 H62         1.5403   14.9270   -1.4320 H         1 COA        -0.0393
     74 HN4         2.0743   13.8348   -3.5709 H         1 COA         0.0865
     75 H31        -0.3522   14.0427   -5.1776 H         1 COA        -0.0393
     76 H32         1.3154   14.1401   -5.7591 H         1 COA        -0.0393
     77 H21        -0.1924   11.5850   -4.8971 H         1 COA        -0.0393
     78 H22         0.2113   12.0476   -6.5588 H         1 COA        -0.0393
     79 HS1         2.3007   11.4704   -4.0728 H         1 COA         0.1718
@<TRIPOS>BOND
     1    1    2 ar
     2    1    6 ar
     3    2    3 ar
     4    2   49 1
     5    3    4 ar
     6    4    5 ar
     7    4   10 ar
     8    5    6 ar
     9    5    8 ar
    10    6    7 1
    11    7   50 1
    12    7   51 1
    13    8    9 ar
    14    9   10 ar
    15    9   52 1
    16   10   11 1
    17   11   12 1
    18   11   21 1
    19   11   53 1
    20   12   13 1
    21   12   14 1
    22   12   54 1
    23   14   15 1
    24   14   20 1
    25   14   55 1
    26   15   16 1
    27   16   17 2
    28   16   18 1
    29   16   19 1
    30   20   21 1
    31   20   22 1
    32   20   56 1
    33   22   23 1
    34   22   57 1
    35   22   58 1
    36   23   24 1
    37   24   25 2
    38   24   26 1
    39   24   27 1
    40   27   28 1
    41   28   29 2
    42   28   30 1
    43   28   31 1
    44   31   33 1
    45   32   33 1
    46   32   34 1
    47   32   35 1
    48   32   36 1
    49   33   59 1
    50   33   60 1
    51   34   61 1
    52   34   62 1
    53   34   63 1
    54   35   64 1
    55   35   65 1
    56   35   66 1
    57   36   37 1
    58   36   38 1
    59   36   67 1
    60   37   68 1
    61   38   39 2
    62   38   40 am
    63   40   41 1
    64   40   69 1
    65   41   42 1
    66   41   70 1
    67   41   71 1
    68   42   43 1
    69   42   72 1
    70   42   73 1
    71   43   44 2
    72   43   45 am
    73   45   46 1
    74   45   74 1
    75   46   47 1
    76   46   75 1
    77   46   76 1
    78   47   48 1
    79   47   77 1
    80   47   78 1
    81   48   79 1
@<TRIPOS>SUBSTRUCTURE
     1 COA         1 GROUP 0 A     ****
@<TRIPOS>MOLECULE
[5-(6-aminopurin-9-yl)-2-[[[[3-hydroxy-2,2-dimethyl-4-oxo-4-[[3-oxo-3-(2-sulfanylethylamino)propyl]amino]butoxy]-oxido-phosphoryl]oxy-oxido-phosphoryl]oxymethyl]-4-oxido-tetrahydrofuran-3-yl] phosphate
   79    81     1     0     0
SMALL
USER_CHARGES

@<TRIPOS>ATOM
      1 N1A         6.1093    3.4221   -2.1706 N.ar      1 COA        -0.5260
      2 C2A         4.9028    3.1932   -1.5982 C.ar      1 COA         0.6629
      3 N3A         3.8250    2.5648   -2.1163 N.ar      1 COA        -0.5260
      4 C4A         4.0802    2.1492   -3.3659 C.ar      1 COA         0.5212
      5 C5A         5.2577    2.3095   -4.0788 C.ar      1 COA         0.0088
      6 C6A         6.2970    2.9741   -3.4353 C.ar      1 COA         0.5212
      7 N6A         7.5267    3.1813   -4.0834 N.pl3     1 COA        -0.6025
      8 N7A         5.1483    1.7539   -5.3288 N.2       1 COA        -0.4271
      9 C8A         3.9267    1.2647   -5.3749 C.ar      1 COA         0.5691
     10 N9A         3.2402    1.4796   -4.2093 N.pl3     1 COA        -0.5033
     11 C1B         1.8139    1.0528   -3.9225 C.3       1 COA         0.2693
     12 C2B         1.5441    0.0924   -2.7404 C.3       1 COA         0.2008
     13 O2B         1.6560   -1.1661   -3.1231 O.co2     1 COA        -0.1615
     14 C3B         0.0825    0.4469   -2.4241 C.3       1 COA         0.1111
     15 O3B        -0.8371   -0.0985   -3.3754 O.3       1 COA         0.1618
     16 P3B        -2.4169   -0.2494   -2.9382 P.3       1 COA        -1.1921
     17 O7A        -2.4022   -1.1842   -1.7323 O.co2     1 COA         0.3195
     18 O8A        -3.0660   -0.8511   -4.1810 O.co2     1 COA         0.3195
     19 O9A        -2.8748    1.1724   -2.6264 O.co2     1 COA         0.3195
     20 C4B         0.0646    1.9600   -2.6151 C.3       1 COA         0.1111
     21 O4B         1.0421    2.2460   -3.6341 O.3       1 COA        -0.1436
     22 C5B         0.4465    2.7364   -1.3618 C.3       1 COA         0.1504
     23 O5B         0.3986    4.1249   -1.6460 O.3       1 COA         0.1618
     24 P1A         0.7670    5.1936   -0.4641 P.3       1 COA        -1.1062
     25 O1A         1.1289    6.5260   -1.0837 O.co2     1 COA         0.3195
     26 O2A         1.6876    4.5161    0.5275 O.co2     1 COA         0.3195
     27 O3A        -0.6886    5.3125    0.2679 O.3       1 COA         0.4672
     28 P2A        -1.1429    6.2040    1.5594 P.3       1 COA        -1.1062
     29 O4A        -2.6377    6.0612    1.7476 O.co2     1 COA         0.3195
     30 O5A        -0.1888    5.9134    2.6974 O.co2     1 COA         0.3195
     31 O6A        -0.8065    7.6957    0.9792 O.3       1 COA         0.1618
     32 CBP        -1.0090    9.5771   -0.5793 C.3       1 COA         0.0000
     33 CCP        -1.4652    8.1470   -0.1994 C.3       1 COA         0.1504
     34 CDP         0.5182    9.5632   -0.8289 C.3       1 COA         0.1179
     35 CEP        -1.6888   10.0085   -1.8940 C.3       1 COA         0.1179
     36 CAP        -1.3149   10.5877    0.5658 C.3       1 COA         0.0611
     37 OAP        -0.3519   11.6382    0.5524 O.3       1 COA        -0.2728
     38 C9P        -2.6876   11.2507    0.4734 C.2       1 COA         0.3561
     39 O9P        -2.8806   12.2731   -0.1822 O.2       1 COA        -0.2391
     40 N8P        -3.6636   10.5632    1.1768 N.am      1 COA        -0.1909
     41 C7P        -5.0458   10.9816    1.2180 C.3       1 COA         0.1160
     42 C6P        -5.2614   11.9255    2.3920 C.3       1 COA         0.0286
     43 C5P        -6.6983   12.4048    2.4937 C.2       1 COA         0.3561
     44 O5P        -7.5782   12.0625    1.7085 O.2       1 COA        -0.2391
     45 N4P        -6.8747   13.2634    3.5688 N.am      1 COA        -0.1909
     46 C3P        -8.1472   13.8663    3.8927 C.3       1 COA         0.1160
     47 C2P        -8.6388   13.4932    5.2817 C.3       1 COA         0.2607
     48 S1P        -7.4829   14.0136    6.5858 S.3       1 COA        -0.3539
     49 H2A         4.7878    3.5651   -0.5856 H         1 COA        -0.1369
     50 H61A        8.2460    3.7037   -3.6204 H         1 COA         0.2048
     51 H62A        7.6376    2.8871   -5.0353 H         1 COA         0.2048
     52 H8A         3.4866    0.7495   -6.2177 H         1 COA        -0.1292
     53 H1B         1.4348    0.6728   -4.9170 H         1 COA        -0.0393
     54 H2B         2.1376    0.4515   -1.8851 H         1 COA        -0.0393
     55 H3B        -0.2421    0.1333   -1.4258 H         1 COA        -0.0393
     56 H4B        -0.9063    2.3168   -2.9777 H         1 COA        -0.0393
     57 H51A        1.4605    2.4765   -1.0434 H         1 COA        -0.0393
     58 H52A       -0.2515    2.5189   -0.5478 H         1 COA        -0.0393
     59 H121       -1.2324    7.4355   -0.9984 H         1 COA        -0.0393
     60 H122       -2.5440    8.1138   -0.0133 H         1 COA        -0.0393
     61 H131        0.8796   10.5616   -1.1013 H         1 COA        -0.0393
     62 H132        0.7886    8.8842   -1.6454 H         1 COA        -0.0393
     63 H133        1.0681    9.2399    0.0618 H         1 COA        -0.0393
     64 H141       -1.3855   11.0192   -2.1904 H         1 COA        -0.0393
     65 H142       -2.7797   10.0132   -1.7903 H         1 COA        -0.0393
     66 H143       -1.4280    9.3402   -2.7211 H         1 COA        -0.0393
     67 H10        -1.2314   10.0854    1.5378 H         1 COA        -0.0393
     68 HO1        -0.4241   12.0681   -0.3139 H         1 COA         0.2010
     69 HN8        -3.4169    9.7096    1.6684 H         1 COA         0.0865
     70 H71        -5.3008   11.4743    0.2743 H         1 COA        -0.0393
     71 H72        -5.6863   10.0986    1.3096 H         1 COA        -0.0393
     72 H61        -4.6107   12.8034    2.2937 H         1 COA        -0.0393
     73 H62        -4.9968   11.4245    3.3316 H         1 COA        -0.0393
     74 HN4        -6.0732   13.4779    4.1548 H         1 COA         0.0865
     75 H31        -7.9959   14.9473    3.8339 H         1 COA        -0.0393
     76 H32        -8.8567   13.5812    3.1118 H         1 COA        -0.0393
     77 H21        -9.6165   13.9415    5.4859 H         1 COA        -0.0393
     78 H22        -8.7443   12.4058    5.3476 H         1 COA        -0.0393
     79 HS1        -6.4426   13.2947    6.1439 H         1 COA         0.1718
@<TRIPOS>BOND
     1    1    2 ar
     2    1    6 ar
     3    2    3 ar
     4    2   49 1
     5    3    4 ar
     6    4    5 ar
     7    4   10 ar
     8    5    6 ar
     9    5    8 ar
    10    6    7 1
    11    7   50 1
    12    7   51 1
    13    8    9 ar
    14    9   10 ar
    15    9   52 1
    16   10   11 1
    17   11   12 1
    18   11   21 1
    19   11   53 1
    20   12   13 1
    21   12   14 1
    22   12   54 1
    23   14   15 1
    24   14   20 1
    25   14   55 1
    26   15   16 1
    27   16   17 2
    28   16   18 1
    29   16   19 1
    30   20   21 1
    31   20   22 1
    32   20   56 1
    33   22   23 1
    34   22   57 1
    35   22   58 1
    36   23   24 1
    37   24   25 2
    38   24   26 1
    39   24   27 1
    40   27   28 1
    41   28   29 2
    42   28   30 1
    43   28   31 1
    44   31   33 1
    45   32   33 1
    46   32   34 1
    47   32   35 1
    48   32   36 1
    49   33   59 1
    50   33   60 1
    51   34   61 1
    52   34   62 1
    53   34   63 1
    54   35   64 1
    55   35   65 1
    56   35   66 1
    57   36   37 1
    58   36   38 1
    59   36   67 1
    60   37   68 1
    61   38   39 2
    62   38   40 am
    63   40   41 1
    64   40   69 1
    65   41   42 1
    66   41   70 1
    67   41   71 1
    68   42   43 1
    69   42   72 1
    70   42   73 1
    71   43   44 2
    72   43   45 am
    73   45   46 1
    74   45   74 1
    75   46   47 1
    76   46   75 1
    77   46   76 1
    78   47   48 1
    79   47   77 1
    80   47   78 1
    81   48   79 1
@<TRIPOS>SUBSTRUCTURE
     1 COA         1 GROUP 0 A     ****
@<TRIPOS>MOLECULE
[5-(6-aminopurin-9-yl)-2-[[[[3-hydroxy-2,2-dimethyl-4-oxo-4-[[3-oxo-3-(2-sulfanylethylamino)propyl]amino]butoxy]-oxido-phosphoryl]oxy-oxido-phosphoryl]oxymethyl]-4-oxido-tetrahydrofuran-3-yl] phosphate
   79    81     1     0     0
SMALL
USER_CHARGES

@<TRIPOS>ATOM
      1 N1A         6.3197    3.3711    0.1967 N.ar      1 COA        -0.5260
      2 C2A         5.0033    3.3256    0.5141 C.ar      1 COA         0.6629
      3 N3A         4.0730    2.4196    0.1418 N.ar      1 COA        -0.5260
      4 C4A         4.6208    1.4811   -0.6447 C.ar      1 COA         0.5212
      5 C5A         5.9423    1.3962   -1.0530 C.ar      1 COA         0.0088
      6 C6A         6.8050    2.3902   -0.6021 C.ar      1 COA         0.5212
      7 N6A         8.1621    2.3826   -0.9671 N.pl3     1 COA        -0.6025
      8 N7A         6.1335    0.2987   -1.8543 N.2       1 COA        -0.4271
      9 C8A         4.9500   -0.2731   -1.9316 C.ar      1 COA         0.5691
     10 N9A         4.0006    0.4065   -1.2155 N.pl3     1 COA        -0.5033
     11 C1B         2.5376    0.0288   -1.0907 C.3       1 COA         0.2693
     12 C2B         1.9579   -0.2640    0.3131 C.3       1 COA         0.2008
     13 O2B         2.1299   -1.5323    0.6368 O.co2     1 COA        -0.1615
     14 C3B         0.4729    0.0487    0.0699 C.3       1 COA         0.1111
     15 O3B        -0.1943   -0.9780   -0.6709 O.3       1 COA         0.1618
     16 P3B        -1.8364   -1.0586   -0.5907 P.3       1 COA        -1.1921
     17 O7A        -2.1459   -1.2889    0.8856 O.co2     1 COA         0.3195
     18 O8A        -2.1706   -2.2476   -1.4866 O.co2     1 COA         0.3195
     19 O9A        -2.3217    0.2823   -1.1335 O.co2     1 COA         0.3195
     20 C4B         0.5412    1.2713   -0.8394 C.3       1 COA         0.1111
     21 O4B         1.7485    1.1278   -1.6124 O.3       1 COA        -0.1436
     22 C5B         0.6184    2.5901   -0.0816 C.3       1 COA         0.1504
     23 O5B         0.6777    3.6562   -1.0149 O.3       1 COA         0.1618
     24 P1A         0.7670    5.1936   -0.4641 P.3       1 COA        -1.1062
     25 O1A         0.8194    6.1476   -1.6376 O.co2     1 COA         0.3195
     26 O2A         1.8029    5.2507    0.6375 O.co2     1 COA         0.3195
     27 O3A        -0.6886    5.3125    0.2679 O.3       1 COA         0.4672
     28 P2A        -1.1429    6.2040    1.5594 P.3       1 COA        -1.1062
     29 O4A        -2.6377    6.0612    1.7476 O.co2     1 COA         0.3195
     30 O5A        -0.1888    5.9134    2.6974 O.co2     1 COA         0.3195
     31 O6A        -0.8065    7.6957    0.9792 O.3       1 COA         0.1618
     32 CBP        -1.0463    9.4480   -0.7182 C.3       1 COA         0.0000
     33 CCP        -1.7297    8.3208    0.0940 C.3       1 COA         0.1504
     34 CDP         0.1097    8.8359   -1.5452 C.3       1 COA         0.1179
     35 CEP        -2.0542   10.0578   -1.7127 C.3       1 COA         0.1179
     36 CAP        -0.4581   10.5415    0.2222 C.3       1 COA         0.0611
     37 OAP         0.1628   11.5628   -0.5541 O.3       1 COA        -0.2728
     38 C9P        -1.4903   11.2331    1.1103 C.2       1 COA         0.3561
     39 O9P        -2.1297   12.2135    0.7334 O.2       1 COA        -0.2391
     40 N8P        -1.6312   10.6209    2.3453 N.am      1 COA        -0.1909
     41 C7P        -2.5657   11.0776    3.3480 C.3       1 COA         0.1160
     42 C6P        -2.0241   10.7635    4.7351 C.3       1 COA         0.0286
     43 C5P        -2.9609   11.2189    5.8395 C.2       1 COA         0.3561
     44 O5P        -4.0323   11.7788    5.6239 O.2       1 COA        -0.2391
     45 N4P        -2.4504   10.9241    7.0952 N.am      1 COA        -0.1909
     46 C3P        -3.1409   11.2518    8.3213 C.3       1 COA         0.1160
     47 C2P        -3.4555   10.0273    9.1649 C.3       1 COA         0.2607
     48 S1P        -4.5149    8.8379    8.2870 S.3       1 COA        -0.3539
     49 H2A         4.6492    4.1260    1.1552 H         1 COA        -0.1369
     50 H61A        8.7564    3.1335   -0.6708 H         1 COA         0.2048
     51 H62A        8.4991    1.6788   -1.5963 H         1 COA         0.2048
     52 H8A         4.7208   -1.1726   -2.4865 H         1 COA        -0.1292
     53 H1B         2.4085   -0.8200   -1.8256 H         1 COA        -0.0393
     54 H2B         2.3286    0.5212    0.9904 H         1 COA        -0.0393
     55 H3B        -0.0977    0.2245    0.9885 H         1 COA        -0.0393
     56 H4B        -0.2996    1.3083   -1.5416 H         1 COA        -0.0393
     57 H51A        1.5144    2.6204    0.5455 H         1 COA        -0.0393
     58 H52A       -0.2654    2.7227    0.5494 H         1 COA        -0.0393
     59 H121       -2.1262    7.5446   -0.5686 H         1 COA        -0.0393
     60 H122       -2.5562    8.7139    0.6956 H         1 COA        -0.0393
     61 H131        0.6194    9.6060   -2.1356 H         1 COA        -0.0393
     62 H132       -0.2524    8.0744   -2.2449 H         1 COA        -0.0393
     63 H133        0.8566    8.3597   -0.9005 H         1 COA        -0.0393
     64 H141       -1.5995   10.8607   -2.3043 H         1 COA        -0.0393
     65 H142       -2.9149   10.4873   -1.1878 H         1 COA        -0.0393
     66 H143       -2.4255    9.3094   -2.4205 H         1 COA        -0.0393
     67 H10         0.3192   10.1040    0.8613 H         1 COA        -0.0393
     68 HO1        -0.5280   11.9349   -1.1241 H         1 COA         0.2010
     69 HN8        -1.0789    9.7962    2.5598 H         1 COA         0.0865
     70 H71        -2.7228   12.1544    3.2294 H         1 COA        -0.0393
     71 H72        -3.5313   10.5867    3.1901 H         1 COA        -0.0393
     72 H61        -1.0540   11.2548    4.8807 H         1 COA        -0.0393
     73 H62        -1.8641    9.6832    4.8412 H         1 COA        -0.0393
     74 HN4        -1.5504   10.4568    7.1554 H         1 COA         0.0865
     75 H31        -2.4769   11.9201    8.8758 H         1 COA        -0.0393
     76 H32        -4.0400   11.8132    8.0547 H         1 COA        -0.0393
     77 H21        -2.5377    9.5144    9.4704 H         1 COA        -0.0393
     78 H22        -3.9867   10.3387   10.0697 H         1 COA        -0.0393
     79 HS1        -3.6680    8.6209    7.2721 H         1 COA         0.1718
@<TRIPOS>BOND
     1    1    2 ar
     2    1    6 ar
     3    2    3 ar
     4    2   49 1
     5    3    4 ar
     6    4    5 ar
     7    4   10 ar
     8    5    6 ar
     9    5    8 ar
    10    6    7 1
    11    7   50 1
    12    7   51 1
    13    8    9 ar
    14    9   10 ar
    15    9   52 1
    16   10   11 1
    17   11   12 1
    18   11   21 1
    19   11   53 1
    20   12   13 1
    21   12   14 1
    22   12   54 1
    23   14   15 1
    24   14   20 1
    25   14   55 1
    26   15   16 1
    27   16   17 2
    28   16   18 1
    29   16   19 1
    30   20   21 1
    31   20   22 1
    32   20   56 1
    33   22   23 1
    34   22   57 1
    35   22   58 1
    36   23   24 1
    37   24   25 2
    38   24   26 1
    39   24   27 1
    40   27   28 1
    41   28   29 2
    42   28   30 1
    43   28   31 1
    44   31   33 1
    45   32   33 1
    46   32   34 1
    47   32   35 1
    48   32   36 1
    49   33   59 1
    50   33   60 1
    51   34   61 1
    52   34   62 1
    53   34   63 1
    54   35   64 1
    55   35   65 1
    56   35   66 1
    57   36   37 1
    58   36   38 1
    59   36   67 1
    60   37   68 1
    61   38   39 2
    62   38   40 am
    63   40   41 1
    64   40   69 1
    65   41   42 1
    66   41   70 1
    67   41   71 1
    68   42   43 1
    69   42   72 1
    70   42   73 1
    71   43   44 2
    72   43   45 am
    73   45   46 1
    74   45   74 1
    75   46   47 1
    76   46   75 1
    77   46   76 1
    78   47   48 1
    79   47   77 1
    80   47   78 1
    81   48   79 1
@<TRIPOS>SUBSTRUCTURE
     1 COA         1 GROUP 0 A     ****
@<TRIPOS>MOLECULE
[5-(6-aminopurin-9-yl)-2-[[[[3-hydroxy-2,2-dimethyl-4-oxo-4-[[3-oxo-3-(2-sulfanylethylamino)propyl]amino]butoxy]-oxido-phosphoryl]oxy-oxido-phosphoryl]oxymethyl]-4-oxido-tetrahydrofuran-3-yl] phosphate
   79    81     1     0     0
SMALL
USER_CHARGES

@<TRIPOS>ATOM
      1 N1A         4.6908    0.9263    0.5284 N.ar      1 COA        -0.5260
      2 C2A         3.4193    1.3931    0.4919 C.ar      1 COA         0.6629
      3 N3A         2.4653    1.1803   -0.4405 N.ar      1 COA        -0.5260
      4 C4A         2.9338    0.3916   -1.4192 C.ar      1 COA         0.5212
      5 C5A         4.2020   -0.1580   -1.5185 C.ar      1 COA         0.0088
      6 C6A         5.0963    0.1348   -0.4937 C.ar      1 COA         0.5212
      7 N6A         6.4038   -0.3801   -0.5131 N.pl3     1 COA        -0.6025
      8 N7A         4.3170   -0.9111   -2.6598 N.2       1 COA        -0.4271
      9 C8A         3.1403   -0.8212   -3.2436 C.ar      1 COA         0.5691
     10 N9A         2.2683   -0.0422   -2.5302 N.pl3     1 COA        -0.5033
     11 C1B         0.8363    0.2748   -2.9142 C.3       1 COA         0.2693
     12 C2B        -0.3043   -0.1391   -1.9549 C.3       1 COA         0.2008
     13 O2B        -0.6991   -1.3747   -2.2004 O.co2     1 COA        -0.1615
     14 C3B        -1.3853    0.8773   -2.3558 C.3       1 COA         0.1111
     15 O3B        -2.0094    0.5576   -3.6033 O.3       1 COA         0.1618
     16 P3B        -3.4806    1.2180   -3.9334 P.3       1 COA        -1.1921
     17 O7A        -4.3962    0.7100   -2.8235 O.co2     1 COA         0.3195
     18 O8A        -3.8112    0.6588   -5.3140 O.co2     1 COA         0.3195
     19 O9A        -3.2466    2.7257   -3.9151 O.co2     1 COA         0.3195
     20 C4B        -0.5713    2.1464   -2.5855 C.3       1 COA         0.1111
     21 O4B         0.7211    1.7136   -3.0526 O.3       1 COA        -0.1436
     22 C5B        -0.3655    2.9745   -1.3239 C.3       1 COA         0.1504
     23 O5B         0.3986    4.1249   -1.6460 O.3       1 COA         0.1618
     24 P1A         0.7670    5.1936   -0.4641 P.3       1 COA        -1.1062
     25 O1A         1.1289    6.5260   -1.0837 O.co2     1 COA         0.3195
     26 O2A         1.6876    4.5161    0.5275 O.co2     1 COA         0.3195
     27 O3A        -0.6886    5.3125    0.2679 O.3       1 COA         0.4672
     28 P2A        -1.1429    6.2040    1.5594 P.3       1 COA        -1.1062
     29 O4A        -2.6377    6.0612    1.7476 O.co2     1 COA         0.3195
     30 O5A        -0.1888    5.9134    2.6974 O.co2     1 COA         0.3195
     31 O6A        -0.8065    7.6957    0.9792 O.3       1 COA         0.1618
     32 CBP        -1.0090    9.5771   -0.5793 C.3       1 COA         0.0000
     33 CCP        -1.4652    8.1470   -0.1994 C.3       1 COA         0.1504
     34 CDP         0.5182    9.5632   -0.8289 C.3       1 COA         0.1179
     35 CEP        -1.6888   10.0085   -1.8940 C.3       1 COA         0.1179
     36 CAP        -1.3149   10.5877    0.5658 C.3       1 COA         0.0611
     37 OAP        -2.7163   10.6149    0.8239 O.3       1 COA        -0.2728
     38 C9P        -0.6314   10.2649    1.8928 C.2       1 COA         0.3561
     39 O9P        -1.1331    9.5097    2.7236 O.2       1 COA        -0.2391
     40 N8P         0.5984   10.8887    2.0282 N.am      1 COA        -0.1909
     41 C7P         1.4450   10.7163    3.1861 C.3       1 COA         0.1160
     42 C6P         2.9047   10.8585    2.7801 C.3       1 COA         0.0286
     43 C5P         3.8519   10.6879    3.9543 C.2       1 COA         0.3561
     44 O5P         3.4693   10.4624    5.0992 O.2       1 COA        -0.2391
     45 N4P         5.1765   10.8208    3.5646 N.am      1 COA        -0.1909
     46 C3P         6.2826   10.7057    4.4870 C.3       1 COA         0.1160
     47 C2P         7.2389    9.5822    4.1220 C.3       1 COA         0.2607
     48 S1P         6.4208    7.9580    4.1039 S.3       1 COA        -0.3539
     49 H2A         3.1287    2.0232    1.3259 H         1 COA        -0.1369
     50 H61A        7.0472   -0.1189    0.2098 H         1 COA         0.2048
     51 H62A        6.7069   -0.9256   -1.2976 H         1 COA         0.2048
     52 H8A         2.8628   -1.2932   -4.1762 H         1 COA        -0.1292
     53 H1B         0.7316   -0.1451   -3.9582 H         1 COA        -0.0393
     54 H2B         0.0098    0.1350   -0.9357 H         1 COA        -0.0393
     55 H3B        -2.1756    1.0002   -1.6070 H         1 COA        -0.0393
     56 H4B        -1.0101    2.7804   -3.3646 H         1 COA        -0.0393
     57 H51A        0.1721    2.3946   -0.5677 H         1 COA        -0.0393
     58 H52A       -1.3279    3.2941   -0.9132 H         1 COA        -0.0393
     59 H121       -1.2324    7.4355   -0.9984 H         1 COA        -0.0393
     60 H122       -2.5440    8.1138   -0.0133 H         1 COA        -0.0393
     61 H131        0.8796   10.5616   -1.1013 H         1 COA        -0.0393
     62 H132        0.7886    8.8842   -1.6454 H         1 COA        -0.0393
     63 H133        1.0681    9.2399    0.0618 H         1 COA        -0.0393
     64 H141       -1.3855   11.0192   -2.1904 H         1 COA        -0.0393
     65 H142       -2.7797   10.0132   -1.7903 H         1 COA        -0.0393
     66 H143       -1.4280    9.3402   -2.7211 H         1 COA        -0.0393
     67 H10        -1.0237   11.5996    0.2569 H         1 COA        -0.0393
     68 HO1        -2.9668    9.7148    1.0837 H         1 COA         0.2010
     69 HN8         0.9463   11.4752    1.2758 H         1 COA         0.0865
     70 H71         1.1793   11.4637    3.9404 H         1 COA        -0.0393
     71 H72         1.2600    9.7300    3.6233 H         1 COA        -0.0393
     72 H61         3.0779   11.8474    2.3377 H         1 COA        -0.0393
     73 H62         3.1588   10.1097    2.0195 H         1 COA        -0.0393
     74 HN4         5.3780   11.0076    2.5867 H         1 COA         0.0865
     75 H31         6.8092   11.6630    4.4525 H         1 COA        -0.0393
     76 H32         5.8656   10.5852    5.4901 H         1 COA        -0.0393
     77 H21         7.6900    9.7541    3.1393 H         1 COA        -0.0393
     78 H22         8.0445    9.5388    4.8616 H         1 COA        -0.0393
     79 HS1         6.0408    7.9799    5.3882 H         1 COA         0.1718
@<TRIPOS>BOND
     1    1    2 ar
     2    1    6 ar
     3    2    3 ar
     4    2   49 1
     5    3    4 ar
     6    4    5 ar
     7    4   10 ar
     8    5    6 ar
     9    5    8 ar
    10    6    7 1
    11    7   50 1
    12    7   51 1
    13    8    9 ar
    14    9   10 ar
    15    9   52 1
    16   10   11 1
    17   11   12 1
    18   11   21 1
    19   11   53 1
    20   12   13 1
    21   12   14 1
    22   12   54 1
    23   14   15 1
    24   14   20 1
    25   14   55 1
    26   15   16 1
    27   16   17 2
    28   16   18 1
    29   16   19 1
    30   20   21 1
    31   20   22 1
    32   20   56 1
    33   22   23 1
    34   22   57 1
    35   22   58 1
    36   23   24 1
    37   24   25 2
    38   24   26 1
    39   24   27 1
    40   27   28 1
    41   28   29 2
    42   28   30 1
    43   28   31 1
    44   31   33 1
    45   32   33 1
    46   32   34 1
    47   32   35 1
    48   32   36 1
    49   33   59 1
    50   33   60 1
    51   34   61 1
    52   34   62 1
    53   34   63 1
    54   35   64 1
    55   35   65 1
    56   35   66 1
    57   36   37 1
    58   36   38 1
    59   36   67 1
    60   37   68 1
    61   38   39 2
    62   38   40 am
    63   40   41 1
    64   40   69 1
    65   41   42 1
    66   41   70 1
    67   41   71 1
    68   42   43 1
    69   42   72 1
    70   42   73 1
    71   43   44 2
    72   43   45 am
    73   45   46 1
    74   45   74 1
    75   46   47 1
    76   46   75 1
    77   46   76 1
    78   47   48 1
    79   47   77 1
    80   47   78 1
    81   48   79 1
@<TRIPOS>SUBSTRUCTURE
     1 COA         1 GROUP 0 A     ****
@<TRIPOS>MOLECULE
[5-(6-aminopurin-9-yl)-2-[[[[3-hydroxy-2,2-dimethyl-4-oxo-4-[[3-oxo-3-(2-sulfanylethylamino)propyl]amino]butoxy]-oxido-phosphoryl]oxy-oxido-phosphoryl]oxymethyl]-4-oxido-tetrahydrofuran-3-yl] phosphate
   79    81     1     0     0
SMALL
USER_CHARGES

@<TRIPOS>ATOM
      1 N1A         6.3197    3.3711    0.1967 N.ar      1 COA        -0.5260
      2 C2A         5.0033    3.3256    0.5141 C.ar      1 COA         0.6629
      3 N3A         4.0730    2.4196    0.1418 N.ar      1 COA        -0.5260
      4 C4A         4.6208    1.4811   -0.6447 C.ar      1 COA         0.5212
      5 C5A         5.9423    1.3962   -1.0530 C.ar      1 COA         0.0088
      6 C6A         6.8050    2.3902   -0.6021 C.ar      1 COA         0.5212
      7 N6A         8.1621    2.3826   -0.9671 N.pl3     1 COA        -0.6025
      8 N7A         6.1335    0.2987   -1.8543 N.2       1 COA        -0.4271
      9 C8A         4.9500   -0.2731   -1.9316 C.ar      1 COA         0.5691
     10 N9A         4.0006    0.4065   -1.2155 N.pl3     1 COA        -0.5033
     11 C1B         2.5376    0.0288   -1.0907 C.3       1 COA         0.2693
     12 C2B         1.9579   -0.2640    0.3131 C.3       1 COA         0.2008
     13 O2B         2.1299   -1.5323    0.6368 O.co2     1 COA        -0.1615
     14 C3B         0.4729    0.0487    0.0699 C.3       1 COA         0.1111
     15 O3B        -0.1943   -0.9780   -0.6709 O.3       1 COA         0.1618
     16 P3B        -1.8364   -1.0586   -0.5907 P.3       1 COA        -1.1921
     17 O7A        -2.1459   -1.2889    0.8856 O.co2     1 COA         0.3195
     18 O8A        -2.1706   -2.2476   -1.4866 O.co2     1 COA         0.3195
     19 O9A        -2.3217    0.2823   -1.1335 O.co2     1 COA         0.3195
     20 C4B         0.5412    1.2713   -0.8394 C.3       1 COA         0.1111
     21 O4B         1.7485    1.1278   -1.6124 O.3       1 COA        -0.1436
     22 C5B         0.6184    2.5901   -0.0816 C.3       1 COA         0.1504
     23 O5B         0.6777    3.6562   -1.0149 O.3       1 COA         0.1618
     24 P1A         0.7670    5.1936   -0.4641 P.3       1 COA        -1.1062
     25 O1A         0.8194    6.1476   -1.6376 O.co2     1 COA         0.3195
     26 O2A         1.8029    5.2507    0.6375 O.co2     1 COA         0.3195
     27 O3A        -0.6886    5.3125    0.2679 O.3       1 COA         0.4672
     28 P2A        -1.1429    6.2040    1.5594 P.3       1 COA        -1.1062
     29 O4A        -2.6377    6.0612    1.7476 O.co2     1 COA         0.3195
     30 O5A        -0.1888    5.9134    2.6974 O.co2     1 COA         0.3195
     31 O6A        -0.8065    7.6957    0.9792 O.3       1 COA         0.1618
     32 CBP        -1.0463    9.4480   -0.7182 C.3       1 COA         0.0000
     33 CCP        -1.7297    8.3208    0.0940 C.3       1 COA         0.1504
     34 CDP         0.1097    8.8359   -1.5452 C.3       1 COA         0.1179
     35 CEP        -2.0542   10.0578   -1.7127 C.3       1 COA         0.1179
     36 CAP        -0.4581   10.5415    0.2222 C.3       1 COA         0.0611
     37 OAP         0.1628   11.5628   -0.5541 O.3       1 COA        -0.2728
     38 C9P        -1.4903   11.2331    1.1103 C.2       1 COA         0.3561
     39 O9P        -2.1297   12.2135    0.7334 O.2       1 COA        -0.2391
     40 N8P        -1.6312   10.6209    2.3453 N.am      1 COA        -0.1909
     41 C7P        -2.5657   11.0776    3.3480 C.3       1 COA         0.1160
     42 C6P        -3.9028   10.3754    3.1609 C.3       1 COA         0.0286
     43 C5P        -3.7873    8.8668    3.2854 C.2       1 COA         0.3561
     44 O5P        -2.7267    8.2902    3.5103 O.2       1 COA        -0.2391
     45 N4P        -5.0152    8.2452    3.1120 N.am      1 COA        -0.1909
     46 C3P        -5.1871    6.8122    3.1785 C.3       1 COA         0.1160
     47 C2P        -6.5646    6.4072    3.6771 C.3       1 COA         0.2607
     48 S1P        -6.9068    7.0384    5.3481 S.3       1 COA        -0.3539
     49 H2A         4.6492    4.1260    1.1552 H         1 COA        -0.1369
     50 H61A        8.7564    3.1335   -0.6708 H         1 COA         0.2048
     51 H62A        8.4991    1.6788   -1.5963 H         1 COA         0.2048
     52 H8A         4.7208   -1.1726   -2.4865 H         1 COA        -0.1292
     53 H1B         2.4085   -0.8200   -1.8256 H         1 COA        -0.0393
     54 H2B         2.3286    0.5212    0.9904 H         1 COA        -0.0393
     55 H3B        -0.0977    0.2245    0.9885 H         1 COA        -0.0393
     56 H4B        -0.2996    1.3083   -1.5416 H         1 COA        -0.0393
     57 H51A        1.5144    2.6204    0.5455 H         1 COA        -0.0393
     58 H52A       -0.2654    2.7227    0.5494 H         1 COA        -0.0393
     59 H121       -2.1262    7.5446   -0.5686 H         1 COA        -0.0393
     60 H122       -2.5562    8.7139    0.6956 H         1 COA        -0.0393
     61 H131        0.6194    9.6060   -2.1356 H         1 COA        -0.0393
     62 H132       -0.2524    8.0744   -2.2449 H         1 COA        -0.0393
     63 H133        0.8566    8.3597   -0.9005 H         1 COA        -0.0393
     64 H141       -1.5995   10.8607   -2.3043 H         1 COA        -0.0393
     65 H142       -2.9149   10.4873   -1.1878 H         1 COA        -0.0393
     66 H143       -2.4255    9.3094   -2.4205 H         1 COA        -0.0393
     67 H10         0.3192   10.1040    0.8613 H         1 COA        -0.0393
     68 HO1        -0.5280   11.9349   -1.1241 H         1 COA         0.2010
     69 HN8        -1.0789    9.7962    2.5598 H         1 COA         0.0865
     70 H71        -2.1565   10.8706    4.3420 H         1 COA        -0.0393
     71 H72        -2.6837   12.1625    3.2621 H         1 COA        -0.0393
     72 H61        -4.3161   10.6097    2.1720 H         1 COA        -0.0393
     73 H62        -4.6223   10.7299    3.9096 H         1 COA        -0.0393
     74 HN4        -5.8302    8.8235    2.9300 H         1 COA         0.0865
     75 H31        -5.0399    6.4400    2.1612 H         1 COA        -0.0393
     76 H32        -4.3857    6.4115    3.8044 H         1 COA        -0.0393
     77 H21        -7.3482    6.7681    3.0031 H         1 COA        -0.0393
     78 H22        -6.6280    5.3153    3.7164 H         1 COA        -0.0393
     79 HS1        -6.7791    8.3347    5.0354 H         1 COA         0.1718
@<TRIPOS>BOND
     1    1    2 ar
     2    1    6 ar
     3    2    3 ar
     4    2   49 1
     5    3    4 ar
     6    4    5 ar
     7    4   10 ar
     8    5    6 ar
     9    5    8 ar
    10    6    7 1
    11    7   50 1
    12    7   51 1
    13    8    9 ar
    14    9   10 ar
    15    9   52 1
    16   10   11 1
    17   11   12 1
    18   11   21 1
    19   11   53 1
    20   12   13 1
    21   12   14 1
    22   12   54 1
    23   14   15 1
    24   14   20 1
    25   14   55 1
    26   15   16 1
    27   16   17 2
    28   16   18 1
    29   16   19 1
    30   20   21 1
    31   20   22 1
    32   20   56 1
    33   22   23 1
    34   22   57 1
    35   22   58 1
    36   23   24 1
    37   24   25 2
    38   24   26 1
    39   24   27 1
    40   27   28 1
    41   28   29 2
    42   28   30 1
    43   28   31 1
    44   31   33 1
    45   32   33 1
    46   32   34 1
    47   32   35 1
    48   32   36 1
    49   33   59 1
    50   33   60 1
    51   34   61 1
    52   34   62 1
    53   34   63 1
    54   35   64 1
    55   35   65 1
    56   35   66 1
    57   36   37 1
    58   36   38 1
    59   36   67 1
    60   37   68 1
    61   38   39 2
    62   38   40 am
    63   40   41 1
    64   40   69 1
    65   41   42 1
    66   41   70 1
    67   41   71 1
    68   42   43 1
    69   42   72 1
    70   42   73 1
    71   43   44 2
    72   43   45 am
    73   45   46 1
    74   45   74 1
    75   46   47 1
    76   46   75 1
    77   46   76 1
    78   47   48 1
    79   47   77 1
    80   47   78 1
    81   48   79 1
@<TRIPOS>SUBSTRUCTURE
     1 COA         1 GROUP 0 A     ****
@<TRIPOS>MOLECULE
[5-(6-aminopurin-9-yl)-2-[[[[3-hydroxy-2,2-dimethyl-4-oxo-4-[[3-oxo-3-(2-sulfanylethylamino)propyl]amino]butoxy]-oxido-phosphoryl]oxy-oxido-phosphoryl]oxymethyl]-4-oxido-tetrahydrofuran-3-yl] phosphate
   79    81     1     0     0
SMALL
USER_CHARGES

@<TRIPOS>ATOM
      1 N1A         4.6908    0.9263    0.5284 N.ar      1 COA        -0.5260
      2 C2A         3.4193    1.3931    0.4919 C.ar      1 COA         0.6629
      3 N3A         2.4653    1.1803   -0.4405 N.ar      1 COA        -0.5260
      4 C4A         2.9338    0.3916   -1.4192 C.ar      1 COA         0.5212
      5 C5A         4.2020   -0.1580   -1.5185 C.ar      1 COA         0.0088
      6 C6A         5.0963    0.1348   -0.4937 C.ar      1 COA         0.5212
      7 N6A         6.4038   -0.3801   -0.5131 N.pl3     1 COA        -0.6025
      8 N7A         4.3170   -0.9111   -2.6598 N.2       1 COA        -0.4271
      9 C8A         3.1403   -0.8212   -3.2436 C.ar      1 COA         0.5691
     10 N9A         2.2683   -0.0422   -2.5302 N.pl3     1 COA        -0.5033
     11 C1B         0.8363    0.2748   -2.9142 C.3       1 COA         0.2693
     12 C2B        -0.3043   -0.1391   -1.9549 C.3       1 COA         0.2008
     13 O2B        -0.6991   -1.3747   -2.2004 O.co2     1 COA        -0.1615
     14 C3B        -1.3853    0.8773   -2.3558 C.3       1 COA         0.1111
     15 O3B        -2.0094    0.5576   -3.6033 O.3       1 COA         0.1618
     16 P3B        -3.4806    1.2180   -3.9334 P.3       1 COA        -1.1921
     17 O7A        -4.3962    0.7100   -2.8235 O.co2     1 COA         0.3195
     18 O8A        -3.8112    0.6588   -5.3140 O.co2     1 COA         0.3195
     19 O9A        -3.2466    2.7257   -3.9151 O.co2     1 COA         0.3195
     20 C4B        -0.5713    2.1464   -2.5855 C.3       1 COA         0.1111
     21 O4B         0.7211    1.7136   -3.0526 O.3       1 COA        -0.1436
     22 C5B        -0.3655    2.9745   -1.3239 C.3       1 COA         0.1504
     23 O5B         0.3986    4.1249   -1.6460 O.3       1 COA         0.1618
     24 P1A         0.7670    5.1936   -0.4641 P.3       1 COA        -1.1062
     25 O1A         1.1289    6.5260   -1.0837 O.co2     1 COA         0.3195
     26 O2A         1.6876    4.5161    0.5275 O.co2     1 COA         0.3195
     27 O3A        -0.6886    5.3125    0.2679 O.3       1 COA         0.4672
     28 P2A        -1.1429    6.2040    1.5594 P.3       1 COA        -1.1062
     29 O4A        -2.6377    6.0612    1.7476 O.co2     1 COA         0.3195
     30 O5A        -0.1888    5.9134    2.6974 O.co2     1 COA         0.3195
     31 O6A        -0.8065    7.6957    0.9792 O.3       1 COA         0.1618
     32 CBP        -1.0090    9.5771   -0.5793 C.3       1 COA         0.0000
     33 CCP        -1.4652    8.1470   -0.1994 C.3       1 COA         0.1504
     34 CDP         0.5182    9.5632   -0.8289 C.3       1 COA         0.1179
     35 CEP        -1.6888   10.0085   -1.8940 C.3       1 COA         0.1179
     36 CAP        -1.3149   10.5877    0.5658 C.3       1 COA         0.0611
     37 OAP        -0.8841   11.8921    0.1862 O.3       1 COA        -0.2728
     38 C9P        -2.7940   10.7032    0.9282 C.2       1 COA         0.3561
     39 O9P        -3.6570   10.0067    0.3969 O.2       1 COA        -0.2391
     40 N8P        -3.0315   11.6427    1.9186 N.am      1 COA        -0.1909
     41 C7P        -4.3486   11.9130    2.4473 C.3       1 COA         0.1160
     42 C6P        -5.0118   13.0149    1.6339 C.3       1 COA         0.0286
     43 C5P        -6.4041   13.3494    2.1383 C.2       1 COA         0.3561
     44 O5P        -6.7392   13.2326    3.3139 O.2       1 COA        -0.2391
     45 N4P        -7.2257   13.7922    1.1121 N.am      1 COA        -0.1909
     46 C3P        -8.6035   14.1753    1.3180 C.3       1 COA         0.1160
     47 C2P        -9.5684   13.0122    1.1558 C.3       1 COA         0.2607
     48 S1P       -11.2982   13.5088    1.4177 S.3       1 COA        -0.3539
     49 H2A         3.1287    2.0232    1.3259 H         1 COA        -0.1369
     50 H61A        7.0472   -0.1189    0.2098 H         1 COA         0.2048
     51 H62A        6.7069   -0.9256   -1.2976 H         1 COA         0.2048
     52 H8A         2.8628   -1.2932   -4.1762 H         1 COA        -0.1292
     53 H1B         0.7316   -0.1451   -3.9582 H         1 COA        -0.0393
     54 H2B         0.0098    0.1350   -0.9357 H         1 COA        -0.0393
     55 H3B        -2.1756    1.0002   -1.6070 H         1 COA        -0.0393
     56 H4B        -1.0101    2.7804   -3.3646 H         1 COA        -0.0393
     57 H51A        0.1721    2.3946   -0.5677 H         1 COA        -0.0393
     58 H52A       -1.3279    3.2941   -0.9132 H         1 COA        -0.0393
     59 H121       -1.2324    7.4355   -0.9984 H         1 COA        -0.0393
     60 H122       -2.5440    8.1138   -0.0133 H         1 COA        -0.0393
     61 H131        0.8796   10.5616   -1.1013 H         1 COA        -0.0393
     62 H132        0.7886    8.8842   -1.6454 H         1 COA        -0.0393
     63 H133        1.0681    9.2399    0.0618 H         1 COA        -0.0393
     64 H141       -1.3855   11.0192   -2.1904 H         1 COA        -0.0393
     65 H142       -2.7797   10.0132   -1.7903 H         1 COA        -0.0393
     66 H143       -1.4280    9.3402   -2.7211 H         1 COA        -0.0393
     67 H10        -0.7524   10.3112    1.4665 H         1 COA        -0.0393
     68 HO1        -1.3767   12.1229   -0.6167 H         1 COA         0.2010
     69 HN8        -2.2509   12.1532    2.3202 H         1 COA         0.0865
     70 H71        -4.9450   10.9957    2.4135 H         1 COA        -0.0393
     71 H72        -4.2610   12.2077    3.4979 H         1 COA        -0.0393
     72 H61        -5.0890   12.7122    0.5822 H         1 COA        -0.0393
     73 H62        -4.4031   13.9272    1.6689 H         1 COA        -0.0393
     74 HN4        -6.8414   13.8497    0.1736 H         1 COA         0.0865
     75 H31        -8.6628   14.5631    2.3384 H         1 COA        -0.0393
     76 H32        -8.8249   14.9960    0.6311 H         1 COA        -0.0393
     77 H21        -9.4827   12.5668    0.1593 H         1 COA        -0.0393
     78 H22        -9.3304   12.2398    1.8937 H         1 COA        -0.0393
     79 HS1       -11.1318   13.9317    2.6778 H         1 COA         0.1718
@<TRIPOS>BOND
     1    1    2 ar
     2    1    6 ar
     3    2    3 ar
     4    2   49 1
     5    3    4 ar
     6    4    5 ar
     7    4   10 ar
     8    5    6 ar
     9    5    8 ar
    10    6    7 1
    11    7   50 1
    12    7   51 1
    13    8    9 ar
    14    9   10 ar
    15    9   52 1
    16   10   11 1
    17   11   12 1
    18   11   21 1
    19   11   53 1
    20   12   13 1
    21   12   14 1
    22   12   54 1
    23   14   15 1
    24   14   20 1
    25   14   55 1
    26   15   16 1
    27   16   17 2
    28   16   18 1
    29   16   19 1
    30   20   21 1
    31   20   22 1
    32   20   56 1
    33   22   23 1
    34   22   57 1
    35   22   58 1
    36   23   24 1
    37   24   25 2
    38   24   26 1
    39   24   27 1
    40   27   28 1
    41   28   29 2
    42   28   30 1
    43   28   31 1
    44   31   33 1
    45   32   33 1
    46   32   34 1
    47   32   35 1
    48   32   36 1
    49   33   59 1
    50   33   60 1
    51   34   61 1
    52   34   62 1
    53   34   63 1
    54   35   64 1
    55   35   65 1
    56   35   66 1
    57   36   37 1
    58   36   38 1
    59   36   67 1
    60   37   68 1
    61   38   39 2
    62   38   40 am
    63   40   41 1
    64   40   69 1
    65   41   42 1
    66   41   70 1
    67   41   71 1
    68   42   43 1
    69   42   72 1
    70   42   73 1
    71   43   44 2
    72   43   45 am
    73   45   46 1
    74   45   74 1
    75   46   47 1
    76   46   75 1
    77   46   76 1
    78   47   48 1
    79   47   77 1
    80   47   78 1
    81   48   79 1
@<TRIPOS>SUBSTRUCTURE
     1 COA         1 GROUP 0 A     ****
@<TRIPOS>MOLECULE
[5-(6-aminopurin-9-yl)-2-[[[[3-hydroxy-2,2-dimethyl-4-oxo-4-[[3-oxo-3-(2-sulfanylethylamino)propyl]amino]butoxy]-oxido-phosphoryl]oxy-oxido-phosphoryl]oxymethyl]-4-oxido-tetrahydrofuran-3-yl] phosphate
   79    81     1     0     0
SMALL
USER_CHARGES

@<TRIPOS>ATOM
      1 N1A         6.3197    3.3711    0.1967 N.ar      1 COA        -0.5260
      2 C2A         5.0033    3.3256    0.5141 C.ar      1 COA         0.6629
      3 N3A         4.0730    2.4196    0.1418 N.ar      1 COA        -0.5260
      4 C4A         4.6208    1.4811   -0.6447 C.ar      1 COA         0.5212
      5 C5A         5.9423    1.3962   -1.0530 C.ar      1 COA         0.0088
      6 C6A         6.8050    2.3902   -0.6021 C.ar      1 COA         0.5212
      7 N6A         8.1621    2.3826   -0.9671 N.pl3     1 COA        -0.6025
      8 N7A         6.1335    0.2987   -1.8543 N.2       1 COA        -0.4271
      9 C8A         4.9500   -0.2731   -1.9316 C.ar      1 COA         0.5691
     10 N9A         4.0006    0.4065   -1.2155 N.pl3     1 COA        -0.5033
     11 C1B         2.5376    0.0288   -1.0907 C.3       1 COA         0.2693
     12 C2B         1.9579   -0.2640    0.3131 C.3       1 COA         0.2008
     13 O2B         2.1299   -1.5323    0.6368 O.co2     1 COA        -0.1615
     14 C3B         0.4729    0.0487    0.0699 C.3       1 COA         0.1111
     15 O3B        -0.1943   -0.9780   -0.6709 O.3       1 COA         0.1618
     16 P3B        -1.8364   -1.0586   -0.5907 P.3       1 COA        -1.1921
     17 O7A        -2.1459   -1.2889    0.8856 O.co2     1 COA         0.3195
     18 O8A        -2.1706   -2.2476   -1.4866 O.co2     1 COA         0.3195
     19 O9A        -2.3217    0.2823   -1.1335 O.co2     1 COA         0.3195
     20 C4B         0.5412    1.2713   -0.8394 C.3       1 COA         0.1111
     21 O4B         1.7485    1.1278   -1.6124 O.3       1 COA        -0.1436
     22 C5B         0.6184    2.5901   -0.0816 C.3       1 COA         0.1504
     23 O5B         0.6777    3.6562   -1.0149 O.3       1 COA         0.1618
     24 P1A         0.7670    5.1936   -0.4641 P.3       1 COA        -1.1062
     25 O1A         0.8194    6.1476   -1.6376 O.co2     1 COA         0.3195
     26 O2A         1.8029    5.2507    0.6375 O.co2     1 COA         0.3195
     27 O3A        -0.6886    5.3125    0.2679 O.3       1 COA         0.4672
     28 P2A        -1.1429    6.2040    1.5594 P.3       1 COA        -1.1062
     29 O4A        -2.6377    6.0612    1.7476 O.co2     1 COA         0.3195
     30 O5A        -0.1888    5.9134    2.6974 O.co2     1 COA         0.3195
     31 O6A        -0.8065    7.6957    0.9792 O.3       1 COA         0.1618
     32 CBP        -1.0090    9.5771   -0.5793 C.3       1 COA         0.0000
     33 CCP        -1.4652    8.1470   -0.1994 C.3       1 COA         0.1504
     34 CDP         0.5182    9.5632   -0.8289 C.3       1 COA         0.1179
     35 CEP        -1.6888   10.0085   -1.8940 C.3       1 COA         0.1179
     36 CAP        -1.3149   10.5877    0.5658 C.3       1 COA         0.0611
     37 OAP        -2.6150   11.1430    0.3849 O.3       1 COA        -0.2728
     38 C9P        -1.2888    9.9815    1.9673 C.2       1 COA         0.3561
     39 O9P        -2.2761    9.4494    2.4714 O.2       1 COA        -0.2391
     40 N8P        -0.0453   10.0792    2.5706 N.am      1 COA        -0.1909
     41 C7P         0.2338    9.5548    3.8876 C.3       1 COA         0.1160
     42 C6P        -0.0469   10.6226    4.9350 C.3       1 COA         0.0286
     43 C5P         0.2269   10.1355    6.3466 C.2       1 COA         0.3561
     44 O5P         0.6281    9.0031    6.6010 O.2       1 COA        -0.2391
     45 N4P        -0.0346   11.1218    7.2862 N.am      1 COA        -0.1909
     46 C3P         0.1407   10.9210    8.7062 C.3       1 COA         0.1160
     47 C2P         1.5366   11.2859    9.1844 C.3       1 COA         0.2607
     48 S1P         1.7429   11.0282   10.9729 S.3       1 COA        -0.3539
     49 H2A         4.6492    4.1260    1.1552 H         1 COA        -0.1369
     50 H61A        8.7564    3.1335   -0.6708 H         1 COA         0.2048
     51 H62A        8.4991    1.6788   -1.5963 H         1 COA         0.2048
     52 H8A         4.7208   -1.1726   -2.4865 H         1 COA        -0.1292
     53 H1B         2.4085   -0.8200   -1.8256 H         1 COA        -0.0393
     54 H2B         2.3286    0.5212    0.9904 H         1 COA        -0.0393
     55 H3B        -0.0977    0.2245    0.9885 H         1 COA        -0.0393
     56 H4B        -0.2996    1.3083   -1.5416 H         1 COA        -0.0393
     57 H51A        1.5144    2.6204    0.5455 H         1 COA        -0.0393
     58 H52A       -0.2654    2.7227    0.5494 H         1 COA        -0.0393
     59 H121       -1.2324    7.4355   -0.9984 H         1 COA        -0.0393
     60 H122       -2.5440    8.1138   -0.0133 H         1 COA        -0.0393
     61 H131        0.8796   10.5616   -1.1013 H         1 COA        -0.0393
     62 H132        0.7886    8.8842   -1.6454 H         1 COA        -0.0393
     63 H133        1.0681    9.2399    0.0618 H         1 COA        -0.0393
     64 H141       -1.3855   11.0192   -2.1904 H         1 COA        -0.0393
     65 H142       -2.7797   10.0132   -1.7903 H         1 COA        -0.0393
     66 H143       -1.4280    9.3402   -2.7211 H         1 COA        -0.0393
     67 H10        -0.6003   11.4196    0.5288 H         1 COA        -0.0393
     68 HO1        -3.2380   10.4002    0.4064 H         1 COA         0.2010
     69 HN8         0.7221   10.5122    2.0658 H         1 COA         0.0865
     70 H71        -0.3872    8.6704    4.0616 H         1 COA        -0.0393
     71 H72         1.2796    9.2346    3.9331 H         1 COA        -0.0393
     72 H61        -1.0952   10.9409    4.8767 H         1 COA        -0.0393
     73 H62         0.5754   11.5067    4.7477 H         1 COA        -0.0393
     74 HN4        -0.3641   12.0261    6.9613 H         1 COA         0.0865
     75 H31        -0.5958   11.5618    9.1979 H         1 COA        -0.0393
     76 H32        -0.1142    9.8815    8.9273 H         1 COA        -0.0393
     77 H21         2.2975   10.6990    8.6596 H         1 COA        -0.0393
     78 H22         1.7238   12.3444    8.9787 H         1 COA        -0.0393
     79 HS1         0.7783   11.8789   11.3475 H         1 COA         0.1718
@<TRIPOS>BOND
     1    1    2 ar
     2    1    6 ar
     3    2    3 ar
     4    2   49 1
     5    3    4 ar
     6    4    5 ar
     7    4   10 ar
     8    5    6 ar
     9    5    8 ar
    10    6    7 1
    11    7   50 1
    12    7   51 1
    13    8    9 ar
    14    9   10 ar
    15    9   52 1
    16   10   11 1
    17   11   12 1
    18   11   21 1
    19   11   53 1
    20   12   13 1
    21   12   14 1
    22   12   54 1
    23   14   15 1
    24   14   20 1
    25   14   55 1
    26   15   16 1
    27   16   17 2
    28   16   18 1
    29   16   19 1
    30   20   21 1
    31   20   22 1
    32   20   56 1
    33   22   23 1
    34   22   57 1
    35   22   58 1
    36   23   24 1
    37   24   25 2
    38   24   26 1
    39   24   27 1
    40   27   28 1
    41   28   29 2
    42   28   30 1
    43   28   31 1
    44   31   33 1
    45   32   33 1
    46   32   34 1
    47   32   35 1
    48   32   36 1
    49   33   59 1
    50   33   60 1
    51   34   61 1
    52   34   62 1
    53   34   63 1
    54   35   64 1
    55   35   65 1
    56   35   66 1
    57   36   37 1
    58   36   38 1
    59   36   67 1
    60   37   68 1
    61   38   39 2
    62   38   40 am
    63   40   41 1
    64   40   69 1
    65   41   42 1
    66   41   70 1
    67   41   71 1
    68   42   43 1
    69   42   72 1
    70   42   73 1
    71   43   44 2
    72   43   45 am
    73   45   46 1
    74   45   74 1
    75   46   47 1
    76   46   75 1
    77   46   76 1
    78   47   48 1
    79   47   77 1
    80   47   78 1
    81   48   79 1
@<TRIPOS>SUBSTRUCTURE
     1 COA         1 GROUP 0 A     ****
@<TRIPOS>MOLECULE
[5-(6-aminopurin-9-yl)-2-[[[[3-hydroxy-2,2-dimethyl-4-oxo-4-[[3-oxo-3-(2-sulfanylethylamino)propyl]amino]butoxy]-oxido-phosphoryl]oxy-oxido-phosphoryl]oxymethyl]-4-oxido-tetrahydrofuran-3-yl] phosphate
   79    81     1     0     0
SMALL
USER_CHARGES

@<TRIPOS>ATOM
      1 N1A         6.3197    3.3711    0.1967 N.ar      1 COA        -0.5260
      2 C2A         5.0033    3.3256    0.5141 C.ar      1 COA         0.6629
      3 N3A         4.0730    2.4196    0.1418 N.ar      1 COA        -0.5260
      4 C4A         4.6208    1.4811   -0.6447 C.ar      1 COA         0.5212
      5 C5A         5.9423    1.3962   -1.0530 C.ar      1 COA         0.0088
      6 C6A         6.8050    2.3902   -0.6021 C.ar      1 COA         0.5212
      7 N6A         8.1621    2.3826   -0.9671 N.pl3     1 COA        -0.6025
      8 N7A         6.1335    0.2987   -1.8543 N.2       1 COA        -0.4271
      9 C8A         4.9500   -0.2731   -1.9316 C.ar      1 COA         0.5691
     10 N9A         4.0006    0.4065   -1.2155 N.pl3     1 COA        -0.5033
     11 C1B         2.5376    0.0288   -1.0907 C.3       1 COA         0.2693
     12 C2B         1.9579   -0.2640    0.3131 C.3       1 COA         0.2008
     13 O2B         2.1299   -1.5323    0.6368 O.co2     1 COA        -0.1615
     14 C3B         0.4729    0.0487    0.0699 C.3       1 COA         0.1111
     15 O3B        -0.1943   -0.9780   -0.6709 O.3       1 COA         0.1618
     16 P3B        -1.8364   -1.0586   -0.5907 P.3       1 COA        -1.1921
     17 O7A        -2.1459   -1.2889    0.8856 O.co2     1 COA         0.3195
     18 O8A        -2.1706   -2.2476   -1.4866 O.co2     1 COA         0.3195
     19 O9A        -2.3217    0.2823   -1.1335 O.co2     1 COA         0.3195
     20 C4B         0.5412    1.2713   -0.8394 C.3       1 COA         0.1111
     21 O4B         1.7485    1.1278   -1.6124 O.3       1 COA        -0.1436
     22 C5B         0.6184    2.5901   -0.0816 C.3       1 COA         0.1504
     23 O5B         0.6777    3.6562   -1.0149 O.3       1 COA         0.1618
     24 P1A         0.7670    5.1936   -0.4641 P.3       1 COA        -1.1062
     25 O1A         0.8194    6.1476   -1.6376 O.co2     1 COA         0.3195
     26 O2A         1.8029    5.2507    0.6375 O.co2     1 COA         0.3195
     27 O3A        -0.6886    5.3125    0.2679 O.3       1 COA         0.4672
     28 P2A        -1.1429    6.2040    1.5594 P.3       1 COA        -1.1062
     29 O4A        -2.6377    6.0612    1.7476 O.co2     1 COA         0.3195
     30 O5A        -0.1888    5.9134    2.6974 O.co2     1 COA         0.3195
     31 O6A        -0.8065    7.6957    0.9792 O.3       1 COA         0.1618
     32 CBP        -1.0090    9.5771   -0.5793 C.3       1 COA         0.0000
     33 CCP        -1.4652    8.1470   -0.1994 C.3       1 COA         0.1504
     34 CDP         0.5182    9.5632   -0.8289 C.3       1 COA         0.1179
     35 CEP        -1.6888   10.0085   -1.8940 C.3       1 COA         0.1179
     36 CAP        -1.3149   10.5877    0.5658 C.3       1 COA         0.0611
     37 OAP        -2.6150   11.1430    0.3849 O.3       1 COA        -0.2728
     38 C9P        -1.2888    9.9815    1.9673 C.2       1 COA         0.3561
     39 O9P        -2.2761    9.4494    2.4714 O.2       1 COA        -0.2391
     40 N8P        -0.0453   10.0792    2.5706 N.am      1 COA        -0.1909
     41 C7P         0.2338    9.5548    3.8876 C.3       1 COA         0.1160
     42 C6P        -0.0469   10.6226    4.9350 C.3       1 COA         0.0286
     43 C5P         0.8040   11.8645    4.7387 C.2       1 COA         0.3561
     44 O5P         1.9284   11.8379    4.2457 O.2       1 COA        -0.2391
     45 N4P         0.1524   13.0050    5.1845 N.am      1 COA        -0.1909
     46 C3P         0.7397   14.3232    5.1165 C.3       1 COA         0.1160
     47 C2P        -0.0782   15.2893    4.2750 C.3       1 COA         0.2607
     48 S1P        -0.2597   14.7241    2.5559 S.3       1 COA        -0.3539
     49 H2A         4.6492    4.1260    1.1552 H         1 COA        -0.1369
     50 H61A        8.7564    3.1335   -0.6708 H         1 COA         0.2048
     51 H62A        8.4991    1.6788   -1.5963 H         1 COA         0.2048
     52 H8A         4.7208   -1.1726   -2.4865 H         1 COA        -0.1292
     53 H1B         2.4085   -0.8200   -1.8256 H         1 COA        -0.0393
     54 H2B         2.3286    0.5212    0.9904 H         1 COA        -0.0393
     55 H3B        -0.0977    0.2245    0.9885 H         1 COA        -0.0393
     56 H4B        -0.2996    1.3083   -1.5416 H         1 COA        -0.0393
     57 H51A        1.5144    2.6204    0.5455 H         1 COA        -0.0393
     58 H52A       -0.2654    2.7227    0.5494 H         1 COA        -0.0393
     59 H121       -1.2324    7.4355   -0.9984 H         1 COA        -0.0393
     60 H122       -2.5440    8.1138   -0.0133 H         1 COA        -0.0393
     61 H131        0.8796   10.5616   -1.1013 H         1 COA        -0.0393
     62 H132        0.7886    8.8842   -1.6454 H         1 COA        -0.0393
     63 H133        1.0681    9.2399    0.0618 H         1 COA        -0.0393
     64 H141       -1.3855   11.0192   -2.1904 H         1 COA        -0.0393
     65 H142       -2.7797   10.0132   -1.7903 H         1 COA        -0.0393
     66 H143       -1.4280    9.3402   -2.7211 H         1 COA        -0.0393
     67 H10        -0.6003   11.4196    0.5288 H         1 COA        -0.0393
     68 HO1        -3.2380   10.4002    0.4064 H         1 COA         0.2010
     69 HN8         0.7221   10.5122    2.0658 H         1 COA         0.0865
     70 H71        -0.3872    8.6704    4.0616 H         1 COA        -0.0393
     71 H72         1.2796    9.2346    3.9331 H         1 COA        -0.0393
     72 H61         0.1480   10.2256    5.9391 H         1 COA        -0.0393
     73 H62        -1.1030   10.9179    4.8981 H         1 COA        -0.0393
     74 HN4        -0.7798   12.9090    5.5765 H         1 COA         0.0865
     75 H31         0.7935   14.6865    6.1461 H         1 COA        -0.0393
     76 H32         1.7610   14.2115    4.7436 H         1 COA        -0.0393
     77 H21        -1.0769   15.4320    4.7003 H         1 COA        -0.0393
     78 H22         0.4227   16.2621    4.2525 H         1 COA        -0.0393
     79 HS1         1.0504   14.7040    2.2776 H         1 COA         0.1718
@<TRIPOS>BOND
     1    1    2 ar
     2    1    6 ar
     3    2    3 ar
     4    2   49 1
     5    3    4 ar
     6    4    5 ar
     7    4   10 ar
     8    5    6 ar
     9    5    8 ar
    10    6    7 1
    11    7   50 1
    12    7   51 1
    13    8    9 ar
    14    9   10 ar
    15    9   52 1
    16   10   11 1
    17   11   12 1
    18   11   21 1
    19   11   53 1
    20   12   13 1
    21   12   14 1
    22   12   54 1
    23   14   15 1
    24   14   20 1
    25   14   55 1
    26   15   16 1
    27   16   17 2
    28   16   18 1
    29   16   19 1
    30   20   21 1
    31   20   22 1
    32   20   56 1
    33   22   23 1
    34   22   57 1
    35   22   58 1
    36   23   24 1
    37   24   25 2
    38   24   26 1
    39   24   27 1
    40   27   28 1
    41   28   29 2
    42   28   30 1
    43   28   31 1
    44   31   33 1
    45   32   33 1
    46   32   34 1
    47   32   35 1
    48   32   36 1
    49   33   59 1
    50   33   60 1
    51   34   61 1
    52   34   62 1
    53   34   63 1
    54   35   64 1
    55   35   65 1
    56   35   66 1
    57   36   37 1
    58   36   38 1
    59   36   67 1
    60   37   68 1
    61   38   39 2
    62   38   40 am
    63   40   41 1
    64   40   69 1
    65   41   42 1
    66   41   70 1
    67   41   71 1
    68   42   43 1
    69   42   72 1
    70   42   73 1
    71   43   44 2
    72   43   45 am
    73   45   46 1
    74   45   74 1
    75   46   47 1
    76   46   75 1
    77   46   76 1
    78   47   48 1
    79   47   77 1
    80   47   78 1
    81   48   79 1
@<TRIPOS>SUBSTRUCTURE
     1 COA         1 GROUP 0 A     ****
@<TRIPOS>MOLECULE
[5-(6-aminopurin-9-yl)-2-[[[[3-hydroxy-2,2-dimethyl-4-oxo-4-[[3-oxo-3-(2-sulfanylethylamino)propyl]amino]butoxy]-oxido-phosphoryl]oxy-oxido-phosphoryl]oxymethyl]-4-oxido-tetrahydrofuran-3-yl] phosphate
   79    81     1     0     0
SMALL
USER_CHARGES

@<TRIPOS>ATOM
      1 N1A         6.3197    3.3711    0.1967 N.ar      1 COA        -0.5260
      2 C2A         5.0033    3.3256    0.5141 C.ar      1 COA         0.6629
      3 N3A         4.0730    2.4196    0.1418 N.ar      1 COA        -0.5260
      4 C4A         4.6208    1.4811   -0.6447 C.ar      1 COA         0.5212
      5 C5A         5.9423    1.3962   -1.0530 C.ar      1 COA         0.0088
      6 C6A         6.8050    2.3902   -0.6021 C.ar      1 COA         0.5212
      7 N6A         8.1621    2.3826   -0.9671 N.pl3     1 COA        -0.6025
      8 N7A         6.1335    0.2987   -1.8543 N.2       1 COA        -0.4271
      9 C8A         4.9500   -0.2731   -1.9316 C.ar      1 COA         0.5691
     10 N9A         4.0006    0.4065   -1.2155 N.pl3     1 COA        -0.5033
     11 C1B         2.5376    0.0288   -1.0907 C.3       1 COA         0.2693
     12 C2B         1.9579   -0.2640    0.3131 C.3       1 COA         0.2008
     13 O2B         2.1299   -1.5323    0.6368 O.co2     1 COA        -0.1615
     14 C3B         0.4729    0.0487    0.0699 C.3       1 COA         0.1111
     15 O3B        -0.1943   -0.9780   -0.6709 O.3       1 COA         0.1618
     16 P3B        -1.8364   -1.0586   -0.5907 P.3       1 COA        -1.1921
     17 O7A        -2.1459   -1.2889    0.8856 O.co2     1 COA         0.3195
     18 O8A        -2.1706   -2.2476   -1.4866 O.co2     1 COA         0.3195
     19 O9A        -2.3217    0.2823   -1.1335 O.co2     1 COA         0.3195
     20 C4B         0.5412    1.2713   -0.8394 C.3       1 COA         0.1111
     21 O4B         1.7485    1.1278   -1.6124 O.3       1 COA        -0.1436
     22 C5B         0.6184    2.5901   -0.0816 C.3       1 COA         0.1504
     23 O5B         0.6777    3.6562   -1.0149 O.3       1 COA         0.1618
     24 P1A         0.7670    5.1936   -0.4641 P.3       1 COA        -1.1062
     25 O1A         0.8194    6.1476   -1.6376 O.co2     1 COA         0.3195
     26 O2A         1.8029    5.2507    0.6375 O.co2     1 COA         0.3195
     27 O3A        -0.6886    5.3125    0.2679 O.3       1 COA         0.4672
     28 P2A        -1.1429    6.2040    1.5594 P.3       1 COA        -1.1062
     29 O4A        -2.6377    6.0612    1.7476 O.co2     1 COA         0.3195
     30 O5A        -0.1888    5.9134    2.6974 O.co2     1 COA         0.3195
     31 O6A        -0.8065    7.6957    0.9792 O.3       1 COA         0.1618
     32 CBP        -1.0090    9.5771   -0.5793 C.3       1 COA         0.0000
     33 CCP        -1.4652    8.1470   -0.1994 C.3       1 COA         0.1504
     34 CDP         0.5182    9.5632   -0.8289 C.3       1 COA         0.1179
     35 CEP        -1.6888   10.0085   -1.8940 C.3       1 COA         0.1179
     36 CAP        -1.3149   10.5877    0.5658 C.3       1 COA         0.0611
     37 OAP        -1.2622    9.9213    1.8245 O.3       1 COA        -0.2728
     38 C9P        -0.3407   11.7608    0.6502 C.2       1 COA         0.3561
     39 O9P         0.7104   11.6974    1.2852 O.2       1 COA        -0.2391
     40 N8P        -0.7630   12.8619   -0.0771 N.am      1 COA        -0.1909
     41 C7P         0.0024   14.0836   -0.1712 C.3       1 COA         0.1160
     42 C6P        -0.3956   15.0264    0.9551 C.3       1 COA         0.0286
     43 C5P         0.3740   16.3344    0.9148 C.2       1 COA         0.3561
     44 O5P         1.2219   16.5895    0.0640 O.2       1 COA        -0.2391
     45 N4P        -0.0024   17.1797    1.9482 N.am      1 COA        -0.1909
     46 C3P         0.5767   18.4890    2.1434 C.3       1 COA         0.1160
     47 C2P         1.8026   18.4623    3.0415 C.3       1 COA         0.2607
     48 S1P         1.4285   17.8193    4.7011 S.3       1 COA        -0.3539
     49 H2A         4.6492    4.1260    1.1552 H         1 COA        -0.1369
     50 H61A        8.7564    3.1335   -0.6708 H         1 COA         0.2048
     51 H62A        8.4991    1.6788   -1.5963 H         1 COA         0.2048
     52 H8A         4.7208   -1.1726   -2.4865 H         1 COA        -0.1292
     53 H1B         2.4085   -0.8200   -1.8256 H         1 COA        -0.0393
     54 H2B         2.3286    0.5212    0.9904 H         1 COA        -0.0393
     55 H3B        -0.0977    0.2245    0.9885 H         1 COA        -0.0393
     56 H4B        -0.2996    1.3083   -1.5416 H         1 COA        -0.0393
     57 H51A        1.5144    2.6204    0.5455 H         1 COA        -0.0393
     58 H52A       -0.2654    2.7227    0.5494 H         1 COA        -0.0393
     59 H121       -1.2324    7.4355   -0.9984 H         1 COA        -0.0393
     60 H122       -2.5440    8.1138   -0.0133 H         1 COA        -0.0393
     61 H131        0.8796   10.5616   -1.1013 H         1 COA        -0.0393
     62 H132        0.7886    8.8842   -1.6454 H         1 COA        -0.0393
     63 H133        1.0681    9.2399    0.0618 H         1 COA        -0.0393
     64 H141       -1.3855   11.0192   -2.1904 H         1 COA        -0.0393
     65 H142       -2.7797   10.0132   -1.7903 H         1 COA        -0.0393
     66 H143       -1.4280    9.3402   -2.7211 H         1 COA        -0.0393
     67 H10        -2.3323   10.9827    0.4518 H         1 COA        -0.0393
     68 HO1        -0.3644    9.5651    1.9111 H         1 COA         0.2010
     69 HN8        -1.6351   12.8136   -0.5951 H         1 COA         0.0865
     70 H71         1.0693   13.8448   -0.1161 H         1 COA        -0.0393
     71 H72        -0.1791   14.5477   -1.1458 H         1 COA        -0.0393
     72 H61        -0.2157   14.5497    1.9267 H         1 COA        -0.0393
     73 H62        -1.4673   15.2540    0.8946 H         1 COA        -0.0393
     74 HN4        -0.7174   16.8641    2.5970 H         1 COA         0.0865
     75 H31         0.8560   18.8498    1.1501 H         1 COA        -0.0393
     76 H32        -0.2077   19.1430    2.5326 H         1 COA        -0.0393
     77 H21         2.5973   17.8497    2.6035 H         1 COA        -0.0393
     78 H22         2.1861   19.4806    3.1598 H         1 COA        -0.0393
     79 HS1         1.0036   16.6169    4.2913 H         1 COA         0.1718
@<TRIPOS>BOND
     1    1    2 ar
     2    1    6 ar
     3    2    3 ar
     4    2   49 1
     5    3    4 ar
     6    4    5 ar
     7    4   10 ar
     8    5    6 ar
     9    5    8 ar
    10    6    7 1
    11    7   50 1
    12    7   51 1
    13    8    9 ar
    14    9   10 ar
    15    9   52 1
    16   10   11 1
    17   11   12 1
    18   11   21 1
    19   11   53 1
    20   12   13 1
    21   12   14 1
    22   12   54 1
    23   14   15 1
    24   14   20 1
    25   14   55 1
    26   15   16 1
    27   16   17 2
    28   16   18 1
    29   16   19 1
    30   20   21 1
    31   20   22 1
    32   20   56 1
    33   22   23 1
    34   22   57 1
    35   22   58 1
    36   23   24 1
    37   24   25 2
    38   24   26 1
    39   24   27 1
    40   27   28 1
    41   28   29 2
    42   28   30 1
    43   28   31 1
    44   31   33 1
    45   32   33 1
    46   32   34 1
    47   32   35 1
    48   32   36 1
    49   33   59 1
    50   33   60 1
    51   34   61 1
    52   34   62 1
    53   34   63 1
    54   35   64 1
    55   35   65 1
    56   35   66 1
    57   36   37 1
    58   36   38 1
    59   36   67 1
    60   37   68 1
    61   38   39 2
    62   38   40 am
    63   40   41 1
    64   40   69 1
    65   41   42 1
    66   41   70 1
    67   41   71 1
    68   42   43 1
    69   42   72 1
    70   42   73 1
    71   43   44 2
    72   43   45 am
    73   45   46 1
    74   45   74 1
    75   46   47 1
    76   46   75 1
    77   46   76 1
    78   47   48 1
    79   47   77 1
    80   47   78 1
    81   48   79 1
@<TRIPOS>SUBSTRUCTURE
     1 COA         1 GROUP 0 A     ****
@<TRIPOS>MOLECULE
[5-(6-aminopurin-9-yl)-2-[[[[3-hydroxy-2,2-dimethyl-4-oxo-4-[[3-oxo-3-(2-sulfanylethylamino)propyl]amino]butoxy]-oxido-phosphoryl]oxy-oxido-phosphoryl]oxymethyl]-4-oxido-tetrahydrofuran-3-yl] phosphate
   79    81     1     0     0
SMALL
USER_CHARGES

@<TRIPOS>ATOM
      1 N1A         6.1093    3.4221   -2.1706 N.ar      1 COA        -0.5260
      2 C2A         4.9028    3.1932   -1.5982 C.ar      1 COA         0.6629
      3 N3A         3.8250    2.5648   -2.1163 N.ar      1 COA        -0.5260
      4 C4A         4.0802    2.1492   -3.3659 C.ar      1 COA         0.5212
      5 C5A         5.2577    2.3095   -4.0788 C.ar      1 COA         0.0088
      6 C6A         6.2970    2.9741   -3.4353 C.ar      1 COA         0.5212
      7 N6A         7.5267    3.1813   -4.0834 N.pl3     1 COA        -0.6025
      8 N7A         5.1483    1.7539   -5.3288 N.2       1 COA        -0.4271
      9 C8A         3.9267    1.2647   -5.3749 C.ar      1 COA         0.5691
     10 N9A         3.2402    1.4796   -4.2093 N.pl3     1 COA        -0.5033
     11 C1B         1.8139    1.0528   -3.9225 C.3       1 COA         0.2693
     12 C2B         1.5441    0.0924   -2.7404 C.3       1 COA         0.2008
     13 O2B         1.6560   -1.1661   -3.1231 O.co2     1 COA        -0.1615
     14 C3B         0.0825    0.4469   -2.4241 C.3       1 COA         0.1111
     15 O3B        -0.8371   -0.0985   -3.3754 O.3       1 COA         0.1618
     16 P3B        -2.4169   -0.2494   -2.9382 P.3       1 COA        -1.1921
     17 O7A        -2.4022   -1.1842   -1.7323 O.co2     1 COA         0.3195
     18 O8A        -3.0660   -0.8511   -4.1810 O.co2     1 COA         0.3195
     19 O9A        -2.8748    1.1724   -2.6264 O.co2     1 COA         0.3195
     20 C4B         0.0646    1.9600   -2.6151 C.3       1 COA         0.1111
     21 O4B         1.0421    2.2460   -3.6341 O.3       1 COA        -0.1436
     22 C5B         0.4465    2.7364   -1.3618 C.3       1 COA         0.1504
     23 O5B         0.3986    4.1249   -1.6460 O.3       1 COA         0.1618
     24 P1A         0.7670    5.1936   -0.4641 P.3       1 COA        -1.1062
     25 O1A         1.1289    6.5260   -1.0837 O.co2     1 COA         0.3195
     26 O2A         1.6876    4.5161    0.5275 O.co2     1 COA         0.3195
     27 O3A        -0.6886    5.3125    0.2679 O.3       1 COA         0.4672
     28 P2A        -1.1429    6.2040    1.5594 P.3       1 COA        -1.1062
     29 O4A        -2.6377    6.0612    1.7476 O.co2     1 COA         0.3195
     30 O5A        -0.1888    5.9134    2.6974 O.co2     1 COA         0.3195
     31 O6A        -0.8065    7.6957    0.9792 O.3       1 COA         0.1618
     32 CBP        -1.0090    9.5771   -0.5793 C.3       1 COA         0.0000
     33 CCP        -1.4652    8.1470   -0.1994 C.3       1 COA         0.1504
     34 CDP         0.5182    9.5632   -0.8289 C.3       1 COA         0.1179
     35 CEP        -1.6888   10.0085   -1.8940 C.3       1 COA         0.1179
     36 CAP        -1.3149   10.5877    0.5658 C.3       1 COA         0.0611
     37 OAP        -2.6150   11.1430    0.3849 O.3       1 COA        -0.2728
     38 C9P        -1.2888    9.9815    1.9673 C.2       1 COA         0.3561
     39 O9P        -2.2761    9.4494    2.4714 O.2       1 COA        -0.2391
     40 N8P        -0.0453   10.0792    2.5706 N.am      1 COA        -0.1909
     41 C7P         0.2338    9.5548    3.8876 C.3       1 COA         0.1160
     42 C6P        -0.0469   10.6226    4.9350 C.3       1 COA         0.0286
     43 C5P         0.2269   10.1355    6.3466 C.2       1 COA         0.3561
     44 O5P         0.6281    9.0031    6.6010 O.2       1 COA        -0.2391
     45 N4P        -0.0346   11.1218    7.2862 N.am      1 COA        -0.1909
     46 C3P         0.1407   10.9210    8.7062 C.3       1 COA         0.1160
     47 C2P        -1.1123   10.3925    9.3850 C.3       1 COA         0.2607
     48 S1P        -2.5253   11.5228    9.2020 S.3       1 COA        -0.3539
     49 H2A         4.7878    3.5651   -0.5856 H         1 COA        -0.1369
     50 H61A        8.2460    3.7037   -3.6204 H         1 COA         0.2048
     51 H62A        7.6376    2.8871   -5.0353 H         1 COA         0.2048
     52 H8A         3.4866    0.7495   -6.2177 H         1 COA        -0.1292
     53 H1B         1.4348    0.6728   -4.9170 H         1 COA        -0.0393
     54 H2B         2.1376    0.4515   -1.8851 H         1 COA        -0.0393
     55 H3B        -0.2421    0.1333   -1.4258 H         1 COA        -0.0393
     56 H4B        -0.9063    2.3168   -2.9777 H         1 COA        -0.0393
     57 H51A        1.4605    2.4765   -1.0434 H         1 COA        -0.0393
     58 H52A       -0.2515    2.5189   -0.5478 H         1 COA        -0.0393
     59 H121       -1.2324    7.4355   -0.9984 H         1 COA        -0.0393
     60 H122       -2.5440    8.1138   -0.0133 H         1 COA        -0.0393
     61 H131        0.8796   10.5616   -1.1013 H         1 COA        -0.0393
     62 H132        0.7886    8.8842   -1.6454 H         1 COA        -0.0393
     63 H133        1.0681    9.2399    0.0618 H         1 COA        -0.0393
     64 H141       -1.3855   11.0192   -2.1904 H         1 COA        -0.0393
     65 H142       -2.7797   10.0132   -1.7903 H         1 COA        -0.0393
     66 H143       -1.4280    9.3402   -2.7211 H         1 COA        -0.0393
     67 H10        -0.6003   11.4196    0.5288 H         1 COA        -0.0393
     68 HO1        -3.2380   10.4002    0.4064 H         1 COA         0.2010
     69 HN8         0.7221   10.5122    2.0658 H         1 COA         0.0865
     70 H71        -0.3872    8.6704    4.0616 H         1 COA        -0.0393
     71 H72         1.2796    9.2346    3.9331 H         1 COA        -0.0393
     72 H61        -1.0952   10.9409    4.8767 H         1 COA        -0.0393
     73 H62         0.5754   11.5067    4.7477 H         1 COA        -0.0393
     74 HN4        -0.3641   12.0261    6.9613 H         1 COA         0.0865
     75 H31         0.9513   10.1955    8.8137 H         1 COA        -0.0393
     76 H32         0.4760   11.8685    9.1355 H         1 COA        -0.0393
     77 H21        -1.3956    9.4153    8.9808 H         1 COA        -0.0393
     78 H22        -0.9203   10.2735   10.4559 H         1 COA        -0.0393
     79 HS1        -1.9492   12.5653    9.8149 H         1 COA         0.1718
@<TRIPOS>BOND
     1    1    2 ar
     2    1    6 ar
     3    2    3 ar
     4    2   49 1
     5    3    4 ar
     6    4    5 ar
     7    4   10 ar
     8    5    6 ar
     9    5    8 ar
    10    6    7 1
    11    7   50 1
    12    7   51 1
    13    8    9 ar
    14    9   10 ar
    15    9   52 1
    16   10   11 1
    17   11   12 1
    18   11   21 1
    19   11   53 1
    20   12   13 1
    21   12   14 1
    22   12   54 1
    23   14   15 1
    24   14   20 1
    25   14   55 1
    26   15   16 1
    27   16   17 2
    28   16   18 1
    29   16   19 1
    30   20   21 1
    31   20   22 1
    32   20   56 1
    33   22   23 1
    34   22   57 1
    35   22   58 1
    36   23   24 1
    37   24   25 2
    38   24   26 1
    39   24   27 1
    40   27   28 1
    41   28   29 2
    42   28   30 1
    43   28   31 1
    44   31   33 1
    45   32   33 1
    46   32   34 1
    47   32   35 1
    48   32   36 1
    49   33   59 1
    50   33   60 1
    51   34   61 1
    52   34   62 1
    53   34   63 1
    54   35   64 1
    55   35   65 1
    56   35   66 1
    57   36   37 1
    58   36   38 1
    59   36   67 1
    60   37   68 1
    61   38   39 2
    62   38   40 am
    63   40   41 1
    64   40   69 1
    65   41   42 1
    66   41   70 1
    67   41   71 1
    68   42   43 1
    69   42   72 1
    70   42   73 1
    71   43   44 2
    72   43   45 am
    73   45   46 1
    74   45   74 1
    75   46   47 1
    76   46   75 1
    77   46   76 1
    78   47   48 1
    79   47   77 1
    80   47   78 1
    81   48   79 1
@<TRIPOS>SUBSTRUCTURE
     1 COA         1 GROUP 0 A     ****
@<TRIPOS>MOLECULE
[5-(6-aminopurin-9-yl)-2-[[[[3-hydroxy-2,2-dimethyl-4-oxo-4-[[3-oxo-3-(2-sulfanylethylamino)propyl]amino]butoxy]-oxido-phosphoryl]oxy-oxido-phosphoryl]oxymethyl]-4-oxido-tetrahydrofuran-3-yl] phosphate
   79    81     1     0     0
SMALL
USER_CHARGES

@<TRIPOS>ATOM
      1 N1A         6.3197    3.3711    0.1967 N.ar      1 COA        -0.5260
      2 C2A         5.0033    3.3256    0.5141 C.ar      1 COA         0.6629
      3 N3A         4.0730    2.4196    0.1418 N.ar      1 COA        -0.5260
      4 C4A         4.6208    1.4811   -0.6447 C.ar      1 COA         0.5212
      5 C5A         5.9423    1.3962   -1.0530 C.ar      1 COA         0.0088
      6 C6A         6.8050    2.3902   -0.6021 C.ar      1 COA         0.5212
      7 N6A         8.1621    2.3826   -0.9671 N.pl3     1 COA        -0.6025
      8 N7A         6.1335    0.2987   -1.8543 N.2       1 COA        -0.4271
      9 C8A         4.9500   -0.2731   -1.9316 C.ar      1 COA         0.5691
     10 N9A         4.0006    0.4065   -1.2155 N.pl3     1 COA        -0.5033
     11 C1B         2.5376    0.0288   -1.0907 C.3       1 COA         0.2693
     12 C2B         1.9579   -0.2640    0.3131 C.3       1 COA         0.2008
     13 O2B         2.1299   -1.5323    0.6368 O.co2     1 COA        -0.1615
     14 C3B         0.4729    0.0487    0.0699 C.3       1 COA         0.1111
     15 O3B        -0.1943   -0.9780   -0.6709 O.3       1 COA         0.1618
     16 P3B        -1.8364   -1.0586   -0.5907 P.3       1 COA        -1.1921
     17 O7A        -2.1459   -1.2889    0.8856 O.co2     1 COA         0.3195
     18 O8A        -2.1706   -2.2476   -1.4866 O.co2     1 COA         0.3195
     19 O9A        -2.3217    0.2823   -1.1335 O.co2     1 COA         0.3195
     20 C4B         0.5412    1.2713   -0.8394 C.3       1 COA         0.1111
     21 O4B         1.7485    1.1278   -1.6124 O.3       1 COA        -0.1436
     22 C5B         0.6184    2.5901   -0.0816 C.3       1 COA         0.1504
     23 O5B         0.6777    3.6562   -1.0149 O.3       1 COA         0.1618
     24 P1A         0.7670    5.1936   -0.4641 P.3       1 COA        -1.1062
     25 O1A         0.8194    6.1476   -1.6376 O.co2     1 COA         0.3195
     26 O2A         1.8029    5.2507    0.6375 O.co2     1 COA         0.3195
     27 O3A        -0.6886    5.3125    0.2679 O.3       1 COA         0.4672
     28 P2A        -1.1429    6.2040    1.5594 P.3       1 COA        -1.1062
     29 O4A        -2.6377    6.0612    1.7476 O.co2     1 COA         0.3195
     30 O5A        -0.1888    5.9134    2.6974 O.co2     1 COA         0.3195
     31 O6A        -0.8065    7.6957    0.9792 O.3       1 COA         0.1618
     32 CBP        -1.0463    9.4480   -0.7182 C.3       1 COA         0.0000
     33 CCP        -1.7297    8.3208    0.0940 C.3       1 COA         0.1504
     34 CDP         0.1097    8.8359   -1.5452 C.3       1 COA         0.1179
     35 CEP        -2.0542   10.0578   -1.7127 C.3       1 COA         0.1179
     36 CAP        -0.4581   10.5415    0.2222 C.3       1 COA         0.0611
     37 OAP         0.6848   11.1373   -0.3860 O.3       1 COA        -0.2728
     38 C9P        -1.4230   11.6791    0.5495 C.2       1 COA         0.3561
     39 O9P        -1.5373   12.6707   -0.1687 O.2       1 COA        -0.2391
     40 N8P        -2.1501   11.4494    1.7065 N.am      1 COA        -0.1909
     41 C7P        -3.1444   12.3703    2.2070 C.3       1 COA         0.1160
     42 C6P        -4.5049   12.0261    1.6183 C.3       1 COA         0.0286
     43 C5P        -4.9515   10.6198    1.9755 C.2       1 COA         0.3561
     44 O5P        -4.2794    9.8550    2.6620 O.2       1 COA        -0.2391
     45 N4P        -6.1926   10.3248    1.4304 N.am      1 COA        -0.1909
     46 C3P        -6.8496    9.0513    1.6148 C.3       1 COA         0.1160
     47 C2P        -6.4934    8.0434    0.5344 C.3       1 COA         0.2607
     48 S1P        -6.9580    8.6193   -1.1270 S.3       1 COA        -0.3539
     49 H2A         4.6492    4.1260    1.1552 H         1 COA        -0.1369
     50 H61A        8.7564    3.1335   -0.6708 H         1 COA         0.2048
     51 H62A        8.4991    1.6788   -1.5963 H         1 COA         0.2048
     52 H8A         4.7208   -1.1726   -2.4865 H         1 COA        -0.1292
     53 H1B         2.4085   -0.8200   -1.8256 H         1 COA        -0.0393
     54 H2B         2.3286    0.5212    0.9904 H         1 COA        -0.0393
     55 H3B        -0.0977    0.2245    0.9885 H         1 COA        -0.0393
     56 H4B        -0.2996    1.3083   -1.5416 H         1 COA        -0.0393
     57 H51A        1.5144    2.6204    0.5455 H         1 COA        -0.0393
     58 H52A       -0.2654    2.7227    0.5494 H         1 COA        -0.0393
     59 H121       -2.1262    7.5446   -0.5686 H         1 COA        -0.0393
     60 H122       -2.5562    8.7139    0.6956 H         1 COA        -0.0393
     61 H131        0.6194    9.6060   -2.1356 H         1 COA        -0.0393
     62 H132       -0.2524    8.0744   -2.2449 H         1 COA        -0.0393
     63 H133        0.8566    8.3597   -0.9005 H         1 COA        -0.0393
     64 H141       -1.5995   10.8607   -2.3043 H         1 COA        -0.0393
     65 H142       -2.9149   10.4873   -1.1878 H         1 COA        -0.0393
     66 H143       -2.4255    9.3094   -2.4205 H         1 COA        -0.0393
     67 H10        -0.1225   10.0836    1.1613 H         1 COA        -0.0393
     68 HO1         0.3816   11.5281   -1.2201 H         1 COA         0.2010
     69 HN8        -2.0082   10.5863    2.2223 H         1 COA         0.0865
     70 H71        -3.1706   12.3125    3.2998 H         1 COA        -0.0393
     71 H72        -2.8553   13.3918    1.9401 H         1 COA        -0.0393
     72 H61        -4.4747   12.1116    0.5250 H         1 COA        -0.0393
     73 H62        -5.2621   12.7320    1.9819 H         1 COA        -0.0393
     74 HN4        -6.6605   11.0363    0.8766 H         1 COA         0.0865
     75 H31        -6.5225    8.6779    2.5887 H         1 COA        -0.0393
     76 H32        -7.9250    9.2385    1.6683 H         1 COA        -0.0393
     77 H21        -5.4204    7.8260    0.5384 H         1 COA        -0.0393
     78 H22        -7.0293    7.1078    0.7223 H         1 COA        -0.0393
     79 HS1        -6.1957    9.7207   -1.1100 H         1 COA         0.1718
@<TRIPOS>BOND
     1    1    2 ar
     2    1    6 ar
     3    2    3 ar
     4    2   49 1
     5    3    4 ar
     6    4    5 ar
     7    4   10 ar
     8    5    6 ar
     9    5    8 ar
    10    6    7 1
    11    7   50 1
    12    7   51 1
    13    8    9 ar
    14    9   10 ar
    15    9   52 1
    16   10   11 1
    17   11   12 1
    18   11   21 1
    19   11   53 1
    20   12   13 1
    21   12   14 1
    22   12   54 1
    23   14   15 1
    24   14   20 1
    25   14   55 1
    26   15   16 1
    27   16   17 2
    28   16   18 1
    29   16   19 1
    30   20   21 1
    31   20   22 1
    32   20   56 1
    33   22   23 1
    34   22   57 1
    35   22   58 1
    36   23   24 1
    37   24   25 2
    38   24   26 1
    39   24   27 1
    40   27   28 1
    41   28   29 2
    42   28   30 1
    43   28   31 1
    44   31   33 1
    45   32   33 1
    46   32   34 1
    47   32   35 1
    48   32   36 1
    49   33   59 1
    50   33   60 1
    51   34   61 1
    52   34   62 1
    53   34   63 1
    54   35   64 1
    55   35   65 1
    56   35   66 1
    57   36   37 1
    58   36   38 1
    59   36   67 1
    60   37   68 1
    61   38   39 2
    62   38   40 am
    63   40   41 1
    64   40   69 1
    65   41   42 1
    66   41   70 1
    67   41   71 1
    68   42   43 1
    69   42   72 1
    70   42   73 1
    71   43   44 2
    72   43   45 am
    73   45   46 1
    74   45   74 1
    75   46   47 1
    76   46   75 1
    77   46   76 1
    78   47   48 1
    79   47   77 1
    80   47   78 1
    81   48   79 1
@<TRIPOS>SUBSTRUCTURE
     1 COA         1 GROUP 0 A     ****
@<TRIPOS>MOLECULE
[5-(6-aminopurin-9-yl)-2-[[[[3-hydroxy-2,2-dimethyl-4-oxo-4-[[3-oxo-3-(2-sulfanylethylamino)propyl]amino]butoxy]-oxido-phosphoryl]oxy-oxido-phosphoryl]oxymethyl]-4-oxido-tetrahydrofuran-3-yl] phosphate
   79    81     1     0     0
SMALL
USER_CHARGES

@<TRIPOS>ATOM
      1 N1A         6.3197    3.3711    0.1967 N.ar      1 COA        -0.5260
      2 C2A         5.0033    3.3256    0.5141 C.ar      1 COA         0.6629
      3 N3A         4.0730    2.4196    0.1418 N.ar      1 COA        -0.5260
      4 C4A         4.6208    1.4811   -0.6447 C.ar      1 COA         0.5212
      5 C5A         5.9423    1.3962   -1.0530 C.ar      1 COA         0.0088
      6 C6A         6.8050    2.3902   -0.6021 C.ar      1 COA         0.5212
      7 N6A         8.1621    2.3826   -0.9671 N.pl3     1 COA        -0.6025
      8 N7A         6.1335    0.2987   -1.8543 N.2       1 COA        -0.4271
      9 C8A         4.9500   -0.2731   -1.9316 C.ar      1 COA         0.5691
     10 N9A         4.0006    0.4065   -1.2155 N.pl3     1 COA        -0.5033
     11 C1B         2.5376    0.0288   -1.0907 C.3       1 COA         0.2693
     12 C2B         1.9579   -0.2640    0.3131 C.3       1 COA         0.2008
     13 O2B         2.1299   -1.5323    0.6368 O.co2     1 COA        -0.1615
     14 C3B         0.4729    0.0487    0.0699 C.3       1 COA         0.1111
     15 O3B        -0.1943   -0.9780   -0.6709 O.3       1 COA         0.1618
     16 P3B        -1.8364   -1.0586   -0.5907 P.3       1 COA        -1.1921
     17 O7A        -2.1459   -1.2889    0.8856 O.co2     1 COA         0.3195
     18 O8A        -2.1706   -2.2476   -1.4866 O.co2     1 COA         0.3195
     19 O9A        -2.3217    0.2823   -1.1335 O.co2     1 COA         0.3195
     20 C4B         0.5412    1.2713   -0.8394 C.3       1 COA         0.1111
     21 O4B         1.7485    1.1278   -1.6124 O.3       1 COA        -0.1436
     22 C5B         0.6184    2.5901   -0.0816 C.3       1 COA         0.1504
     23 O5B         0.6777    3.6562   -1.0149 O.3       1 COA         0.1618
     24 P1A         0.7670    5.1936   -0.4641 P.3       1 COA        -1.1062
     25 O1A         0.8194    6.1476   -1.6376 O.co2     1 COA         0.3195
     26 O2A         1.8029    5.2507    0.6375 O.co2     1 COA         0.3195
     27 O3A        -0.6886    5.3125    0.2679 O.3       1 COA         0.4672
     28 P2A        -1.1429    6.2040    1.5594 P.3       1 COA        -1.1062
     29 O4A        -2.6377    6.0612    1.7476 O.co2     1 COA         0.3195
     30 O5A        -0.1888    5.9134    2.6974 O.co2     1 COA         0.3195
     31 O6A        -0.8065    7.6957    0.9792 O.3       1 COA         0.1618
     32 CBP        -1.0090    9.5771   -0.5793 C.3       1 COA         0.0000
     33 CCP        -1.4652    8.1470   -0.1994 C.3       1 COA         0.1504
     34 CDP         0.5182    9.5632   -0.8289 C.3       1 COA         0.1179
     35 CEP        -1.6888   10.0085   -1.8940 C.3       1 COA         0.1179
     36 CAP        -1.3149   10.5877    0.5658 C.3       1 COA         0.0611
     37 OAP        -0.8841   11.8921    0.1862 O.3       1 COA        -0.2728
     38 C9P        -2.7940   10.7032    0.9282 C.2       1 COA         0.3561
     39 O9P        -3.5640    9.7470    0.8589 O.2       1 COA        -0.2391
     40 N8P        -3.1433   11.9737    1.3570 N.am      1 COA        -0.1909
     41 C7P        -4.4804   12.3219    1.7791 C.3       1 COA         0.1160
     42 C6P        -4.6250   12.0820    3.2749 C.3       1 COA         0.0286
     43 C5P        -3.6490   12.9100    4.0913 C.2       1 COA         0.3561
     44 O5P        -2.8373   13.6819    3.5881 O.2       1 COA        -0.2391
     45 N4P        -3.7960   12.6778    5.4510 N.am      1 COA        -0.1909
     46 C3P        -2.9890   13.3359    6.4526 C.3       1 COA         0.1160
     47 C2P        -3.5997   14.6411    6.9361 C.3       1 COA         0.2607
     48 S1P        -5.2405   14.4004    7.6828 S.3       1 COA        -0.3539
     49 H2A         4.6492    4.1260    1.1552 H         1 COA        -0.1369
     50 H61A        8.7564    3.1335   -0.6708 H         1 COA         0.2048
     51 H62A        8.4991    1.6788   -1.5963 H         1 COA         0.2048
     52 H8A         4.7208   -1.1726   -2.4865 H         1 COA        -0.1292
     53 H1B         2.4085   -0.8200   -1.8256 H         1 COA        -0.0393
     54 H2B         2.3286    0.5212    0.9904 H         1 COA        -0.0393
     55 H3B        -0.0977    0.2245    0.9885 H         1 COA        -0.0393
     56 H4B        -0.2996    1.3083   -1.5416 H         1 COA        -0.0393
     57 H51A        1.5144    2.6204    0.5455 H         1 COA        -0.0393
     58 H52A       -0.2654    2.7227    0.5494 H         1 COA        -0.0393
     59 H121       -1.2324    7.4355   -0.9984 H         1 COA        -0.0393
     60 H122       -2.5440    8.1138   -0.0133 H         1 COA        -0.0393
     61 H131        0.8796   10.5616   -1.1013 H         1 COA        -0.0393
     62 H132        0.7886    8.8842   -1.6454 H         1 COA        -0.0393
     63 H133        1.0681    9.2399    0.0618 H         1 COA        -0.0393
     64 H141       -1.3855   11.0192   -2.1904 H         1 COA        -0.0393
     65 H142       -2.7797   10.0132   -1.7903 H         1 COA        -0.0393
     66 H143       -1.4280    9.3402   -2.7211 H         1 COA        -0.0393
     67 H10        -0.7524   10.3112    1.4665 H         1 COA        -0.0393
     68 HO1        -1.3767   12.1229   -0.6167 H         1 COA         0.2010
     69 HN8        -2.4320   12.6966    1.4083 H         1 COA         0.0865
     70 H71        -4.6724   13.3717    1.5359 H         1 COA        -0.0393
     71 H72        -5.2027   11.7190    1.2195 H         1 COA        -0.0393
     72 H61        -4.4557   11.0227    3.5045 H         1 COA        -0.0393
     73 H62        -5.6437   12.3293    3.5992 H         1 COA        -0.0393
     74 HN4        -4.5029   12.0153    5.7562 H         1 COA         0.0865
     75 H31        -2.9089   12.6354    7.2879 H         1 COA        -0.0393
     76 H32        -1.9900   13.4767    6.0324 H         1 COA        -0.0393
     77 H21        -2.9522   15.1288    7.6719 H         1 COA        -0.0393
     78 H22        -3.7191   15.3207    6.0866 H         1 COA        -0.0393
     79 HS1        -4.8306   13.5755    8.6552 H         1 COA         0.1718
@<TRIPOS>BOND
     1    1    2 ar
     2    1    6 ar
     3    2    3 ar
     4    2   49 1
     5    3    4 ar
     6    4    5 ar
     7    4   10 ar
     8    5    6 ar
     9    5    8 ar
    10    6    7 1
    11    7   50 1
    12    7   51 1
    13    8    9 ar
    14    9   10 ar
    15    9   52 1
    16   10   11 1
    17   11   12 1
    18   11   21 1
    19   11   53 1
    20   12   13 1
    21   12   14 1
    22   12   54 1
    23   14   15 1
    24   14   20 1
    25   14   55 1
    26   15   16 1
    27   16   17 2
    28   16   18 1
    29   16   19 1
    30   20   21 1
    31   20   22 1
    32   20   56 1
    33   22   23 1
    34   22   57 1
    35   22   58 1
    36   23   24 1
    37   24   25 2
    38   24   26 1
    39   24   27 1
    40   27   28 1
    41   28   29 2
    42   28   30 1
    43   28   31 1
    44   31   33 1
    45   32   33 1
    46   32   34 1
    47   32   35 1
    48   32   36 1
    49   33   59 1
    50   33   60 1
    51   34   61 1
    52   34   62 1
    53   34   63 1
    54   35   64 1
    55   35   65 1
    56   35   66 1
    57   36   37 1
    58   36   38 1
    59   36   67 1
    60   37   68 1
    61   38   39 2
    62   38   40 am
    63   40   41 1
    64   40   69 1
    65   41   42 1
    66   41   70 1
    67   41   71 1
    68   42   43 1
    69   42   72 1
    70   42   73 1
    71   43   44 2
    72   43   45 am
    73   45   46 1
    74   45   74 1
    75   46   47 1
    76   46   75 1
    77   46   76 1
    78   47   48 1
    79   47   77 1
    80   47   78 1
    81   48   79 1
@<TRIPOS>SUBSTRUCTURE
     1 COA         1 GROUP 0 A     ****
@<TRIPOS>MOLECULE
[5-(6-aminopurin-9-yl)-2-[[[[3-hydroxy-2,2-dimethyl-4-oxo-4-[[3-oxo-3-(2-sulfanylethylamino)propyl]amino]butoxy]-oxido-phosphoryl]oxy-oxido-phosphoryl]oxymethyl]-4-oxido-tetrahydrofuran-3-yl] phosphate
   79    81     1     0     0
SMALL
USER_CHARGES

@<TRIPOS>ATOM
      1 N1A         6.3197    3.3711    0.1967 N.ar      1 COA        -0.5260
      2 C2A         5.0033    3.3256    0.5141 C.ar      1 COA         0.6629
      3 N3A         4.0730    2.4196    0.1418 N.ar      1 COA        -0.5260
      4 C4A         4.6208    1.4811   -0.6447 C.ar      1 COA         0.5212
      5 C5A         5.9423    1.3962   -1.0530 C.ar      1 COA         0.0088
      6 C6A         6.8050    2.3902   -0.6021 C.ar      1 COA         0.5212
      7 N6A         8.1621    2.3826   -0.9671 N.pl3     1 COA        -0.6025
      8 N7A         6.1335    0.2987   -1.8543 N.2       1 COA        -0.4271
      9 C8A         4.9500   -0.2731   -1.9316 C.ar      1 COA         0.5691
     10 N9A         4.0006    0.4065   -1.2155 N.pl3     1 COA        -0.5033
     11 C1B         2.5376    0.0288   -1.0907 C.3       1 COA         0.2693
     12 C2B         1.9579   -0.2640    0.3131 C.3       1 COA         0.2008
     13 O2B         2.1299   -1.5323    0.6368 O.co2     1 COA        -0.1615
     14 C3B         0.4729    0.0487    0.0699 C.3       1 COA         0.1111
     15 O3B        -0.1943   -0.9780   -0.6709 O.3       1 COA         0.1618
     16 P3B        -1.8364   -1.0586   -0.5907 P.3       1 COA        -1.1921
     17 O7A        -2.1459   -1.2889    0.8856 O.co2     1 COA         0.3195
     18 O8A        -2.1706   -2.2476   -1.4866 O.co2     1 COA         0.3195
     19 O9A        -2.3217    0.2823   -1.1335 O.co2     1 COA         0.3195
     20 C4B         0.5412    1.2713   -0.8394 C.3       1 COA         0.1111
     21 O4B         1.7485    1.1278   -1.6124 O.3       1 COA        -0.1436
     22 C5B         0.6184    2.5901   -0.0816 C.3       1 COA         0.1504
     23 O5B         0.6777    3.6562   -1.0149 O.3       1 COA         0.1618
     24 P1A         0.7670    5.1936   -0.4641 P.3       1 COA        -1.1062
     25 O1A         0.8194    6.1476   -1.6376 O.co2     1 COA         0.3195
     26 O2A         1.8029    5.2507    0.6375 O.co2     1 COA         0.3195
     27 O3A        -0.6886    5.3125    0.2679 O.3       1 COA         0.4672
     28 P2A        -1.1429    6.2040    1.5594 P.3       1 COA        -1.1062
     29 O4A        -2.6377    6.0612    1.7476 O.co2     1 COA         0.3195
     30 O5A        -0.1888    5.9134    2.6974 O.co2     1 COA         0.3195
     31 O6A        -0.8065    7.6957    0.9792 O.3       1 COA         0.1618
     32 CBP        -1.0090    9.5771   -0.5793 C.3       1 COA         0.0000
     33 CCP        -1.4652    8.1470   -0.1994 C.3       1 COA         0.1504
     34 CDP         0.5182    9.5632   -0.8289 C.3       1 COA         0.1179
     35 CEP        -1.6888   10.0085   -1.8940 C.3       1 COA         0.1179
     36 CAP        -1.3149   10.5877    0.5658 C.3       1 COA         0.0611
     37 OAP        -1.2622    9.9213    1.8245 O.3       1 COA        -0.2728
     38 C9P        -0.3407   11.7608    0.6502 C.2       1 COA         0.3561
     39 O9P         0.7104   11.6974    1.2852 O.2       1 COA        -0.2391
     40 N8P        -0.7630   12.8619   -0.0771 N.am      1 COA        -0.1909
     41 C7P         0.0024   14.0836   -0.1712 C.3       1 COA         0.1160
     42 C6P         0.9441   14.0084   -1.3643 C.3       1 COA         0.0286
     43 C5P         1.7814   15.2650   -1.5216 C.2       1 COA         0.3561
     44 O5P         1.6969   16.2281   -0.7645 O.2       1 COA        -0.2391
     45 N4P         2.6326   15.1774   -2.6134 N.am      1 COA        -0.1909
     46 C3P         3.5382   16.2379   -2.9910 C.3       1 COA         0.1160
     47 C2P         4.8996   16.1137   -2.3265 C.3       1 COA         0.2607
     48 S1P         6.0288   17.4547   -2.8108 S.3       1 COA        -0.3539
     49 H2A         4.6492    4.1260    1.1552 H         1 COA        -0.1369
     50 H61A        8.7564    3.1335   -0.6708 H         1 COA         0.2048
     51 H62A        8.4991    1.6788   -1.5963 H         1 COA         0.2048
     52 H8A         4.7208   -1.1726   -2.4865 H         1 COA        -0.1292
     53 H1B         2.4085   -0.8200   -1.8256 H         1 COA        -0.0393
     54 H2B         2.3286    0.5212    0.9904 H         1 COA        -0.0393
     55 H3B        -0.0977    0.2245    0.9885 H         1 COA        -0.0393
     56 H4B        -0.2996    1.3083   -1.5416 H         1 COA        -0.0393
     57 H51A        1.5144    2.6204    0.5455 H         1 COA        -0.0393
     58 H52A       -0.2654    2.7227    0.5494 H         1 COA        -0.0393
     59 H121       -1.2324    7.4355   -0.9984 H         1 COA        -0.0393
     60 H122       -2.5440    8.1138   -0.0133 H         1 COA        -0.0393
     61 H131        0.8796   10.5616   -1.1013 H         1 COA        -0.0393
     62 H132        0.7886    8.8842   -1.6454 H         1 COA        -0.0393
     63 H133        1.0681    9.2399    0.0618 H         1 COA        -0.0393
     64 H141       -1.3855   11.0192   -2.1904 H         1 COA        -0.0393
     65 H142       -2.7797   10.0132   -1.7903 H         1 COA        -0.0393
     66 H143       -1.4280    9.3402   -2.7211 H         1 COA        -0.0393
     67 H10        -2.3323   10.9827    0.4518 H         1 COA        -0.0393
     68 HO1        -0.3644    9.5651    1.9111 H         1 COA         0.2010
     69 HN8        -1.6351   12.8136   -0.5951 H         1 COA         0.0865
     70 H71        -0.6833   14.9308   -0.2732 H         1 COA        -0.0393
     71 H72         0.5651   14.2279    0.7566 H         1 COA        -0.0393
     72 H61         0.3709   13.8575   -2.2875 H         1 COA        -0.0393
     73 H62         1.6222   13.1526   -1.2555 H         1 COA        -0.0393
     74 HN4         2.6185   14.3295   -3.1725 H         1 COA         0.0865
     75 H31         3.6509   16.1704   -4.0762 H         1 COA        -0.0393
     76 H32         3.0498   17.1880   -2.7602 H         1 COA        -0.0393
     77 H21         4.8060   16.1165   -1.2357 H         1 COA        -0.0393
     78 H22         5.3622   15.1677   -2.6245 H         1 COA        -0.0393
     79 HS1         5.2647   18.4530   -2.3485 H         1 COA         0.1718
@<TRIPOS>BOND
     1    1    2 ar
     2    1    6 ar
     3    2    3 ar
     4    2   49 1
     5    3    4 ar
     6    4    5 ar
     7    4   10 ar
     8    5    6 ar
     9    5    8 ar
    10    6    7 1
    11    7   50 1
    12    7   51 1
    13    8    9 ar
    14    9   10 ar
    15    9   52 1
    16   10   11 1
    17   11   12 1
    18   11   21 1
    19   11   53 1
    20   12   13 1
    21   12   14 1
    22   12   54 1
    23   14   15 1
    24   14   20 1
    25   14   55 1
    26   15   16 1
    27   16   17 2
    28   16   18 1
    29   16   19 1
    30   20   21 1
    31   20   22 1
    32   20   56 1
    33   22   23 1
    34   22   57 1
    35   22   58 1
    36   23   24 1
    37   24   25 2
    38   24   26 1
    39   24   27 1
    40   27   28 1
    41   28   29 2
    42   28   30 1
    43   28   31 1
    44   31   33 1
    45   32   33 1
    46   32   34 1
    47   32   35 1
    48   32   36 1
    49   33   59 1
    50   33   60 1
    51   34   61 1
    52   34   62 1
    53   34   63 1
    54   35   64 1
    55   35   65 1
    56   35   66 1
    57   36   37 1
    58   36   38 1
    59   36   67 1
    60   37   68 1
    61   38   39 2
    62   38   40 am
    63   40   41 1
    64   40   69 1
    65   41   42 1
    66   41   70 1
    67   41   71 1
    68   42   43 1
    69   42   72 1
    70   42   73 1
    71   43   44 2
    72   43   45 am
    73   45   46 1
    74   45   74 1
    75   46   47 1
    76   46   75 1
    77   46   76 1
    78   47   48 1
    79   47   77 1
    80   47   78 1
    81   48   79 1
@<TRIPOS>SUBSTRUCTURE
     1 COA         1 GROUP 0 A     ****
@<TRIPOS>MOLECULE
[5-(6-aminopurin-9-yl)-2-[[[[3-hydroxy-2,2-dimethyl-4-oxo-4-[[3-oxo-3-(2-sulfanylethylamino)propyl]amino]butoxy]-oxido-phosphoryl]oxy-oxido-phosphoryl]oxymethyl]-4-oxido-tetrahydrofuran-3-yl] phosphate
   79    81     1     0     0
SMALL
USER_CHARGES

@<TRIPOS>ATOM
      1 N1A         6.3197    3.3711    0.1967 N.ar      1 COA        -0.5260
      2 C2A         5.0033    3.3256    0.5141 C.ar      1 COA         0.6629
      3 N3A         4.0730    2.4196    0.1418 N.ar      1 COA        -0.5260
      4 C4A         4.6208    1.4811   -0.6447 C.ar      1 COA         0.5212
      5 C5A         5.9423    1.3962   -1.0530 C.ar      1 COA         0.0088
      6 C6A         6.8050    2.3902   -0.6021 C.ar      1 COA         0.5212
      7 N6A         8.1621    2.3826   -0.9671 N.pl3     1 COA        -0.6025
      8 N7A         6.1335    0.2987   -1.8543 N.2       1 COA        -0.4271
      9 C8A         4.9500   -0.2731   -1.9316 C.ar      1 COA         0.5691
     10 N9A         4.0006    0.4065   -1.2155 N.pl3     1 COA        -0.5033
     11 C1B         2.5376    0.0288   -1.0907 C.3       1 COA         0.2693
     12 C2B         1.9579   -0.2640    0.3131 C.3       1 COA         0.2008
     13 O2B         2.1299   -1.5323    0.6368 O.co2     1 COA        -0.1615
     14 C3B         0.4729    0.0487    0.0699 C.3       1 COA         0.1111
     15 O3B        -0.1943   -0.9780   -0.6709 O.3       1 COA         0.1618
     16 P3B        -1.8364   -1.0586   -0.5907 P.3       1 COA        -1.1921
     17 O7A        -2.1459   -1.2889    0.8856 O.co2     1 COA         0.3195
     18 O8A        -2.1706   -2.2476   -1.4866 O.co2     1 COA         0.3195
     19 O9A        -2.3217    0.2823   -1.1335 O.co2     1 COA         0.3195
     20 C4B         0.5412    1.2713   -0.8394 C.3       1 COA         0.1111
     21 O4B         1.7485    1.1278   -1.6124 O.3       1 COA        -0.1436
     22 C5B         0.6184    2.5901   -0.0816 C.3       1 COA         0.1504
     23 O5B         0.6777    3.6562   -1.0149 O.3       1 COA         0.1618
     24 P1A         0.7670    5.1936   -0.4641 P.3       1 COA        -1.1062
     25 O1A         0.8194    6.1476   -1.6376 O.co2     1 COA         0.3195
     26 O2A         1.8029    5.2507    0.6375 O.co2     1 COA         0.3195
     27 O3A        -0.6886    5.3125    0.2679 O.3       1 COA         0.4672
     28 P2A        -1.1429    6.2040    1.5594 P.3       1 COA        -1.1062
     29 O4A        -2.6377    6.0612    1.7476 O.co2     1 COA         0.3195
     30 O5A        -0.1888    5.9134    2.6974 O.co2     1 COA         0.3195
     31 O6A        -0.8065    7.6957    0.9792 O.3       1 COA         0.1618
     32 CBP        -1.0463    9.4480   -0.7182 C.3       1 COA         0.0000
     33 CCP        -1.7297    8.3208    0.0940 C.3       1 COA         0.1504
     34 CDP         0.1097    8.8359   -1.5452 C.3       1 COA         0.1179
     35 CEP        -2.0542   10.0578   -1.7127 C.3       1 COA         0.1179
     36 CAP        -0.4581   10.5415    0.2222 C.3       1 COA         0.0611
     37 OAP        -1.5012   11.1177    1.0041 O.3       1 COA        -0.2728
     38 C9P         0.5942   10.0309    1.2042 C.2       1 COA         0.3561
     39 O9P         0.2963    9.5605    2.3006 O.2       1 COA        -0.2391
     40 N8P         1.8845   10.1361    0.7101 N.am      1 COA        -0.1909
     41 C7P         3.0471    9.6947    1.4453 C.3       1 COA         0.1160
     42 C6P         3.5802   10.8378    2.2968 C.3       1 COA         0.0286
     43 C5P         4.8066   10.4401    3.0983 C.2       1 COA         0.3561
     44 O5P         5.3019    9.3172    3.0564 O.2       1 COA        -0.2391
     45 N4P         5.2773   11.4943    3.8673 N.am      1 COA        -0.1909
     46 C3P         6.4333   11.3853    4.7272 C.3       1 COA         0.1160
     47 C2P         6.0789   10.9374    6.1357 C.3       1 COA         0.2607
     48 S1P         4.9388   12.0899    6.9601 S.3       1 COA        -0.3539
     49 H2A         4.6492    4.1260    1.1552 H         1 COA        -0.1369
     50 H61A        8.7564    3.1335   -0.6708 H         1 COA         0.2048
     51 H62A        8.4991    1.6788   -1.5963 H         1 COA         0.2048
     52 H8A         4.7208   -1.1726   -2.4865 H         1 COA        -0.1292
     53 H1B         2.4085   -0.8200   -1.8256 H         1 COA        -0.0393
     54 H2B         2.3286    0.5212    0.9904 H         1 COA        -0.0393
     55 H3B        -0.0977    0.2245    0.9885 H         1 COA        -0.0393
     56 H4B        -0.2996    1.3083   -1.5416 H         1 COA        -0.0393
     57 H51A        1.5144    2.6204    0.5455 H         1 COA        -0.0393
     58 H52A       -0.2654    2.7227    0.5494 H         1 COA        -0.0393
     59 H121       -2.1262    7.5446   -0.5686 H         1 COA        -0.0393
     60 H122       -2.5562    8.7139    0.6956 H         1 COA        -0.0393
     61 H131        0.6194    9.6060   -2.1356 H         1 COA        -0.0393
     62 H132       -0.2524    8.0744   -2.2449 H         1 COA        -0.0393
     63 H133        0.8566    8.3597   -0.9005 H         1 COA        -0.0393
     64 H141       -1.5995   10.8607   -2.3043 H         1 COA        -0.0393
     65 H142       -2.9149   10.4873   -1.1878 H         1 COA        -0.0393
     66 H143       -2.4255    9.3094   -2.4205 H         1 COA        -0.0393
     67 H10        -0.0186   11.3498   -0.3758 H         1 COA        -0.0393
     68 HO1        -1.8916   10.3949    1.5193 H         1 COA         0.2010
     69 HN8         2.0335   10.5134   -0.2208 H         1 COA         0.0865
     70 H71         2.7730    8.8408    2.0730 H         1 COA        -0.0393
     71 H72         3.8098    9.3505    0.7395 H         1 COA        -0.0393
     72 H61         2.8065   11.1792    2.9958 H         1 COA        -0.0393
     73 H62         3.8456   11.6904    1.6591 H         1 COA        -0.0393
     74 HN4         4.7872   12.3830    3.8239 H         1 COA         0.0865
     75 H31         7.0914   10.6474    4.2610 H         1 COA        -0.0393
     76 H32         6.9460   12.3504    4.7161 H         1 COA        -0.0393
     77 H21         5.6210    9.9429    6.1281 H         1 COA        -0.0393
     78 H22         6.9908   10.8859    6.7386 H         1 COA        -0.0393
     79 HS1         3.9496   11.9704    6.0649 H         1 COA         0.1718
@<TRIPOS>BOND
     1    1    2 ar
     2    1    6 ar
     3    2    3 ar
     4    2   49 1
     5    3    4 ar
     6    4    5 ar
     7    4   10 ar
     8    5    6 ar
     9    5    8 ar
    10    6    7 1
    11    7   50 1
    12    7   51 1
    13    8    9 ar
    14    9   10 ar
    15    9   52 1
    16   10   11 1
    17   11   12 1
    18   11   21 1
    19   11   53 1
    20   12   13 1
    21   12   14 1
    22   12   54 1
    23   14   15 1
    24   14   20 1
    25   14   55 1
    26   15   16 1
    27   16   17 2
    28   16   18 1
    29   16   19 1
    30   20   21 1
    31   20   22 1
    32   20   56 1
    33   22   23 1
    34   22   57 1
    35   22   58 1
    36   23   24 1
    37   24   25 2
    38   24   26 1
    39   24   27 1
    40   27   28 1
    41   28   29 2
    42   28   30 1
    43   28   31 1
    44   31   33 1
    45   32   33 1
    46   32   34 1
    47   32   35 1
    48   32   36 1
    49   33   59 1
    50   33   60 1
    51   34   61 1
    52   34   62 1
    53   34   63 1
    54   35   64 1
    55   35   65 1
    56   35   66 1
    57   36   37 1
    58   36   38 1
    59   36   67 1
    60   37   68 1
    61   38   39 2
    62   38   40 am
    63   40   41 1
    64   40   69 1
    65   41   42 1
    66   41   70 1
    67   41   71 1
    68   42   43 1
    69   42   72 1
    70   42   73 1
    71   43   44 2
    72   43   45 am
    73   45   46 1
    74   45   74 1
    75   46   47 1
    76   46   75 1
    77   46   76 1
    78   47   48 1
    79   47   77 1
    80   47   78 1
    81   48   79 1
@<TRIPOS>SUBSTRUCTURE
     1 COA         1 GROUP 0 A     ****
@<TRIPOS>MOLECULE
[5-(6-aminopurin-9-yl)-2-[[[[3-hydroxy-2,2-dimethyl-4-oxo-4-[[3-oxo-3-(2-sulfanylethylamino)propyl]amino]butoxy]-oxido-phosphoryl]oxy-oxido-phosphoryl]oxymethyl]-4-oxido-tetrahydrofuran-3-yl] phosphate
   79    81     1     0     0
SMALL
USER_CHARGES

@<TRIPOS>ATOM
      1 N1A         6.3197    3.3711    0.1967 N.ar      1 COA        -0.5260
      2 C2A         5.0033    3.3256    0.5141 C.ar      1 COA         0.6629
      3 N3A         4.0730    2.4196    0.1418 N.ar      1 COA        -0.5260
      4 C4A         4.6208    1.4811   -0.6447 C.ar      1 COA         0.5212
      5 C5A         5.9423    1.3962   -1.0530 C.ar      1 COA         0.0088
      6 C6A         6.8050    2.3902   -0.6021 C.ar      1 COA         0.5212
      7 N6A         8.1621    2.3826   -0.9671 N.pl3     1 COA        -0.6025
      8 N7A         6.1335    0.2987   -1.8543 N.2       1 COA        -0.4271
      9 C8A         4.9500   -0.2731   -1.9316 C.ar      1 COA         0.5691
     10 N9A         4.0006    0.4065   -1.2155 N.pl3     1 COA        -0.5033
     11 C1B         2.5376    0.0288   -1.0907 C.3       1 COA         0.2693
     12 C2B         1.9579   -0.2640    0.3131 C.3       1 COA         0.2008
     13 O2B         2.1299   -1.5323    0.6368 O.co2     1 COA        -0.1615
     14 C3B         0.4729    0.0487    0.0699 C.3       1 COA         0.1111
     15 O3B        -0.1943   -0.9780   -0.6709 O.3       1 COA         0.1618
     16 P3B        -1.8364   -1.0586   -0.5907 P.3       1 COA        -1.1921
     17 O7A        -2.1459   -1.2889    0.8856 O.co2     1 COA         0.3195
     18 O8A        -2.1706   -2.2476   -1.4866 O.co2     1 COA         0.3195
     19 O9A        -2.3217    0.2823   -1.1335 O.co2     1 COA         0.3195
     20 C4B         0.5412    1.2713   -0.8394 C.3       1 COA         0.1111
     21 O4B         1.7485    1.1278   -1.6124 O.3       1 COA        -0.1436
     22 C5B         0.6184    2.5901   -0.0816 C.3       1 COA         0.1504
     23 O5B         0.6777    3.6562   -1.0149 O.3       1 COA         0.1618
     24 P1A         0.7670    5.1936   -0.4641 P.3       1 COA        -1.1062
     25 O1A         0.8194    6.1476   -1.6376 O.co2     1 COA         0.3195
     26 O2A         1.8029    5.2507    0.6375 O.co2     1 COA         0.3195
     27 O3A        -0.6886    5.3125    0.2679 O.3       1 COA         0.4672
     28 P2A        -1.1429    6.2040    1.5594 P.3       1 COA        -1.1062
     29 O4A        -2.6377    6.0612    1.7476 O.co2     1 COA         0.3195
     30 O5A        -0.1888    5.9134    2.6974 O.co2     1 COA         0.3195
     31 O6A        -0.8065    7.6957    0.9792 O.3       1 COA         0.1618
     32 CBP        -1.0463    9.4480   -0.7182 C.3       1 COA         0.0000
     33 CCP        -1.7297    8.3208    0.0940 C.3       1 COA         0.1504
     34 CDP         0.1097    8.8359   -1.5452 C.3       1 COA         0.1179
     35 CEP        -2.0542   10.0578   -1.7127 C.3       1 COA         0.1179
     36 CAP        -0.4581   10.5415    0.2222 C.3       1 COA         0.0611
     37 OAP         0.5109    9.9606    1.0910 O.3       1 COA        -0.2728
     38 C9P         0.2376   11.6913   -0.5032 C.2       1 COA         0.3561
     39 O9P         1.4233   11.6430   -0.8256 O.2       1 COA        -0.2391
     40 N8P        -0.6141   12.7516   -0.7682 N.am      1 COA        -0.1909
     41 C7P        -0.1929   13.9434   -1.4680 C.3       1 COA         0.1160
     42 C6P         0.3203   14.9704   -0.4692 C.3       1 COA         0.0286
     43 C5P        -0.7377   15.3740    0.5420 C.2       1 COA         0.3561
     44 O5P        -1.9396   15.3813    0.2907 O.2       1 COA        -0.2391
     45 N4P        -0.1722   15.7268    1.7586 N.am      1 COA        -0.1909
     46 C3P        -0.9555   16.1533    2.8953 C.3       1 COA         0.1160
     47 C2P        -1.3729   14.9973    3.7895 C.3       1 COA         0.2607
     48 S1P         0.0555   14.0970    4.4654 S.3       1 COA        -0.3539
     49 H2A         4.6492    4.1260    1.1552 H         1 COA        -0.1369
     50 H61A        8.7564    3.1335   -0.6708 H         1 COA         0.2048
     51 H62A        8.4991    1.6788   -1.5963 H         1 COA         0.2048
     52 H8A         4.7208   -1.1726   -2.4865 H         1 COA        -0.1292
     53 H1B         2.4085   -0.8200   -1.8256 H         1 COA        -0.0393
     54 H2B         2.3286    0.5212    0.9904 H         1 COA        -0.0393
     55 H3B        -0.0977    0.2245    0.9885 H         1 COA        -0.0393
     56 H4B        -0.2996    1.3083   -1.5416 H         1 COA        -0.0393
     57 H51A        1.5144    2.6204    0.5455 H         1 COA        -0.0393
     58 H52A       -0.2654    2.7227    0.5494 H         1 COA        -0.0393
     59 H121       -2.1262    7.5446   -0.5686 H         1 COA        -0.0393
     60 H122       -2.5562    8.7139    0.6956 H         1 COA        -0.0393
     61 H131        0.6194    9.6060   -2.1356 H         1 COA        -0.0393
     62 H132       -0.2524    8.0744   -2.2449 H         1 COA        -0.0393
     63 H133        0.8566    8.3597   -0.9005 H         1 COA        -0.0393
     64 H141       -1.5995   10.8607   -2.3043 H         1 COA        -0.0393
     65 H142       -2.9149   10.4873   -1.1878 H         1 COA        -0.0393
     66 H143       -2.4255    9.3094   -2.4205 H         1 COA        -0.0393
     67 H10        -1.2532   10.9548    0.8556 H         1 COA        -0.0393
     68 HO1         1.2026    9.5873    0.5230 H         1 COA         0.2010
     69 HN8        -1.5883   12.6916   -0.4881 H         1 COA         0.0865
     70 H71         0.5887   13.6805   -2.1879 H         1 COA        -0.0393
     71 H72        -1.0385   14.3452   -2.0353 H         1 COA        -0.0393
     72 H61         0.6567   15.8723   -0.9957 H         1 COA        -0.0393
     73 H62         1.1832   14.5674    0.0756 H         1 COA        -0.0393
     74 HN4         0.8381   15.6832    1.8546 H         1 COA         0.0865
     75 H31        -0.3236   16.8448    3.4586 H         1 COA        -0.0393
     76 H32        -1.8135   16.7131    2.5145 H         1 COA        -0.0393
     77 H21        -1.9877   15.3487    4.6244 H         1 COA        -0.0393
     78 H22        -1.9669   14.2862    3.2071 H         1 COA        -0.0393
     79 HS1         0.5659   13.7372    3.2803 H         1 COA         0.1718
@<TRIPOS>BOND
     1    1    2 ar
     2    1    6 ar
     3    2    3 ar
     4    2   49 1
     5    3    4 ar
     6    4    5 ar
     7    4   10 ar
     8    5    6 ar
     9    5    8 ar
    10    6    7 1
    11    7   50 1
    12    7   51 1
    13    8    9 ar
    14    9   10 ar
    15    9   52 1
    16   10   11 1
    17   11   12 1
    18   11   21 1
    19   11   53 1
    20   12   13 1
    21   12   14 1
    22   12   54 1
    23   14   15 1
    24   14   20 1
    25   14   55 1
    26   15   16 1
    27   16   17 2
    28   16   18 1
    29   16   19 1
    30   20   21 1
    31   20   22 1
    32   20   56 1
    33   22   23 1
    34   22   57 1
    35   22   58 1
    36   23   24 1
    37   24   25 2
    38   24   26 1
    39   24   27 1
    40   27   28 1
    41   28   29 2
    42   28   30 1
    43   28   31 1
    44   31   33 1
    45   32   33 1
    46   32   34 1
    47   32   35 1
    48   32   36 1
    49   33   59 1
    50   33   60 1
    51   34   61 1
    52   34   62 1
    53   34   63 1
    54   35   64 1
    55   35   65 1
    56   35   66 1
    57   36   37 1
    58   36   38 1
    59   36   67 1
    60   37   68 1
    61   38   39 2
    62   38   40 am
    63   40   41 1
    64   40   69 1
    65   41   42 1
    66   41   70 1
    67   41   71 1
    68   42   43 1
    69   42   72 1
    70   42   73 1
    71   43   44 2
    72   43   45 am
    73   45   46 1
    74   45   74 1
    75   46   47 1
    76   46   75 1
    77   46   76 1
    78   47   48 1
    79   47   77 1
    80   47   78 1
    81   48   79 1
@<TRIPOS>SUBSTRUCTURE
     1 COA         1 GROUP 0 A     ****
@<TRIPOS>MOLECULE
[5-(6-aminopurin-9-yl)-2-[[[[3-hydroxy-2,2-dimethyl-4-oxo-4-[[3-oxo-3-(2-sulfanylethylamino)propyl]amino]butoxy]-oxido-phosphoryl]oxy-oxido-phosphoryl]oxymethyl]-4-oxido-tetrahydrofuran-3-yl] phosphate
   79    81     1     0     0
SMALL
USER_CHARGES

@<TRIPOS>ATOM
      1 N1A         6.3197    3.3711    0.1967 N.ar      1 COA        -0.5260
      2 C2A         5.0033    3.3256    0.5141 C.ar      1 COA         0.6629
      3 N3A         4.0730    2.4196    0.1418 N.ar      1 COA        -0.5260
      4 C4A         4.6208    1.4811   -0.6447 C.ar      1 COA         0.5212
      5 C5A         5.9423    1.3962   -1.0530 C.ar      1 COA         0.0088
      6 C6A         6.8050    2.3902   -0.6021 C.ar      1 COA         0.5212
      7 N6A         8.1621    2.3826   -0.9671 N.pl3     1 COA        -0.6025
      8 N7A         6.1335    0.2987   -1.8543 N.2       1 COA        -0.4271
      9 C8A         4.9500   -0.2731   -1.9316 C.ar      1 COA         0.5691
     10 N9A         4.0006    0.4065   -1.2155 N.pl3     1 COA        -0.5033
     11 C1B         2.5376    0.0288   -1.0907 C.3       1 COA         0.2693
     12 C2B         1.9579   -0.2640    0.3131 C.3       1 COA         0.2008
     13 O2B         2.1299   -1.5323    0.6368 O.co2     1 COA        -0.1615
     14 C3B         0.4729    0.0487    0.0699 C.3       1 COA         0.1111
     15 O3B        -0.1943   -0.9780   -0.6709 O.3       1 COA         0.1618
     16 P3B        -1.8364   -1.0586   -0.5907 P.3       1 COA        -1.1921
     17 O7A        -2.1459   -1.2889    0.8856 O.co2     1 COA         0.3195
     18 O8A        -2.1706   -2.2476   -1.4866 O.co2     1 COA         0.3195
     19 O9A        -2.3217    0.2823   -1.1335 O.co2     1 COA         0.3195
     20 C4B         0.5412    1.2713   -0.8394 C.3       1 COA         0.1111
     21 O4B         1.7485    1.1278   -1.6124 O.3       1 COA        -0.1436
     22 C5B         0.6184    2.5901   -0.0816 C.3       1 COA         0.1504
     23 O5B         0.6777    3.6562   -1.0149 O.3       1 COA         0.1618
     24 P1A         0.7670    5.1936   -0.4641 P.3       1 COA        -1.1062
     25 O1A         0.8194    6.1476   -1.6376 O.co2     1 COA         0.3195
     26 O2A         1.8029    5.2507    0.6375 O.co2     1 COA         0.3195
     27 O3A        -0.6886    5.3125    0.2679 O.3       1 COA         0.4672
     28 P2A        -1.1429    6.2040    1.5594 P.3       1 COA        -1.1062
     29 O4A        -2.6377    6.0612    1.7476 O.co2     1 COA         0.3195
     30 O5A        -0.1888    5.9134    2.6974 O.co2     1 COA         0.3195
     31 O6A        -0.8065    7.6957    0.9792 O.3       1 COA         0.1618
     32 CBP        -1.0090    9.5771   -0.5793 C.3       1 COA         0.0000
     33 CCP        -1.4652    8.1470   -0.1994 C.3       1 COA         0.1504
     34 CDP         0.5182    9.5632   -0.8289 C.3       1 COA         0.1179
     35 CEP        -1.6888   10.0085   -1.8940 C.3       1 COA         0.1179
     36 CAP        -1.3149   10.5877    0.5658 C.3       1 COA         0.0611
     37 OAP        -2.6150   11.1430    0.3849 O.3       1 COA        -0.2728
     38 C9P        -1.2888    9.9815    1.9673 C.2       1 COA         0.3561
     39 O9P        -2.2761    9.4494    2.4714 O.2       1 COA        -0.2391
     40 N8P        -0.0453   10.0792    2.5706 N.am      1 COA        -0.1909
     41 C7P         0.2338    9.5548    3.8876 C.3       1 COA         0.1160
     42 C6P         1.3152   10.3924    4.5547 C.3       1 COA         0.0286
     43 C5P         1.6577    9.8937    5.9471 C.2       1 COA         0.3561
     44 O5P         1.1138    8.9227    6.4660 O.2       1 COA        -0.2391
     45 N4P         2.6442   10.6692    6.5383 N.am      1 COA        -0.1909
     46 C3P         3.1550   10.4137    7.8655 C.3       1 COA         0.1160
     47 C2P         4.3466    9.4701    7.8659 C.3       1 COA         0.2607
     48 S1P         5.7433   10.1217    6.9003 S.3       1 COA        -0.3539
     49 H2A         4.6492    4.1260    1.1552 H         1 COA        -0.1369
     50 H61A        8.7564    3.1335   -0.6708 H         1 COA         0.2048
     51 H62A        8.4991    1.6788   -1.5963 H         1 COA         0.2048
     52 H8A         4.7208   -1.1726   -2.4865 H         1 COA        -0.1292
     53 H1B         2.4085   -0.8200   -1.8256 H         1 COA        -0.0393
     54 H2B         2.3286    0.5212    0.9904 H         1 COA        -0.0393
     55 H3B        -0.0977    0.2245    0.9885 H         1 COA        -0.0393
     56 H4B        -0.2996    1.3083   -1.5416 H         1 COA        -0.0393
     57 H51A        1.5144    2.6204    0.5455 H         1 COA        -0.0393
     58 H52A       -0.2654    2.7227    0.5494 H         1 COA        -0.0393
     59 H121       -1.2324    7.4355   -0.9984 H         1 COA        -0.0393
     60 H122       -2.5440    8.1138   -0.0133 H         1 COA        -0.0393
     61 H131        0.8796   10.5616   -1.1013 H         1 COA        -0.0393
     62 H132        0.7886    8.8842   -1.6454 H         1 COA        -0.0393
     63 H133        1.0681    9.2399    0.0618 H         1 COA        -0.0393
     64 H141       -1.3855   11.0192   -2.1904 H         1 COA        -0.0393
     65 H142       -2.7797   10.0132   -1.7903 H         1 COA        -0.0393
     66 H143       -1.4280    9.3402   -2.7211 H         1 COA        -0.0393
     67 H10        -0.6003   11.4196    0.5288 H         1 COA        -0.0393
     68 HO1        -3.2380   10.4002    0.4064 H         1 COA         0.2010
     69 HN8         0.7221   10.5122    2.0658 H         1 COA         0.0865
     70 H71        -0.6855    9.5667    4.4817 H         1 COA        -0.0393
     71 H72         0.5529    8.5115    3.7992 H         1 COA        -0.0393
     72 H61         0.9881   11.4368    4.6327 H         1 COA        -0.0393
     73 H62         2.2295   10.3793    3.9483 H         1 COA        -0.0393
     74 HN4         3.0247   11.4520    6.0146 H         1 COA         0.0865
     75 H31         3.4542   11.3845    8.2691 H         1 COA        -0.0393
     76 H32         2.3275   10.0361    8.4715 H         1 COA        -0.0393
     77 H21         4.6921    9.2741    8.8862 H         1 COA        -0.0393
     78 H22         4.0518    8.5156    7.4188 H         1 COA        -0.0393
     79 HS1         5.0841   10.1969    5.7366 H         1 COA         0.1718
@<TRIPOS>BOND
     1    1    2 ar
     2    1    6 ar
     3    2    3 ar
     4    2   49 1
     5    3    4 ar
     6    4    5 ar
     7    4   10 ar
     8    5    6 ar
     9    5    8 ar
    10    6    7 1
    11    7   50 1
    12    7   51 1
    13    8    9 ar
    14    9   10 ar
    15    9   52 1
    16   10   11 1
    17   11   12 1
    18   11   21 1
    19   11   53 1
    20   12   13 1
    21   12   14 1
    22   12   54 1
    23   14   15 1
    24   14   20 1
    25   14   55 1
    26   15   16 1
    27   16   17 2
    28   16   18 1
    29   16   19 1
    30   20   21 1
    31   20   22 1
    32   20   56 1
    33   22   23 1
    34   22   57 1
    35   22   58 1
    36   23   24 1
    37   24   25 2
    38   24   26 1
    39   24   27 1
    40   27   28 1
    41   28   29 2
    42   28   30 1
    43   28   31 1
    44   31   33 1
    45   32   33 1
    46   32   34 1
    47   32   35 1
    48   32   36 1
    49   33   59 1
    50   33   60 1
    51   34   61 1
    52   34   62 1
    53   34   63 1
    54   35   64 1
    55   35   65 1
    56   35   66 1
    57   36   37 1
    58   36   38 1
    59   36   67 1
    60   37   68 1
    61   38   39 2
    62   38   40 am
    63   40   41 1
    64   40   69 1
    65   41   42 1
    66   41   70 1
    67   41   71 1
    68   42   43 1
    69   42   72 1
    70   42   73 1
    71   43   44 2
    72   43   45 am
    73   45   46 1
    74   45   74 1
    75   46   47 1
    76   46   75 1
    77   46   76 1
    78   47   48 1
    79   47   77 1
    80   47   78 1
    81   48   79 1
@<TRIPOS>SUBSTRUCTURE
     1 COA         1 GROUP 0 A     ****
@<TRIPOS>MOLECULE
[5-(6-aminopurin-9-yl)-2-[[[[3-hydroxy-2,2-dimethyl-4-oxo-4-[[3-oxo-3-(2-sulfanylethylamino)propyl]amino]butoxy]-oxido-phosphoryl]oxy-oxido-phosphoryl]oxymethyl]-4-oxido-tetrahydrofuran-3-yl] phosphate
   79    81     1     0     0
SMALL
USER_CHARGES

@<TRIPOS>ATOM
      1 N1A         6.3197    3.3711    0.1967 N.ar      1 COA        -0.5260
      2 C2A         5.0033    3.3256    0.5141 C.ar      1 COA         0.6629
      3 N3A         4.0730    2.4196    0.1418 N.ar      1 COA        -0.5260
      4 C4A         4.6208    1.4811   -0.6447 C.ar      1 COA         0.5212
      5 C5A         5.9423    1.3962   -1.0530 C.ar      1 COA         0.0088
      6 C6A         6.8050    2.3902   -0.6021 C.ar      1 COA         0.5212
      7 N6A         8.1621    2.3826   -0.9671 N.pl3     1 COA        -0.6025
      8 N7A         6.1335    0.2987   -1.8543 N.2       1 COA        -0.4271
      9 C8A         4.9500   -0.2731   -1.9316 C.ar      1 COA         0.5691
     10 N9A         4.0006    0.4065   -1.2155 N.pl3     1 COA        -0.5033
     11 C1B         2.5376    0.0288   -1.0907 C.3       1 COA         0.2693
     12 C2B         1.9579   -0.2640    0.3131 C.3       1 COA         0.2008
     13 O2B         2.1299   -1.5323    0.6368 O.co2     1 COA        -0.1615
     14 C3B         0.4729    0.0487    0.0699 C.3       1 COA         0.1111
     15 O3B        -0.1943   -0.9780   -0.6709 O.3       1 COA         0.1618
     16 P3B        -1.8364   -1.0586   -0.5907 P.3       1 COA        -1.1921
     17 O7A        -2.1459   -1.2889    0.8856 O.co2     1 COA         0.3195
     18 O8A        -2.1706   -2.2476   -1.4866 O.co2     1 COA         0.3195
     19 O9A        -2.3217    0.2823   -1.1335 O.co2     1 COA         0.3195
     20 C4B         0.5412    1.2713   -0.8394 C.3       1 COA         0.1111
     21 O4B         1.7485    1.1278   -1.6124 O.3       1 COA        -0.1436
     22 C5B         0.6184    2.5901   -0.0816 C.3       1 COA         0.1504
     23 O5B         0.6777    3.6562   -1.0149 O.3       1 COA         0.1618
     24 P1A         0.7670    5.1936   -0.4641 P.3       1 COA        -1.1062
     25 O1A         0.8194    6.1476   -1.6376 O.co2     1 COA         0.3195
     26 O2A         1.8029    5.2507    0.6375 O.co2     1 COA         0.3195
     27 O3A        -0.6886    5.3125    0.2679 O.3       1 COA         0.4672
     28 P2A        -1.1429    6.2040    1.5594 P.3       1 COA        -1.1062
     29 O4A        -2.6377    6.0612    1.7476 O.co2     1 COA         0.3195
     30 O5A        -0.1888    5.9134    2.6974 O.co2     1 COA         0.3195
     31 O6A        -0.8065    7.6957    0.9792 O.3       1 COA         0.1618
     32 CBP        -1.0463    9.4480   -0.7182 C.3       1 COA         0.0000
     33 CCP        -1.7297    8.3208    0.0940 C.3       1 COA         0.1504
     34 CDP         0.1097    8.8359   -1.5452 C.3       1 COA         0.1179
     35 CEP        -2.0542   10.0578   -1.7127 C.3       1 COA         0.1179
     36 CAP        -0.4581   10.5415    0.2222 C.3       1 COA         0.0611
     37 OAP        -1.5012   11.1177    1.0041 O.3       1 COA        -0.2728
     38 C9P         0.5942   10.0309    1.2042 C.2       1 COA         0.3561
     39 O9P         0.2963    9.5605    2.3006 O.2       1 COA        -0.2391
     40 N8P         1.8845   10.1361    0.7101 N.am      1 COA        -0.1909
     41 C7P         3.0471    9.6947    1.4453 C.3       1 COA         0.1160
     42 C6P         4.1290    9.2465    0.4735 C.3       1 COA         0.0286
     43 C5P         5.3832    8.7684    1.1830 C.2       1 COA         0.3561
     44 O5P         5.4991    8.7522    2.4054 O.2       1 COA        -0.2391
     45 N4P         6.3568    8.3645    0.2813 N.am      1 COA        -0.1909
     46 C3P         7.6497    7.8666    0.6911 C.3       1 COA         0.1160
     47 C2P         7.6643    6.3597    0.8894 C.3       1 COA         0.2607
     48 S1P         9.2974    5.7473    1.4049 S.3       1 COA        -0.3539
     49 H2A         4.6492    4.1260    1.1552 H         1 COA        -0.1369
     50 H61A        8.7564    3.1335   -0.6708 H         1 COA         0.2048
     51 H62A        8.4991    1.6788   -1.5963 H         1 COA         0.2048
     52 H8A         4.7208   -1.1726   -2.4865 H         1 COA        -0.1292
     53 H1B         2.4085   -0.8200   -1.8256 H         1 COA        -0.0393
     54 H2B         2.3286    0.5212    0.9904 H         1 COA        -0.0393
     55 H3B        -0.0977    0.2245    0.9885 H         1 COA        -0.0393
     56 H4B        -0.2996    1.3083   -1.5416 H         1 COA        -0.0393
     57 H51A        1.5144    2.6204    0.5455 H         1 COA        -0.0393
     58 H52A       -0.2654    2.7227    0.5494 H         1 COA        -0.0393
     59 H121       -2.1262    7.5446   -0.5686 H         1 COA        -0.0393
     60 H122       -2.5562    8.7139    0.6956 H         1 COA        -0.0393
     61 H131        0.6194    9.6060   -2.1356 H         1 COA        -0.0393
     62 H132       -0.2524    8.0744   -2.2449 H         1 COA        -0.0393
     63 H133        0.8566    8.3597   -0.9005 H         1 COA        -0.0393
     64 H141       -1.5995   10.8607   -2.3043 H         1 COA        -0.0393
     65 H142       -2.9149   10.4873   -1.1878 H         1 COA        -0.0393
     66 H143       -2.4255    9.3094   -2.4205 H         1 COA        -0.0393
     67 H10        -0.0186   11.3498   -0.3758 H         1 COA        -0.0393
     68 HO1        -1.8916   10.3949    1.5193 H         1 COA         0.2010
     69 HN8         2.0335   10.5134   -0.2208 H         1 COA         0.0865
     70 H71         3.4082   10.5150    2.0737 H         1 COA        -0.0393
     71 H72         2.7616    8.8739    2.1109 H         1 COA        -0.0393
     72 H61         4.4033   10.0740   -0.1926 H         1 COA        -0.0393
     73 H62         3.7550    8.4290   -0.1556 H         1 COA        -0.0393
     74 HN4         6.1515    8.4213   -0.7119 H         1 COA         0.0865
     75 H31         8.3477    8.1399   -0.1045 H         1 COA        -0.0393
     76 H32         7.9404    8.4063    1.5960 H         1 COA        -0.0393
     77 H21         6.9273    6.0551    1.6394 H         1 COA        -0.0393
     78 H22         7.4096    5.8686   -0.0549 H         1 COA        -0.0393
     79 HS1         9.9559    6.1798    0.3216 H         1 COA         0.1718
@<TRIPOS>BOND
     1    1    2 ar
     2    1    6 ar
     3    2    3 ar
     4    2   49 1
     5    3    4 ar
     6    4    5 ar
     7    4   10 ar
     8    5    6 ar
     9    5    8 ar
    10    6    7 1
    11    7   50 1
    12    7   51 1
    13    8    9 ar
    14    9   10 ar
    15    9   52 1
    16   10   11 1
    17   11   12 1
    18   11   21 1
    19   11   53 1
    20   12   13 1
    21   12   14 1
    22   12   54 1
    23   14   15 1
    24   14   20 1
    25   14   55 1
    26   15   16 1
    27   16   17 2
    28   16   18 1
    29   16   19 1
    30   20   21 1
    31   20   22 1
    32   20   56 1
    33   22   23 1
    34   22   57 1
    35   22   58 1
    36   23   24 1
    37   24   25 2
    38   24   26 1
    39   24   27 1
    40   27   28 1
    41   28   29 2
    42   28   30 1
    43   28   31 1
    44   31   33 1
    45   32   33 1
    46   32   34 1
    47   32   35 1
    48   32   36 1
    49   33   59 1
    50   33   60 1
    51   34   61 1
    52   34   62 1
    53   34   63 1
    54   35   64 1
    55   35   65 1
    56   35   66 1
    57   36   37 1
    58   36   38 1
    59   36   67 1
    60   37   68 1
    61   38   39 2
    62   38   40 am
    63   40   41 1
    64   40   69 1
    65   41   42 1
    66   41   70 1
    67   41   71 1
    68   42   43 1
    69   42   72 1
    70   42   73 1
    71   43   44 2
    72   43   45 am
    73   45   46 1
    74   45   74 1
    75   46   47 1
    76   46   75 1
    77   46   76 1
    78   47   48 1
    79   47   77 1
    80   47   78 1
    81   48   79 1
@<TRIPOS>SUBSTRUCTURE
     1 COA         1 GROUP 0 A     ****
@<TRIPOS>MOLECULE
[5-(6-aminopurin-9-yl)-2-[[[[3-hydroxy-2,2-dimethyl-4-oxo-4-[[3-oxo-3-(2-sulfanylethylamino)propyl]amino]butoxy]-oxido-phosphoryl]oxy-oxido-phosphoryl]oxymethyl]-4-oxido-tetrahydrofuran-3-yl] phosphate
   79    81     1     0     0
SMALL
USER_CHARGES

@<TRIPOS>ATOM
      1 N1A         6.3197    3.3711    0.1967 N.ar      1 COA        -0.5260
      2 C2A         5.0033    3.3256    0.5141 C.ar      1 COA         0.6629
      3 N3A         4.0730    2.4196    0.1418 N.ar      1 COA        -0.5260
      4 C4A         4.6208    1.4811   -0.6447 C.ar      1 COA         0.5212
      5 C5A         5.9423    1.3962   -1.0530 C.ar      1 COA         0.0088
      6 C6A         6.8050    2.3902   -0.6021 C.ar      1 COA         0.5212
      7 N6A         8.1621    2.3826   -0.9671 N.pl3     1 COA        -0.6025
      8 N7A         6.1335    0.2987   -1.8543 N.2       1 COA        -0.4271
      9 C8A         4.9500   -0.2731   -1.9316 C.ar      1 COA         0.5691
     10 N9A         4.0006    0.4065   -1.2155 N.pl3     1 COA        -0.5033
     11 C1B         2.5376    0.0288   -1.0907 C.3       1 COA         0.2693
     12 C2B         1.9579   -0.2640    0.3131 C.3       1 COA         0.2008
     13 O2B         2.1299   -1.5323    0.6368 O.co2     1 COA        -0.1615
     14 C3B         0.4729    0.0487    0.0699 C.3       1 COA         0.1111
     15 O3B        -0.1943   -0.9780   -0.6709 O.3       1 COA         0.1618
     16 P3B        -1.8364   -1.0586   -0.5907 P.3       1 COA        -1.1921
     17 O7A        -2.1459   -1.2889    0.8856 O.co2     1 COA         0.3195
     18 O8A        -2.1706   -2.2476   -1.4866 O.co2     1 COA         0.3195
     19 O9A        -2.3217    0.2823   -1.1335 O.co2     1 COA         0.3195
     20 C4B         0.5412    1.2713   -0.8394 C.3       1 COA         0.1111
     21 O4B         1.7485    1.1278   -1.6124 O.3       1 COA        -0.1436
     22 C5B         0.6184    2.5901   -0.0816 C.3       1 COA         0.1504
     23 O5B         0.6777    3.6562   -1.0149 O.3       1 COA         0.1618
     24 P1A         0.7670    5.1936   -0.4641 P.3       1 COA        -1.1062
     25 O1A         0.8194    6.1476   -1.6376 O.co2     1 COA         0.3195
     26 O2A         1.8029    5.2507    0.6375 O.co2     1 COA         0.3195
     27 O3A        -0.6886    5.3125    0.2679 O.3       1 COA         0.4672
     28 P2A        -1.1429    6.2040    1.5594 P.3       1 COA        -1.1062
     29 O4A        -2.6377    6.0612    1.7476 O.co2     1 COA         0.3195
     30 O5A        -0.1888    5.9134    2.6974 O.co2     1 COA         0.3195
     31 O6A        -0.8065    7.6957    0.9792 O.3       1 COA         0.1618
     32 CBP        -1.0463    9.4480   -0.7182 C.3       1 COA         0.0000
     33 CCP        -1.7297    8.3208    0.0940 C.3       1 COA         0.1504
     34 CDP         0.1097    8.8359   -1.5452 C.3       1 COA         0.1179
     35 CEP        -2.0542   10.0578   -1.7127 C.3       1 COA         0.1179
     36 CAP        -0.4581   10.5415    0.2222 C.3       1 COA         0.0611
     37 OAP         0.5109    9.9606    1.0910 O.3       1 COA        -0.2728
     38 C9P         0.2376   11.6913   -0.5032 C.2       1 COA         0.3561
     39 O9P         1.4233   11.6430   -0.8256 O.2       1 COA        -0.2391
     40 N8P        -0.6141   12.7516   -0.7682 N.am      1 COA        -0.1909
     41 C7P        -0.1929   13.9434   -1.4680 C.3       1 COA         0.1160
     42 C6P        -0.4070   13.7627   -2.9638 C.3       1 COA         0.0286
     43 C5P        -1.8620   13.5071   -3.3140 C.2       1 COA         0.3561
     44 O5P        -2.7560   13.4529   -2.4740 O.2       1 COA        -0.2391
     45 N4P        -2.0369   13.3452   -4.6805 N.am      1 COA        -0.1909
     46 C3P        -3.3245   13.0879   -5.2832 C.3       1 COA         0.1160
     47 C2P        -3.6374   11.6046   -5.3924 C.3       1 COA         0.2607
     48 S1P        -5.2606   11.2957   -6.1525 S.3       1 COA        -0.3539
     49 H2A         4.6492    4.1260    1.1552 H         1 COA        -0.1369
     50 H61A        8.7564    3.1335   -0.6708 H         1 COA         0.2048
     51 H62A        8.4991    1.6788   -1.5963 H         1 COA         0.2048
     52 H8A         4.7208   -1.1726   -2.4865 H         1 COA        -0.1292
     53 H1B         2.4085   -0.8200   -1.8256 H         1 COA        -0.0393
     54 H2B         2.3286    0.5212    0.9904 H         1 COA        -0.0393
     55 H3B        -0.0977    0.2245    0.9885 H         1 COA        -0.0393
     56 H4B        -0.2996    1.3083   -1.5416 H         1 COA        -0.0393
     57 H51A        1.5144    2.6204    0.5455 H         1 COA        -0.0393
     58 H52A       -0.2654    2.7227    0.5494 H         1 COA        -0.0393
     59 H121       -2.1262    7.5446   -0.5686 H         1 COA        -0.0393
     60 H122       -2.5562    8.7139    0.6956 H         1 COA        -0.0393
     61 H131        0.6194    9.6060   -2.1356 H         1 COA        -0.0393
     62 H132       -0.2524    8.0744   -2.2449 H         1 COA        -0.0393
     63 H133        0.8566    8.3597   -0.9005 H         1 COA        -0.0393
     64 H141       -1.5995   10.8607   -2.3043 H         1 COA        -0.0393
     65 H142       -2.9149   10.4873   -1.1878 H         1 COA        -0.0393
     66 H143       -2.4255    9.3094   -2.4205 H         1 COA        -0.0393
     67 H10        -1.2532   10.9548    0.8556 H         1 COA        -0.0393
     68 HO1         1.2026    9.5873    0.5230 H         1 COA         0.2010
     69 HN8        -1.5883   12.6916   -0.4881 H         1 COA         0.0865
     70 H71        -0.7648   14.7996   -1.0966 H         1 COA        -0.0393
     71 H72         0.8624   14.1350   -1.2492 H         1 COA        -0.0393
     72 H61         0.1898   12.9182   -3.3304 H         1 COA        -0.0393
     73 H62        -0.0740   14.6584   -3.5028 H         1 COA        -0.0393
     74 HN4        -1.2229   13.4104   -5.2847 H         1 COA         0.0865
     75 H31        -4.0640   13.5737   -4.6412 H         1 COA        -0.0393
     76 H32        -3.3406   13.5873   -6.2553 H         1 COA        -0.0393
     77 H21        -2.8746   11.0845   -5.9808 H         1 COA        -0.0393
     78 H22        -3.6517   11.1636   -4.3908 H         1 COA        -0.0393
     79 HS1        -5.9733   11.9558   -5.2302 H         1 COA         0.1718
@<TRIPOS>BOND
     1    1    2 ar
     2    1    6 ar
     3    2    3 ar
     4    2   49 1
     5    3    4 ar
     6    4    5 ar
     7    4   10 ar
     8    5    6 ar
     9    5    8 ar
    10    6    7 1
    11    7   50 1
    12    7   51 1
    13    8    9 ar
    14    9   10 ar
    15    9   52 1
    16   10   11 1
    17   11   12 1
    18   11   21 1
    19   11   53 1
    20   12   13 1
    21   12   14 1
    22   12   54 1
    23   14   15 1
    24   14   20 1
    25   14   55 1
    26   15   16 1
    27   16   17 2
    28   16   18 1
    29   16   19 1
    30   20   21 1
    31   20   22 1
    32   20   56 1
    33   22   23 1
    34   22   57 1
    35   22   58 1
    36   23   24 1
    37   24   25 2
    38   24   26 1
    39   24   27 1
    40   27   28 1
    41   28   29 2
    42   28   30 1
    43   28   31 1
    44   31   33 1
    45   32   33 1
    46   32   34 1
    47   32   35 1
    48   32   36 1
    49   33   59 1
    50   33   60 1
    51   34   61 1
    52   34   62 1
    53   34   63 1
    54   35   64 1
    55   35   65 1
    56   35   66 1
    57   36   37 1
    58   36   38 1
    59   36   67 1
    60   37   68 1
    61   38   39 2
    62   38   40 am
    63   40   41 1
    64   40   69 1
    65   41   42 1
    66   41   70 1
    67   41   71 1
    68   42   43 1
    69   42   72 1
    70   42   73 1
    71   43   44 2
    72   43   45 am
    73   45   46 1
    74   45   74 1
    75   46   47 1
    76   46   75 1
    77   46   76 1
    78   47   48 1
    79   47   77 1
    80   47   78 1
    81   48   79 1
@<TRIPOS>SUBSTRUCTURE
     1 COA         1 GROUP 0 A     ****
@<TRIPOS>MOLECULE
[5-(6-aminopurin-9-yl)-2-[[[[3-hydroxy-2,2-dimethyl-4-oxo-4-[[3-oxo-3-(2-sulfanylethylamino)propyl]amino]butoxy]-oxido-phosphoryl]oxy-oxido-phosphoryl]oxymethyl]-4-oxido-tetrahydrofuran-3-yl] phosphate
   79    81     1     0     0
SMALL
USER_CHARGES

@<TRIPOS>ATOM
      1 N1A         5.7146    2.0302   -0.7890 N.ar      1 COA        -0.5260
      2 C2A         4.3962    2.1571   -0.5034 C.ar      1 COA         0.6629
      3 N3A         3.3299    1.7526   -1.2276 N.ar      1 COA        -0.5260
      4 C4A         3.7311    1.1587   -2.3614 C.ar      1 COA         0.5212
      5 C5A         5.0346    0.9576   -2.7868 C.ar      1 COA         0.0088
      6 C6A         6.0470    1.4195   -1.9517 C.ar      1 COA         0.5212
      7 N6A         7.3978    1.2581   -2.3043 N.pl3     1 COA        -0.6025
      8 N7A         5.0562    0.3154   -3.9993 N.2       1 COA        -0.4271
      9 C8A         3.7892    0.1293   -4.3054 C.ar      1 COA         0.5691
     10 N9A         2.9479    0.6234   -3.3440 N.pl3     1 COA        -0.5033
     11 C1B         1.4328    0.5815   -3.3775 C.3       1 COA         0.2693
     12 C2B         0.6799   -0.1567   -2.2458 C.3       1 COA         0.2008
     13 O2B         0.5449   -1.4388   -2.5302 O.co2     1 COA        -0.1615
     14 C3B        -0.6749    0.5672   -2.2968 C.3       1 COA         0.1111
     15 O3B        -1.4782    0.1594   -3.4088 O.3       1 COA         0.1618
     16 P3B        -3.0996    0.4363   -3.3454 P.3       1 COA        -1.1921
     17 O7A        -3.5828   -0.3425   -2.1254 O.co2     1 COA         0.3195
     18 O8A        -3.6001   -0.1211   -4.6746 O.co2     1 COA         0.3195
     19 O9A        -3.2339    1.9510   -3.2185 O.co2     1 COA         0.3195
     20 C4B        -0.2635    2.0121   -2.5599 C.3       1 COA         0.1111
     21 O4B         0.9490    1.9478   -3.3354 O.3       1 COA        -0.1436
     22 C5B         0.0275    2.8029   -1.2913 C.3       1 COA         0.1504
     23 O5B         0.3986    4.1249   -1.6460 O.3       1 COA         0.1618
     24 P1A         0.7670    5.1936   -0.4641 P.3       1 COA        -1.1062
     25 O1A         1.1289    6.5260   -1.0837 O.co2     1 COA         0.3195
     26 O2A         1.6876    4.5161    0.5275 O.co2     1 COA         0.3195
     27 O3A        -0.6886    5.3125    0.2679 O.3       1 COA         0.4672
     28 P2A        -1.1429    6.2040    1.5594 P.3       1 COA        -1.1062
     29 O4A        -2.6377    6.0612    1.7476 O.co2     1 COA         0.3195
     30 O5A        -0.1888    5.9134    2.6974 O.co2     1 COA         0.3195
     31 O6A        -0.8065    7.6957    0.9792 O.3       1 COA         0.1618
     32 CBP        -1.0090    9.5771   -0.5793 C.3       1 COA         0.0000
     33 CCP        -1.4652    8.1470   -0.1994 C.3       1 COA         0.1504
     34 CDP         0.5182    9.5632   -0.8289 C.3       1 COA         0.1179
     35 CEP        -1.6888   10.0085   -1.8940 C.3       1 COA         0.1179
     36 CAP        -1.3149   10.5877    0.5658 C.3       1 COA         0.0611
     37 OAP        -0.8841   11.8921    0.1862 O.3       1 COA        -0.2728
     38 C9P        -2.7940   10.7032    0.9282 C.2       1 COA         0.3561
     39 O9P        -3.5640    9.7470    0.8589 O.2       1 COA        -0.2391
     40 N8P        -3.1433   11.9737    1.3570 N.am      1 COA        -0.1909
     41 C7P        -4.4804   12.3219    1.7791 C.3       1 COA         0.1160
     42 C6P        -4.6250   12.0820    3.2749 C.3       1 COA         0.0286
     43 C5P        -6.0119   12.4292    3.7858 C.2       1 COA         0.3561
     44 O5P        -6.7149   13.3011    3.2824 O.2       1 COA        -0.2391
     45 N4P        -6.3652   11.6457    4.8746 N.am      1 COA        -0.1909
     46 C3P        -7.6333   11.7719    5.5553 C.3       1 COA         0.1160
     47 C2P        -7.5909   12.7735    6.6978 C.3       1 COA         0.2607
     48 S1P        -6.3739   12.3179    7.9702 S.3       1 COA        -0.3539
     49 H2A         4.1666    2.6505    0.4351 H         1 COA        -0.1369
     50 H61A        8.1108    1.6399   -1.7121 H         1 COA         0.2048
     51 H62A        7.6305    0.8472   -3.1886 H         1 COA         0.2048
     52 H8A         3.4224   -0.3522   -5.2016 H         1 COA        -0.1292
     53 H1B         1.1905    0.2000   -4.4133 H         1 COA        -0.0393
     54 H2B         1.1486    0.1388   -1.2941 H         1 COA        -0.0393
     55 H3B        -1.2745    0.4471   -1.3878 H         1 COA        -0.0393
     56 H4B        -1.0100    2.5497   -3.1559 H         1 COA        -0.0393
     57 H51A        0.8489    2.3441   -0.7330 H         1 COA        -0.0393
     58 H52A       -0.8601    2.8452   -0.6531 H         1 COA        -0.0393
     59 H121       -1.2324    7.4355   -0.9984 H         1 COA        -0.0393
     60 H122       -2.5440    8.1138   -0.0133 H         1 COA        -0.0393
     61 H131        0.8796   10.5616   -1.1013 H         1 COA        -0.0393
     62 H132        0.7886    8.8842   -1.6454 H         1 COA        -0.0393
     63 H133        1.0681    9.2399    0.0618 H         1 COA        -0.0393
     64 H141       -1.3855   11.0192   -2.1904 H         1 COA        -0.0393
     65 H142       -2.7797   10.0132   -1.7903 H         1 COA        -0.0393
     66 H143       -1.4280    9.3402   -2.7211 H         1 COA        -0.0393
     67 H10        -0.7524   10.3112    1.4665 H         1 COA        -0.0393
     68 HO1        -1.3767   12.1229   -0.6167 H         1 COA         0.2010
     69 HN8        -2.4320   12.6966    1.4083 H         1 COA         0.0865
     70 H71        -4.6724   13.3717    1.5359 H         1 COA        -0.0393
     71 H72        -5.2027   11.7190    1.2195 H         1 COA        -0.0393
     72 H61        -3.8930   12.6858    3.8256 H         1 COA        -0.0393
     73 H62        -4.4242   11.0290    3.5086 H         1 COA        -0.0393
     74 HN4        -5.7025   10.9519    5.2083 H         1 COA         0.0865
     75 H31        -8.3522   12.1037    4.8016 H         1 COA        -0.0393
     76 H32        -7.9301   10.7746    5.8897 H         1 COA        -0.0393
     77 H21        -7.3505   13.7769    6.3318 H         1 COA        -0.0393
     78 H22        -8.5731   12.8147    7.1789 H         1 COA        -0.0393
     79 HS1        -5.3087   12.3431    7.1585 H         1 COA         0.1718
@<TRIPOS>BOND
     1    1    2 ar
     2    1    6 ar
     3    2    3 ar
     4    2   49 1
     5    3    4 ar
     6    4    5 ar
     7    4   10 ar
     8    5    6 ar
     9    5    8 ar
    10    6    7 1
    11    7   50 1
    12    7   51 1
    13    8    9 ar
    14    9   10 ar
    15    9   52 1
    16   10   11 1
    17   11   12 1
    18   11   21 1
    19   11   53 1
    20   12   13 1
    21   12   14 1
    22   12   54 1
    23   14   15 1
    24   14   20 1
    25   14   55 1
    26   15   16 1
    27   16   17 2
    28   16   18 1
    29   16   19 1
    30   20   21 1
    31   20   22 1
    32   20   56 1
    33   22   23 1
    34   22   57 1
    35   22   58 1
    36   23   24 1
    37   24   25 2
    38   24   26 1
    39   24   27 1
    40   27   28 1
    41   28   29 2
    42   28   30 1
    43   28   31 1
    44   31   33 1
    45   32   33 1
    46   32   34 1
    47   32   35 1
    48   32   36 1
    49   33   59 1
    50   33   60 1
    51   34   61 1
    52   34   62 1
    53   34   63 1
    54   35   64 1
    55   35   65 1
    56   35   66 1
    57   36   37 1
    58   36   38 1
    59   36   67 1
    60   37   68 1
    61   38   39 2
    62   38   40 am
    63   40   41 1
    64   40   69 1
    65   41   42 1
    66   41   70 1
    67   41   71 1
    68   42   43 1
    69   42   72 1
    70   42   73 1
    71   43   44 2
    72   43   45 am
    73   45   46 1
    74   45   74 1
    75   46   47 1
    76   46   75 1
    77   46   76 1
    78   47   48 1
    79   47   77 1
    80   47   78 1
    81   48   79 1
@<TRIPOS>SUBSTRUCTURE
     1 COA         1 GROUP 0 A     ****
@<TRIPOS>MOLECULE
[5-(6-aminopurin-9-yl)-2-[[[[3-hydroxy-2,2-dimethyl-4-oxo-4-[[3-oxo-3-(2-sulfanylethylamino)propyl]amino]butoxy]-oxido-phosphoryl]oxy-oxido-phosphoryl]oxymethyl]-4-oxido-tetrahydrofuran-3-yl] phosphate
   79    81     1     0     0
SMALL
USER_CHARGES

@<TRIPOS>ATOM
      1 N1A         6.3197    3.3711    0.1967 N.ar      1 COA        -0.5260
      2 C2A         5.0033    3.3256    0.5141 C.ar      1 COA         0.6629
      3 N3A         4.0730    2.4196    0.1418 N.ar      1 COA        -0.5260
      4 C4A         4.6208    1.4811   -0.6447 C.ar      1 COA         0.5212
      5 C5A         5.9423    1.3962   -1.0530 C.ar      1 COA         0.0088
      6 C6A         6.8050    2.3902   -0.6021 C.ar      1 COA         0.5212
      7 N6A         8.1621    2.3826   -0.9671 N.pl3     1 COA        -0.6025
      8 N7A         6.1335    0.2987   -1.8543 N.2       1 COA        -0.4271
      9 C8A         4.9500   -0.2731   -1.9316 C.ar      1 COA         0.5691
     10 N9A         4.0006    0.4065   -1.2155 N.pl3     1 COA        -0.5033
     11 C1B         2.5376    0.0288   -1.0907 C.3       1 COA         0.2693
     12 C2B         1.9579   -0.2640    0.3131 C.3       1 COA         0.2008
     13 O2B         2.1299   -1.5323    0.6368 O.co2     1 COA        -0.1615
     14 C3B         0.4729    0.0487    0.0699 C.3       1 COA         0.1111
     15 O3B        -0.1943   -0.9780   -0.6709 O.3       1 COA         0.1618
     16 P3B        -1.8364   -1.0586   -0.5907 P.3       1 COA        -1.1921
     17 O7A        -2.1459   -1.2889    0.8856 O.co2     1 COA         0.3195
     18 O8A        -2.1706   -2.2476   -1.4866 O.co2     1 COA         0.3195
     19 O9A        -2.3217    0.2823   -1.1335 O.co2     1 COA         0.3195
     20 C4B         0.5412    1.2713   -0.8394 C.3       1 COA         0.1111
     21 O4B         1.7485    1.1278   -1.6124 O.3       1 COA        -0.1436
     22 C5B         0.6184    2.5901   -0.0816 C.3       1 COA         0.1504
     23 O5B         0.6777    3.6562   -1.0149 O.3       1 COA         0.1618
     24 P1A         0.7670    5.1936   -0.4641 P.3       1 COA        -1.1062
     25 O1A         0.8194    6.1476   -1.6376 O.co2     1 COA         0.3195
     26 O2A         1.8029    5.2507    0.6375 O.co2     1 COA         0.3195
     27 O3A        -0.6886    5.3125    0.2679 O.3       1 COA         0.4672
     28 P2A        -1.1429    6.2040    1.5594 P.3       1 COA        -1.1062
     29 O4A        -2.6377    6.0612    1.7476 O.co2     1 COA         0.3195
     30 O5A        -0.1888    5.9134    2.6974 O.co2     1 COA         0.3195
     31 O6A        -0.8065    7.6957    0.9792 O.3       1 COA         0.1618
     32 CBP        -1.0463    9.4480   -0.7182 C.3       1 COA         0.0000
     33 CCP        -1.7297    8.3208    0.0940 C.3       1 COA         0.1504
     34 CDP         0.1097    8.8359   -1.5452 C.3       1 COA         0.1179
     35 CEP        -2.0542   10.0578   -1.7127 C.3       1 COA         0.1179
     36 CAP        -0.4581   10.5415    0.2222 C.3       1 COA         0.0611
     37 OAP        -1.5012   11.1177    1.0041 O.3       1 COA        -0.2728
     38 C9P         0.5942   10.0309    1.2042 C.2       1 COA         0.3561
     39 O9P         0.2963    9.5605    2.3006 O.2       1 COA        -0.2391
     40 N8P         1.8845   10.1361    0.7101 N.am      1 COA        -0.1909
     41 C7P         3.0471    9.6947    1.4453 C.3       1 COA         0.1160
     42 C6P         3.5802   10.8378    2.2968 C.3       1 COA         0.0286
     43 C5P         3.9854   12.0405    1.4637 C.2       1 COA         0.3561
     44 O5P         4.4029   11.9508    0.3123 O.2       1 COA        -0.2391
     45 N4P         3.8249   13.2255    2.1668 N.am      1 COA        -0.1909
     46 C3P         4.1393   14.5200    1.6076 C.3       1 COA         0.1160
     47 C2P         2.9568   15.1568    0.8961 C.3       1 COA         0.2607
     48 S1P         1.5396   15.4133    2.0067 S.3       1 COA        -0.3539
     49 H2A         4.6492    4.1260    1.1552 H         1 COA        -0.1369
     50 H61A        8.7564    3.1335   -0.6708 H         1 COA         0.2048
     51 H62A        8.4991    1.6788   -1.5963 H         1 COA         0.2048
     52 H8A         4.7208   -1.1726   -2.4865 H         1 COA        -0.1292
     53 H1B         2.4085   -0.8200   -1.8256 H         1 COA        -0.0393
     54 H2B         2.3286    0.5212    0.9904 H         1 COA        -0.0393
     55 H3B        -0.0977    0.2245    0.9885 H         1 COA        -0.0393
     56 H4B        -0.2996    1.3083   -1.5416 H         1 COA        -0.0393
     57 H51A        1.5144    2.6204    0.5455 H         1 COA        -0.0393
     58 H52A       -0.2654    2.7227    0.5494 H         1 COA        -0.0393
     59 H121       -2.1262    7.5446   -0.5686 H         1 COA        -0.0393
     60 H122       -2.5562    8.7139    0.6956 H         1 COA        -0.0393
     61 H131        0.6194    9.6060   -2.1356 H         1 COA        -0.0393
     62 H132       -0.2524    8.0744   -2.2449 H         1 COA        -0.0393
     63 H133        0.8566    8.3597   -0.9005 H         1 COA        -0.0393
     64 H141       -1.5995   10.8607   -2.3043 H         1 COA        -0.0393
     65 H142       -2.9149   10.4873   -1.1878 H         1 COA        -0.0393
     66 H143       -2.4255    9.3094   -2.4205 H         1 COA        -0.0393
     67 H10        -0.0186   11.3498   -0.3758 H         1 COA        -0.0393
     68 HO1        -1.8916   10.3949    1.5193 H         1 COA         0.2010
     69 HN8         2.0335   10.5134   -0.2208 H         1 COA         0.0865
     70 H71         2.7730    8.8408    2.0730 H         1 COA        -0.0393
     71 H72         3.8098    9.3505    0.7395 H         1 COA        -0.0393
     72 H61         4.4542   10.5045    2.8701 H         1 COA        -0.0393
     73 H62         2.8174   11.1579    3.0176 H         1 COA        -0.0393
     74 HN4         3.4703   13.1810    3.1176 H         1 COA         0.0865
     75 H31         4.4454   15.1488    2.4478 H         1 COA        -0.0393
     76 H32         5.0014   14.3948    0.9475 H         1 COA        -0.0393
     77 H21         3.2342   16.1218    0.4595 H         1 COA        -0.0393
     78 H22         2.6269   14.5003    0.0849 H         1 COA        -0.0393
     79 HS1         1.3775   14.1223    2.3250 H         1 COA         0.1718
@<TRIPOS>BOND
     1    1    2 ar
     2    1    6 ar
     3    2    3 ar
     4    2   49 1
     5    3    4 ar
     6    4    5 ar
     7    4   10 ar
     8    5    6 ar
     9    5    8 ar
    10    6    7 1
    11    7   50 1
    12    7   51 1
    13    8    9 ar
    14    9   10 ar
    15    9   52 1
    16   10   11 1
    17   11   12 1
    18   11   21 1
    19   11   53 1
    20   12   13 1
    21   12   14 1
    22   12   54 1
    23   14   15 1
    24   14   20 1
    25   14   55 1
    26   15   16 1
    27   16   17 2
    28   16   18 1
    29   16   19 1
    30   20   21 1
    31   20   22 1
    32   20   56 1
    33   22   23 1
    34   22   57 1
    35   22   58 1
    36   23   24 1
    37   24   25 2
    38   24   26 1
    39   24   27 1
    40   27   28 1
    41   28   29 2
    42   28   30 1
    43   28   31 1
    44   31   33 1
    45   32   33 1
    46   32   34 1
    47   32   35 1
    48   32   36 1
    49   33   59 1
    50   33   60 1
    51   34   61 1
    52   34   62 1
    53   34   63 1
    54   35   64 1
    55   35   65 1
    56   35   66 1
    57   36   37 1
    58   36   38 1
    59   36   67 1
    60   37   68 1
    61   38   39 2
    62   38   40 am
    63   40   41 1
    64   40   69 1
    65   41   42 1
    66   41   70 1
    67   41   71 1
    68   42   43 1
    69   42   72 1
    70   42   73 1
    71   43   44 2
    72   43   45 am
    73   45   46 1
    74   45   74 1
    75   46   47 1
    76   46   75 1
    77   46   76 1
    78   47   48 1
    79   47   77 1
    80   47   78 1
    81   48   79 1
@<TRIPOS>SUBSTRUCTURE
     1 COA         1 GROUP 0 A     ****
@<TRIPOS>MOLECULE
[5-(6-aminopurin-9-yl)-2-[[[[3-hydroxy-2,2-dimethyl-4-oxo-4-[[3-oxo-3-(2-sulfanylethylamino)propyl]amino]butoxy]-oxido-phosphoryl]oxy-oxido-phosphoryl]oxymethyl]-4-oxido-tetrahydrofuran-3-yl] phosphate
   79    81     1     0     0
SMALL
USER_CHARGES

@<TRIPOS>ATOM
      1 N1A         6.1093    3.4221   -2.1706 N.ar      1 COA        -0.5260
      2 C2A         4.9028    3.1932   -1.5982 C.ar      1 COA         0.6629
      3 N3A         3.8250    2.5648   -2.1163 N.ar      1 COA        -0.5260
      4 C4A         4.0802    2.1492   -3.3659 C.ar      1 COA         0.5212
      5 C5A         5.2577    2.3095   -4.0788 C.ar      1 COA         0.0088
      6 C6A         6.2970    2.9741   -3.4353 C.ar      1 COA         0.5212
      7 N6A         7.5267    3.1813   -4.0834 N.pl3     1 COA        -0.6025
      8 N7A         5.1483    1.7539   -5.3288 N.2       1 COA        -0.4271
      9 C8A         3.9267    1.2647   -5.3749 C.ar      1 COA         0.5691
     10 N9A         3.2402    1.4796   -4.2093 N.pl3     1 COA        -0.5033
     11 C1B         1.8139    1.0528   -3.9225 C.3       1 COA         0.2693
     12 C2B         1.5441    0.0924   -2.7404 C.3       1 COA         0.2008
     13 O2B         1.6560   -1.1661   -3.1231 O.co2     1 COA        -0.1615
     14 C3B         0.0825    0.4469   -2.4241 C.3       1 COA         0.1111
     15 O3B        -0.8371   -0.0985   -3.3754 O.3       1 COA         0.1618
     16 P3B        -2.4169   -0.2494   -2.9382 P.3       1 COA        -1.1921
     17 O7A        -2.4022   -1.1842   -1.7323 O.co2     1 COA         0.3195
     18 O8A        -3.0660   -0.8511   -4.1810 O.co2     1 COA         0.3195
     19 O9A        -2.8748    1.1724   -2.6264 O.co2     1 COA         0.3195
     20 C4B         0.0646    1.9600   -2.6151 C.3       1 COA         0.1111
     21 O4B         1.0421    2.2460   -3.6341 O.3       1 COA        -0.1436
     22 C5B         0.4465    2.7364   -1.3618 C.3       1 COA         0.1504
     23 O5B         0.3986    4.1249   -1.6460 O.3       1 COA         0.1618
     24 P1A         0.7670    5.1936   -0.4641 P.3       1 COA        -1.1062
     25 O1A         1.1289    6.5260   -1.0837 O.co2     1 COA         0.3195
     26 O2A         1.6876    4.5161    0.5275 O.co2     1 COA         0.3195
     27 O3A        -0.6886    5.3125    0.2679 O.3       1 COA         0.4672
     28 P2A        -1.1429    6.2040    1.5594 P.3       1 COA        -1.1062
     29 O4A        -2.6377    6.0612    1.7476 O.co2     1 COA         0.3195
     30 O5A        -0.1888    5.9134    2.6974 O.co2     1 COA         0.3195
     31 O6A        -0.8065    7.6957    0.9792 O.3       1 COA         0.1618
     32 CBP        -1.0090    9.5771   -0.5793 C.3       1 COA         0.0000
     33 CCP        -1.4652    8.1470   -0.1994 C.3       1 COA         0.1504
     34 CDP         0.5182    9.5632   -0.8289 C.3       1 COA         0.1179
     35 CEP        -1.6888   10.0085   -1.8940 C.3       1 COA         0.1179
     36 CAP        -1.3149   10.5877    0.5658 C.3       1 COA         0.0611
     37 OAP        -0.8841   11.8921    0.1862 O.3       1 COA        -0.2728
     38 C9P        -2.7940   10.7032    0.9282 C.2       1 COA         0.3561
     39 O9P        -3.5640    9.7470    0.8589 O.2       1 COA        -0.2391
     40 N8P        -3.1433   11.9737    1.3570 N.am      1 COA        -0.1909
     41 C7P        -4.4804   12.3219    1.7791 C.3       1 COA         0.1160
     42 C6P        -5.2854   12.8090    0.5830 C.3       1 COA         0.0286
     43 C5P        -6.7056   13.1928    0.9581 C.2       1 COA         0.3561
     44 O5P        -7.1436   13.1125    2.1025 O.2       1 COA        -0.2391
     45 N4P        -7.4228   13.6339   -0.1443 N.am      1 COA        -0.1909
     46 C3P        -8.8014   14.0590   -0.0664 C.3       1 COA         0.1160
     47 C2P        -8.9438   15.5453    0.2180 C.3       1 COA         0.2607
     48 S1P        -8.1672   16.5714   -1.0672 S.3       1 COA        -0.3539
     49 H2A         4.7878    3.5651   -0.5856 H         1 COA        -0.1369
     50 H61A        8.2460    3.7037   -3.6204 H         1 COA         0.2048
     51 H62A        7.6376    2.8871   -5.0353 H         1 COA         0.2048
     52 H8A         3.4866    0.7495   -6.2177 H         1 COA        -0.1292
     53 H1B         1.4348    0.6728   -4.9170 H         1 COA        -0.0393
     54 H2B         2.1376    0.4515   -1.8851 H         1 COA        -0.0393
     55 H3B        -0.2421    0.1333   -1.4258 H         1 COA        -0.0393
     56 H4B        -0.9063    2.3168   -2.9777 H         1 COA        -0.0393
     57 H51A        1.4605    2.4765   -1.0434 H         1 COA        -0.0393
     58 H52A       -0.2515    2.5189   -0.5478 H         1 COA        -0.0393
     59 H121       -1.2324    7.4355   -0.9984 H         1 COA        -0.0393
     60 H122       -2.5440    8.1138   -0.0133 H         1 COA        -0.0393
     61 H131        0.8796   10.5616   -1.1013 H         1 COA        -0.0393
     62 H132        0.7886    8.8842   -1.6454 H         1 COA        -0.0393
     63 H133        1.0681    9.2399    0.0618 H         1 COA        -0.0393
     64 H141       -1.3855   11.0192   -2.1904 H         1 COA        -0.0393
     65 H142       -2.7797   10.0132   -1.7903 H         1 COA        -0.0393
     66 H143       -1.4280    9.3402   -2.7211 H         1 COA        -0.0393
     67 H10        -0.7524   10.3112    1.4665 H         1 COA        -0.0393
     68 HO1        -1.3767   12.1229   -0.6167 H         1 COA         0.2010
     69 HN8        -2.4320   12.6966    1.4083 H         1 COA         0.0865
     70 H71        -4.9542   11.4454    2.2324 H         1 COA        -0.0393
     71 H72        -4.4240   13.0982    2.5487 H         1 COA        -0.0393
     72 H61        -5.3305   12.0264   -0.1846 H         1 COA        -0.0393
     73 H62        -4.7988   13.6830    0.1323 H         1 COA        -0.0393
     74 HN4        -6.9578   13.6591   -1.0471 H         1 COA         0.0865
     75 H31        -9.2477   13.8256   -1.0366 H         1 COA        -0.0393
     76 H32        -9.2952   13.4435    0.6898 H         1 COA        -0.0393
     77 H21        -9.9977   15.8305    0.2993 H         1 COA        -0.0393
     78 H22        -8.4551   15.7797    1.1688 H         1 COA        -0.0393
     79 HS1        -8.9173   16.1167   -2.0796 H         1 COA         0.1718
@<TRIPOS>BOND
     1    1    2 ar
     2    1    6 ar
     3    2    3 ar
     4    2   49 1
     5    3    4 ar
     6    4    5 ar
     7    4   10 ar
     8    5    6 ar
     9    5    8 ar
    10    6    7 1
    11    7   50 1
    12    7   51 1
    13    8    9 ar
    14    9   10 ar
    15    9   52 1
    16   10   11 1
    17   11   12 1
    18   11   21 1
    19   11   53 1
    20   12   13 1
    21   12   14 1
    22   12   54 1
    23   14   15 1
    24   14   20 1
    25   14   55 1
    26   15   16 1
    27   16   17 2
    28   16   18 1
    29   16   19 1
    30   20   21 1
    31   20   22 1
    32   20   56 1
    33   22   23 1
    34   22   57 1
    35   22   58 1
    36   23   24 1
    37   24   25 2
    38   24   26 1
    39   24   27 1
    40   27   28 1
    41   28   29 2
    42   28   30 1
    43   28   31 1
    44   31   33 1
    45   32   33 1
    46   32   34 1
    47   32   35 1
    48   32   36 1
    49   33   59 1
    50   33   60 1
    51   34   61 1
    52   34   62 1
    53   34   63 1
    54   35   64 1
    55   35   65 1
    56   35   66 1
    57   36   37 1
    58   36   38 1
    59   36   67 1
    60   37   68 1
    61   38   39 2
    62   38   40 am
    63   40   41 1
    64   40   69 1
    65   41   42 1
    66   41   70 1
    67   41   71 1
    68   42   43 1
    69   42   72 1
    70   42   73 1
    71   43   44 2
    72   43   45 am
    73   45   46 1
    74   45   74 1
    75   46   47 1
    76   46   75 1
    77   46   76 1
    78   47   48 1
    79   47   77 1
    80   47   78 1
    81   48   79 1
@<TRIPOS>SUBSTRUCTURE
     1 COA         1 GROUP 0 A     ****
@<TRIPOS>MOLECULE
[5-(6-aminopurin-9-yl)-2-[[[[3-hydroxy-2,2-dimethyl-4-oxo-4-[[3-oxo-3-(2-sulfanylethylamino)propyl]amino]butoxy]-oxido-phosphoryl]oxy-oxido-phosphoryl]oxymethyl]-4-oxido-tetrahydrofuran-3-yl] phosphate
   79    81     1     0     0
SMALL
USER_CHARGES

@<TRIPOS>ATOM
      1 N1A         6.3197    3.3711    0.1967 N.ar      1 COA        -0.5260
      2 C2A         5.0033    3.3256    0.5141 C.ar      1 COA         0.6629
      3 N3A         4.0730    2.4196    0.1418 N.ar      1 COA        -0.5260
      4 C4A         4.6208    1.4811   -0.6447 C.ar      1 COA         0.5212
      5 C5A         5.9423    1.3962   -1.0530 C.ar      1 COA         0.0088
      6 C6A         6.8050    2.3902   -0.6021 C.ar      1 COA         0.5212
      7 N6A         8.1621    2.3826   -0.9671 N.pl3     1 COA        -0.6025
      8 N7A         6.1335    0.2987   -1.8543 N.2       1 COA        -0.4271
      9 C8A         4.9500   -0.2731   -1.9316 C.ar      1 COA         0.5691
     10 N9A         4.0006    0.4065   -1.2155 N.pl3     1 COA        -0.5033
     11 C1B         2.5376    0.0288   -1.0907 C.3       1 COA         0.2693
     12 C2B         1.9579   -0.2640    0.3131 C.3       1 COA         0.2008
     13 O2B         2.1299   -1.5323    0.6368 O.co2     1 COA        -0.1615
     14 C3B         0.4729    0.0487    0.0699 C.3       1 COA         0.1111
     15 O3B        -0.1943   -0.9780   -0.6709 O.3       1 COA         0.1618
     16 P3B        -1.8364   -1.0586   -0.5907 P.3       1 COA        -1.1921
     17 O7A        -2.1459   -1.2889    0.8856 O.co2     1 COA         0.3195
     18 O8A        -2.1706   -2.2476   -1.4866 O.co2     1 COA         0.3195
     19 O9A        -2.3217    0.2823   -1.1335 O.co2     1 COA         0.3195
     20 C4B         0.5412    1.2713   -0.8394 C.3       1 COA         0.1111
     21 O4B         1.7485    1.1278   -1.6124 O.3       1 COA        -0.1436
     22 C5B         0.6184    2.5901   -0.0816 C.3       1 COA         0.1504
     23 O5B         0.6777    3.6562   -1.0149 O.3       1 COA         0.1618
     24 P1A         0.7670    5.1936   -0.4641 P.3       1 COA        -1.1062
     25 O1A         0.8194    6.1476   -1.6376 O.co2     1 COA         0.3195
     26 O2A         1.8029    5.2507    0.6375 O.co2     1 COA         0.3195
     27 O3A        -0.6886    5.3125    0.2679 O.3       1 COA         0.4672
     28 P2A        -1.1429    6.2040    1.5594 P.3       1 COA        -1.1062
     29 O4A        -2.6377    6.0612    1.7476 O.co2     1 COA         0.3195
     30 O5A        -0.1888    5.9134    2.6974 O.co2     1 COA         0.3195
     31 O6A        -0.8065    7.6957    0.9792 O.3       1 COA         0.1618
     32 CBP        -1.0463    9.4480   -0.7182 C.3       1 COA         0.0000
     33 CCP        -1.7297    8.3208    0.0940 C.3       1 COA         0.1504
     34 CDP         0.1097    8.8359   -1.5452 C.3       1 COA         0.1179
     35 CEP        -2.0542   10.0578   -1.7127 C.3       1 COA         0.1179
     36 CAP        -0.4581   10.5415    0.2222 C.3       1 COA         0.0611
     37 OAP         0.1628   11.5628   -0.5541 O.3       1 COA        -0.2728
     38 C9P        -1.4903   11.2331    1.1103 C.2       1 COA         0.3561
     39 O9P        -2.4739   11.8087    0.6485 O.2       1 COA        -0.2391
     40 N8P        -1.2033   11.1118    2.4604 N.am      1 COA        -0.1909
     41 C7P        -2.0470   11.6607    3.4968 C.3       1 COA         0.1160
     42 C6P        -1.6069   13.0817    3.8176 C.3       1 COA         0.0286
     43 C5P        -0.1703   13.1473    4.3039 C.2       1 COA         0.3561
     44 O5P         0.3733   12.2345    4.9197 O.2       1 COA        -0.2391
     45 N4P         0.4279   14.3526    3.9665 N.am      1 COA        -0.1909
     46 C3P         1.7931   14.6762    4.3113 C.3       1 COA         0.1160
     47 C2P         1.9120   15.3638    5.6616 C.3       1 COA         0.2607
     48 S1P         0.9874   16.9287    5.7230 S.3       1 COA        -0.3539
     49 H2A         4.6492    4.1260    1.1552 H         1 COA        -0.1369
     50 H61A        8.7564    3.1335   -0.6708 H         1 COA         0.2048
     51 H62A        8.4991    1.6788   -1.5963 H         1 COA         0.2048
     52 H8A         4.7208   -1.1726   -2.4865 H         1 COA        -0.1292
     53 H1B         2.4085   -0.8200   -1.8256 H         1 COA        -0.0393
     54 H2B         2.3286    0.5212    0.9904 H         1 COA        -0.0393
     55 H3B        -0.0977    0.2245    0.9885 H         1 COA        -0.0393
     56 H4B        -0.2996    1.3083   -1.5416 H         1 COA        -0.0393
     57 H51A        1.5144    2.6204    0.5455 H         1 COA        -0.0393
     58 H52A       -0.2654    2.7227    0.5494 H         1 COA        -0.0393
     59 H121       -2.1262    7.5446   -0.5686 H         1 COA        -0.0393
     60 H122       -2.5562    8.7139    0.6956 H         1 COA        -0.0393
     61 H131        0.6194    9.6060   -2.1356 H         1 COA        -0.0393
     62 H132       -0.2524    8.0744   -2.2449 H         1 COA        -0.0393
     63 H133        0.8566    8.3597   -0.9005 H         1 COA        -0.0393
     64 H141       -1.5995   10.8607   -2.3043 H         1 COA        -0.0393
     65 H142       -2.9149   10.4873   -1.1878 H         1 COA        -0.0393
     66 H143       -2.4255    9.3094   -2.4205 H         1 COA        -0.0393
     67 H10         0.3192   10.1040    0.8613 H         1 COA        -0.0393
     68 HO1        -0.5280   11.9349   -1.1241 H         1 COA         0.2010
     69 HN8        -0.3803   10.5929    2.7513 H         1 COA         0.0865
     70 H71        -3.0880   11.6459    3.1586 H         1 COA        -0.0393
     71 H72        -1.9829   11.0263    4.3865 H         1 COA        -0.0393
     72 H61        -2.2539   13.5103    4.5931 H         1 COA        -0.0393
     73 H62        -1.6994   13.7149    2.9263 H         1 COA        -0.0393
     74 HN4        -0.1186   15.0385    3.4540 H         1 COA         0.0865
     75 H31         2.3353   13.7272    4.3326 H         1 COA        -0.0393
     76 H32         2.2044   15.2825    3.5002 H         1 COA        -0.0393
     77 H21         1.5496   14.7153    6.4659 H         1 COA        -0.0393
     78 H22         2.9638   15.5928    5.8591 H         1 COA        -0.0393
     79 HS1        -0.2126   16.3908    5.4680 H         1 COA         0.1718
@<TRIPOS>BOND
     1    1    2 ar
     2    1    6 ar
     3    2    3 ar
     4    2   49 1
     5    3    4 ar
     6    4    5 ar
     7    4   10 ar
     8    5    6 ar
     9    5    8 ar
    10    6    7 1
    11    7   50 1
    12    7   51 1
    13    8    9 ar
    14    9   10 ar
    15    9   52 1
    16   10   11 1
    17   11   12 1
    18   11   21 1
    19   11   53 1
    20   12   13 1
    21   12   14 1
    22   12   54 1
    23   14   15 1
    24   14   20 1
    25   14   55 1
    26   15   16 1
    27   16   17 2
    28   16   18 1
    29   16   19 1
    30   20   21 1
    31   20   22 1
    32   20   56 1
    33   22   23 1
    34   22   57 1
    35   22   58 1
    36   23   24 1
    37   24   25 2
    38   24   26 1
    39   24   27 1
    40   27   28 1
    41   28   29 2
    42   28   30 1
    43   28   31 1
    44   31   33 1
    45   32   33 1
    46   32   34 1
    47   32   35 1
    48   32   36 1
    49   33   59 1
    50   33   60 1
    51   34   61 1
    52   34   62 1
    53   34   63 1
    54   35   64 1
    55   35   65 1
    56   35   66 1
    57   36   37 1
    58   36   38 1
    59   36   67 1
    60   37   68 1
    61   38   39 2
    62   38   40 am
    63   40   41 1
    64   40   69 1
    65   41   42 1
    66   41   70 1
    67   41   71 1
    68   42   43 1
    69   42   72 1
    70   42   73 1
    71   43   44 2
    72   43   45 am
    73   45   46 1
    74   45   74 1
    75   46   47 1
    76   46   75 1
    77   46   76 1
    78   47   48 1
    79   47   77 1
    80   47   78 1
    81   48   79 1
@<TRIPOS>SUBSTRUCTURE
     1 COA         1 GROUP 0 A     ****
@<TRIPOS>MOLECULE
[5-(6-aminopurin-9-yl)-2-[[[[3-hydroxy-2,2-dimethyl-4-oxo-4-[[3-oxo-3-(2-sulfanylethylamino)propyl]amino]butoxy]-oxido-phosphoryl]oxy-oxido-phosphoryl]oxymethyl]-4-oxido-tetrahydrofuran-3-yl] phosphate
   79    81     1     0     0
SMALL
USER_CHARGES

@<TRIPOS>ATOM
      1 N1A         6.3197    3.3711    0.1967 N.ar      1 COA        -0.5260
      2 C2A         5.0033    3.3256    0.5141 C.ar      1 COA         0.6629
      3 N3A         4.0730    2.4196    0.1418 N.ar      1 COA        -0.5260
      4 C4A         4.6208    1.4811   -0.6447 C.ar      1 COA         0.5212
      5 C5A         5.9423    1.3962   -1.0530 C.ar      1 COA         0.0088
      6 C6A         6.8050    2.3902   -0.6021 C.ar      1 COA         0.5212
      7 N6A         8.1621    2.3826   -0.9671 N.pl3     1 COA        -0.6025
      8 N7A         6.1335    0.2987   -1.8543 N.2       1 COA        -0.4271
      9 C8A         4.9500   -0.2731   -1.9316 C.ar      1 COA         0.5691
     10 N9A         4.0006    0.4065   -1.2155 N.pl3     1 COA        -0.5033
     11 C1B         2.5376    0.0288   -1.0907 C.3       1 COA         0.2693
     12 C2B         1.9579   -0.2640    0.3131 C.3       1 COA         0.2008
     13 O2B         2.1299   -1.5323    0.6368 O.co2     1 COA        -0.1615
     14 C3B         0.4729    0.0487    0.0699 C.3       1 COA         0.1111
     15 O3B        -0.1943   -0.9780   -0.6709 O.3       1 COA         0.1618
     16 P3B        -1.8364   -1.0586   -0.5907 P.3       1 COA        -1.1921
     17 O7A        -2.1459   -1.2889    0.8856 O.co2     1 COA         0.3195
     18 O8A        -2.1706   -2.2476   -1.4866 O.co2     1 COA         0.3195
     19 O9A        -2.3217    0.2823   -1.1335 O.co2     1 COA         0.3195
     20 C4B         0.5412    1.2713   -0.8394 C.3       1 COA         0.1111
     21 O4B         1.7485    1.1278   -1.6124 O.3       1 COA        -0.1436
     22 C5B         0.6184    2.5901   -0.0816 C.3       1 COA         0.1504
     23 O5B         0.6777    3.6562   -1.0149 O.3       1 COA         0.1618
     24 P1A         0.7670    5.1936   -0.4641 P.3       1 COA        -1.1062
     25 O1A         0.8194    6.1476   -1.6376 O.co2     1 COA         0.3195
     26 O2A         1.8029    5.2507    0.6375 O.co2     1 COA         0.3195
     27 O3A        -0.6886    5.3125    0.2679 O.3       1 COA         0.4672
     28 P2A        -1.1429    6.2040    1.5594 P.3       1 COA        -1.1062
     29 O4A        -2.6377    6.0612    1.7476 O.co2     1 COA         0.3195
     30 O5A        -0.1888    5.9134    2.6974 O.co2     1 COA         0.3195
     31 O6A        -0.8065    7.6957    0.9792 O.3       1 COA         0.1618
     32 CBP        -1.0463    9.4480   -0.7182 C.3       1 COA         0.0000
     33 CCP        -1.7297    8.3208    0.0940 C.3       1 COA         0.1504
     34 CDP         0.1097    8.8359   -1.5452 C.3       1 COA         0.1179
     35 CEP        -2.0542   10.0578   -1.7127 C.3       1 COA         0.1179
     36 CAP        -0.4581   10.5415    0.2222 C.3       1 COA         0.0611
     37 OAP         0.5109    9.9606    1.0910 O.3       1 COA        -0.2728
     38 C9P         0.2376   11.6913   -0.5032 C.2       1 COA         0.3561
     39 O9P         1.4233   11.6430   -0.8256 O.2       1 COA        -0.2391
     40 N8P        -0.6141   12.7516   -0.7682 N.am      1 COA        -0.1909
     41 C7P        -0.1929   13.9434   -1.4680 C.3       1 COA         0.1160
     42 C6P         0.3203   14.9704   -0.4692 C.3       1 COA         0.0286
     43 C5P        -0.7377   15.3740    0.5420 C.2       1 COA         0.3561
     44 O5P        -1.8772   14.9164    0.5416 O.2       1 COA        -0.2391
     45 N4P        -0.2514   16.3099    1.4430 N.am      1 COA        -0.1909
     46 C3P        -1.0529   16.8649    2.5093 C.3       1 COA         0.1160
     47 C2P        -1.7943   18.1250    2.0936 C.3       1 COA         0.2607
     48 S1P        -0.6640   19.4483    1.5655 S.3       1 COA        -0.3539
     49 H2A         4.6492    4.1260    1.1552 H         1 COA        -0.1369
     50 H61A        8.7564    3.1335   -0.6708 H         1 COA         0.2048
     51 H62A        8.4991    1.6788   -1.5963 H         1 COA         0.2048
     52 H8A         4.7208   -1.1726   -2.4865 H         1 COA        -0.1292
     53 H1B         2.4085   -0.8200   -1.8256 H         1 COA        -0.0393
     54 H2B         2.3286    0.5212    0.9904 H         1 COA        -0.0393
     55 H3B        -0.0977    0.2245    0.9885 H         1 COA        -0.0393
     56 H4B        -0.2996    1.3083   -1.5416 H         1 COA        -0.0393
     57 H51A        1.5144    2.6204    0.5455 H         1 COA        -0.0393
     58 H52A       -0.2654    2.7227    0.5494 H         1 COA        -0.0393
     59 H121       -2.1262    7.5446   -0.5686 H         1 COA        -0.0393
     60 H122       -2.5562    8.7139    0.6956 H         1 COA        -0.0393
     61 H131        0.6194    9.6060   -2.1356 H         1 COA        -0.0393
     62 H132       -0.2524    8.0744   -2.2449 H         1 COA        -0.0393
     63 H133        0.8566    8.3597   -0.9005 H         1 COA        -0.0393
     64 H141       -1.5995   10.8607   -2.3043 H         1 COA        -0.0393
     65 H142       -2.9149   10.4873   -1.1878 H         1 COA        -0.0393
     66 H143       -2.4255    9.3094   -2.4205 H         1 COA        -0.0393
     67 H10        -1.2532   10.9548    0.8556 H         1 COA        -0.0393
     68 HO1         1.2026    9.5873    0.5230 H         1 COA         0.2010
     69 HN8        -1.5883   12.6916   -0.4881 H         1 COA         0.0865
     70 H71         0.5887   13.6805   -2.1879 H         1 COA        -0.0393
     71 H72        -1.0385   14.3452   -2.0353 H         1 COA        -0.0393
     72 H61         0.6567   15.8723   -0.9957 H         1 COA        -0.0393
     73 H62         1.1832   14.5674    0.0756 H         1 COA        -0.0393
     74 HN4         0.7117   16.6189    1.3489 H         1 COA         0.0865
     75 H31        -1.7718   16.0892    2.7857 H         1 COA        -0.0393
     76 H32        -0.3939   17.0352    3.3644 H         1 COA        -0.0393
     77 H21        -2.4922   17.9183    1.2757 H         1 COA        -0.0393
     78 H22        -2.3710   18.5020    2.9440 H         1 COA        -0.0393
     79 HS1        -0.0049   19.5396    2.7281 H         1 COA         0.1718
@<TRIPOS>BOND
     1    1    2 ar
     2    1    6 ar
     3    2    3 ar
     4    2   49 1
     5    3    4 ar
     6    4    5 ar
     7    4   10 ar
     8    5    6 ar
     9    5    8 ar
    10    6    7 1
    11    7   50 1
    12    7   51 1
    13    8    9 ar
    14    9   10 ar
    15    9   52 1
    16   10   11 1
    17   11   12 1
    18   11   21 1
    19   11   53 1
    20   12   13 1
    21   12   14 1
    22   12   54 1
    23   14   15 1
    24   14   20 1
    25   14   55 1
    26   15   16 1
    27   16   17 2
    28   16   18 1
    29   16   19 1
    30   20   21 1
    31   20   22 1
    32   20   56 1
    33   22   23 1
    34   22   57 1
    35   22   58 1
    36   23   24 1
    37   24   25 2
    38   24   26 1
    39   24   27 1
    40   27   28 1
    41   28   29 2
    42   28   30 1
    43   28   31 1
    44   31   33 1
    45   32   33 1
    46   32   34 1
    47   32   35 1
    48   32   36 1
    49   33   59 1
    50   33   60 1
    51   34   61 1
    52   34   62 1
    53   34   63 1
    54   35   64 1
    55   35   65 1
    56   35   66 1
    57   36   37 1
    58   36   38 1
    59   36   67 1
    60   37   68 1
    61   38   39 2
    62   38   40 am
    63   40   41 1
    64   40   69 1
    65   41   42 1
    66   41   70 1
    67   41   71 1
    68   42   43 1
    69   42   72 1
    70   42   73 1
    71   43   44 2
    72   43   45 am
    73   45   46 1
    74   45   74 1
    75   46   47 1
    76   46   75 1
    77   46   76 1
    78   47   48 1
    79   47   77 1
    80   47   78 1
    81   48   79 1
@<TRIPOS>SUBSTRUCTURE
     1 COA         1 GROUP 0 A     ****
@<TRIPOS>MOLECULE
[5-(6-aminopurin-9-yl)-2-[[[[3-hydroxy-2,2-dimethyl-4-oxo-4-[[3-oxo-3-(2-sulfanylethylamino)propyl]amino]butoxy]-oxido-phosphoryl]oxy-oxido-phosphoryl]oxymethyl]-4-oxido-tetrahydrofuran-3-yl] phosphate
   79    81     1     0     0
SMALL
USER_CHARGES

@<TRIPOS>ATOM
      1 N1A         6.1093    3.4221   -2.1706 N.ar      1 COA        -0.5260
      2 C2A         4.9028    3.1932   -1.5982 C.ar      1 COA         0.6629
      3 N3A         3.8250    2.5648   -2.1163 N.ar      1 COA        -0.5260
      4 C4A         4.0802    2.1492   -3.3659 C.ar      1 COA         0.5212
      5 C5A         5.2577    2.3095   -4.0788 C.ar      1 COA         0.0088
      6 C6A         6.2970    2.9741   -3.4353 C.ar      1 COA         0.5212
      7 N6A         7.5267    3.1813   -4.0834 N.pl3     1 COA        -0.6025
      8 N7A         5.1483    1.7539   -5.3288 N.2       1 COA        -0.4271
      9 C8A         3.9267    1.2647   -5.3749 C.ar      1 COA         0.5691
     10 N9A         3.2402    1.4796   -4.2093 N.pl3     1 COA        -0.5033
     11 C1B         1.8139    1.0528   -3.9225 C.3       1 COA         0.2693
     12 C2B         1.5441    0.0924   -2.7404 C.3       1 COA         0.2008
     13 O2B         1.6560   -1.1661   -3.1231 O.co2     1 COA        -0.1615
     14 C3B         0.0825    0.4469   -2.4241 C.3       1 COA         0.1111
     15 O3B        -0.8371   -0.0985   -3.3754 O.3       1 COA         0.1618
     16 P3B        -2.4169   -0.2494   -2.9382 P.3       1 COA        -1.1921
     17 O7A        -2.4022   -1.1842   -1.7323 O.co2     1 COA         0.3195
     18 O8A        -3.0660   -0.8511   -4.1810 O.co2     1 COA         0.3195
     19 O9A        -2.8748    1.1724   -2.6264 O.co2     1 COA         0.3195
     20 C4B         0.0646    1.9600   -2.6151 C.3       1 COA         0.1111
     21 O4B         1.0421    2.2460   -3.6341 O.3       1 COA        -0.1436
     22 C5B         0.4465    2.7364   -1.3618 C.3       1 COA         0.1504
     23 O5B         0.3986    4.1249   -1.6460 O.3       1 COA         0.1618
     24 P1A         0.7670    5.1936   -0.4641 P.3       1 COA        -1.1062
     25 O1A         1.1289    6.5260   -1.0837 O.co2     1 COA         0.3195
     26 O2A         1.6876    4.5161    0.5275 O.co2     1 COA         0.3195
     27 O3A        -0.6886    5.3125    0.2679 O.3       1 COA         0.4672
     28 P2A        -1.1429    6.2040    1.5594 P.3       1 COA        -1.1062
     29 O4A        -2.6377    6.0612    1.7476 O.co2     1 COA         0.3195
     30 O5A        -0.1888    5.9134    2.6974 O.co2     1 COA         0.3195
     31 O6A        -0.8065    7.6957    0.9792 O.3       1 COA         0.1618
     32 CBP        -1.0090    9.5771   -0.5793 C.3       1 COA         0.0000
     33 CCP        -1.4652    8.1470   -0.1994 C.3       1 COA         0.1504
     34 CDP         0.5182    9.5632   -0.8289 C.3       1 COA         0.1179
     35 CEP        -1.6888   10.0085   -1.8940 C.3       1 COA         0.1179
     36 CAP        -1.3149   10.5877    0.5658 C.3       1 COA         0.0611
     37 OAP        -1.2622    9.9213    1.8245 O.3       1 COA        -0.2728
     38 C9P        -0.3407   11.7608    0.6502 C.2       1 COA         0.3561
     39 O9P         0.7104   11.6974    1.2852 O.2       1 COA        -0.2391
     40 N8P        -0.7630   12.8619   -0.0771 N.am      1 COA        -0.1909
     41 C7P         0.0024   14.0836   -0.1712 C.3       1 COA         0.1160
     42 C6P         0.9441   14.0084   -1.3643 C.3       1 COA         0.0286
     43 C5P         1.7814   15.2650   -1.5216 C.2       1 COA         0.3561
     44 O5P         1.6969   16.2281   -0.7645 O.2       1 COA        -0.2391
     45 N4P         2.6326   15.1774   -2.6134 N.am      1 COA        -0.1909
     46 C3P         3.5382   16.2379   -2.9910 C.3       1 COA         0.1160
     47 C2P         4.8996   16.1137   -2.3265 C.3       1 COA         0.2607
     48 S1P         5.7356   14.5556   -2.7518 S.3       1 COA        -0.3539
     49 H2A         4.7878    3.5651   -0.5856 H         1 COA        -0.1369
     50 H61A        8.2460    3.7037   -3.6204 H         1 COA         0.2048
     51 H62A        7.6376    2.8871   -5.0353 H         1 COA         0.2048
     52 H8A         3.4866    0.7495   -6.2177 H         1 COA        -0.1292
     53 H1B         1.4348    0.6728   -4.9170 H         1 COA        -0.0393
     54 H2B         2.1376    0.4515   -1.8851 H         1 COA        -0.0393
     55 H3B        -0.2421    0.1333   -1.4258 H         1 COA        -0.0393
     56 H4B        -0.9063    2.3168   -2.9777 H         1 COA        -0.0393
     57 H51A        1.4605    2.4765   -1.0434 H         1 COA        -0.0393
     58 H52A       -0.2515    2.5189   -0.5478 H         1 COA        -0.0393
     59 H121       -1.2324    7.4355   -0.9984 H         1 COA        -0.0393
     60 H122       -2.5440    8.1138   -0.0133 H         1 COA        -0.0393
     61 H131        0.8796   10.5616   -1.1013 H         1 COA        -0.0393
     62 H132        0.7886    8.8842   -1.6454 H         1 COA        -0.0393
     63 H133        1.0681    9.2399    0.0618 H         1 COA        -0.0393
     64 H141       -1.3855   11.0192   -2.1904 H         1 COA        -0.0393
     65 H142       -2.7797   10.0132   -1.7903 H         1 COA        -0.0393
     66 H143       -1.4280    9.3402   -2.7211 H         1 COA        -0.0393
     67 H10        -2.3323   10.9827    0.4518 H         1 COA        -0.0393
     68 HO1        -0.3644    9.5651    1.9111 H         1 COA         0.2010
     69 HN8        -1.6351   12.8136   -0.5951 H         1 COA         0.0865
     70 H71        -0.6833   14.9308   -0.2732 H         1 COA        -0.0393
     71 H72         0.5651   14.2279    0.7566 H         1 COA        -0.0393
     72 H61         0.3709   13.8575   -2.2875 H         1 COA        -0.0393
     73 H62         1.6222   13.1526   -1.2555 H         1 COA        -0.0393
     74 HN4         2.6185   14.3295   -3.1725 H         1 COA         0.0865
     75 H31         3.6509   16.1704   -4.0762 H         1 COA        -0.0393
     76 H32         3.0498   17.1880   -2.7602 H         1 COA        -0.0393
     77 H21         5.5523   16.9458   -2.6098 H         1 COA        -0.0393
     78 H22         4.7744   16.1363   -1.2395 H         1 COA        -0.0393
     79 HS1         4.7891   13.7498   -2.2527 H         1 COA         0.1718
@<TRIPOS>BOND
     1    1    2 ar
     2    1    6 ar
     3    2    3 ar
     4    2   49 1
     5    3    4 ar
     6    4    5 ar
     7    4   10 ar
     8    5    6 ar
     9    5    8 ar
    10    6    7 1
    11    7   50 1
    12    7   51 1
    13    8    9 ar
    14    9   10 ar
    15    9   52 1
    16   10   11 1
    17   11   12 1
    18   11   21 1
    19   11   53 1
    20   12   13 1
    21   12   14 1
    22   12   54 1
    23   14   15 1
    24   14   20 1
    25   14   55 1
    26   15   16 1
    27   16   17 2
    28   16   18 1
    29   16   19 1
    30   20   21 1
    31   20   22 1
    32   20   56 1
    33   22   23 1
    34   22   57 1
    35   22   58 1
    36   23   24 1
    37   24   25 2
    38   24   26 1
    39   24   27 1
    40   27   28 1
    41   28   29 2
    42   28   30 1
    43   28   31 1
    44   31   33 1
    45   32   33 1
    46   32   34 1
    47   32   35 1
    48   32   36 1
    49   33   59 1
    50   33   60 1
    51   34   61 1
    52   34   62 1
    53   34   63 1
    54   35   64 1
    55   35   65 1
    56   35   66 1
    57   36   37 1
    58   36   38 1
    59   36   67 1
    60   37   68 1
    61   38   39 2
    62   38   40 am
    63   40   41 1
    64   40   69 1
    65   41   42 1
    66   41   70 1
    67   41   71 1
    68   42   43 1
    69   42   72 1
    70   42   73 1
    71   43   44 2
    72   43   45 am
    73   45   46 1
    74   45   74 1
    75   46   47 1
    76   46   75 1
    77   46   76 1
    78   47   48 1
    79   47   77 1
    80   47   78 1
    81   48   79 1
@<TRIPOS>SUBSTRUCTURE
     1 COA         1 GROUP 0 A     ****
@<TRIPOS>MOLECULE
[5-(6-aminopurin-9-yl)-2-[[[[3-hydroxy-2,2-dimethyl-4-oxo-4-[[3-oxo-3-(2-sulfanylethylamino)propyl]amino]butoxy]-oxido-phosphoryl]oxy-oxido-phosphoryl]oxymethyl]-4-oxido-tetrahydrofuran-3-yl] phosphate
   79    81     1     0     0
SMALL
USER_CHARGES

@<TRIPOS>ATOM
      1 N1A         6.3197    3.3711    0.1967 N.ar      1 COA        -0.5260
      2 C2A         5.0033    3.3256    0.5141 C.ar      1 COA         0.6629
      3 N3A         4.0730    2.4196    0.1418 N.ar      1 COA        -0.5260
      4 C4A         4.6208    1.4811   -0.6447 C.ar      1 COA         0.5212
      5 C5A         5.9423    1.3962   -1.0530 C.ar      1 COA         0.0088
      6 C6A         6.8050    2.3902   -0.6021 C.ar      1 COA         0.5212
      7 N6A         8.1621    2.3826   -0.9671 N.pl3     1 COA        -0.6025
      8 N7A         6.1335    0.2987   -1.8543 N.2       1 COA        -0.4271
      9 C8A         4.9500   -0.2731   -1.9316 C.ar      1 COA         0.5691
     10 N9A         4.0006    0.4065   -1.2155 N.pl3     1 COA        -0.5033
     11 C1B         2.5376    0.0288   -1.0907 C.3       1 COA         0.2693
     12 C2B         1.9579   -0.2640    0.3131 C.3       1 COA         0.2008
     13 O2B         2.1299   -1.5323    0.6368 O.co2     1 COA        -0.1615
     14 C3B         0.4729    0.0487    0.0699 C.3       1 COA         0.1111
     15 O3B        -0.1943   -0.9780   -0.6709 O.3       1 COA         0.1618
     16 P3B        -1.8364   -1.0586   -0.5907 P.3       1 COA        -1.1921
     17 O7A        -2.1459   -1.2889    0.8856 O.co2     1 COA         0.3195
     18 O8A        -2.1706   -2.2476   -1.4866 O.co2     1 COA         0.3195
     19 O9A        -2.3217    0.2823   -1.1335 O.co2     1 COA         0.3195
     20 C4B         0.5412    1.2713   -0.8394 C.3       1 COA         0.1111
     21 O4B         1.7485    1.1278   -1.6124 O.3       1 COA        -0.1436
     22 C5B         0.6184    2.5901   -0.0816 C.3       1 COA         0.1504
     23 O5B         0.6777    3.6562   -1.0149 O.3       1 COA         0.1618
     24 P1A         0.7670    5.1936   -0.4641 P.3       1 COA        -1.1062
     25 O1A         0.8194    6.1476   -1.6376 O.co2     1 COA         0.3195
     26 O2A         1.8029    5.2507    0.6375 O.co2     1 COA         0.3195
     27 O3A        -0.6886    5.3125    0.2679 O.3       1 COA         0.4672
     28 P2A        -1.1429    6.2040    1.5594 P.3       1 COA        -1.1062
     29 O4A        -2.6377    6.0612    1.7476 O.co2     1 COA         0.3195
     30 O5A        -0.1888    5.9134    2.6974 O.co2     1 COA         0.3195
     31 O6A        -0.8065    7.6957    0.9792 O.3       1 COA         0.1618
     32 CBP        -1.0090    9.5771   -0.5793 C.3       1 COA         0.0000
     33 CCP        -1.4652    8.1470   -0.1994 C.3       1 COA         0.1504
     34 CDP         0.5182    9.5632   -0.8289 C.3       1 COA         0.1179
     35 CEP        -1.6888   10.0085   -1.8940 C.3       1 COA         0.1179
     36 CAP        -1.3149   10.5877    0.5658 C.3       1 COA         0.0611
     37 OAP        -1.2622    9.9213    1.8245 O.3       1 COA        -0.2728
     38 C9P        -0.3407   11.7608    0.6502 C.2       1 COA         0.3561
     39 O9P         0.7104   11.6974    1.2852 O.2       1 COA        -0.2391
     40 N8P        -0.7630   12.8619   -0.0771 N.am      1 COA        -0.1909
     41 C7P         0.0024   14.0836   -0.1712 C.3       1 COA         0.1160
     42 C6P        -0.3956   15.0264    0.9551 C.3       1 COA         0.0286
     43 C5P        -1.8677   15.3950    0.9090 C.2       1 COA         0.3561
     44 O5P        -2.5130   15.4558   -0.1339 O.2       1 COA        -0.2391
     45 N4P        -2.3697   15.6494    2.1769 N.am      1 COA        -0.1909
     46 C3P        -3.7442   16.0241    2.4174 C.3       1 COA         0.1160
     47 C2P        -4.4728   15.0416    3.3196 C.3       1 COA         0.2607
     48 S1P        -4.5183   13.3640    2.6187 S.3       1 COA        -0.3539
     49 H2A         4.6492    4.1260    1.1552 H         1 COA        -0.1369
     50 H61A        8.7564    3.1335   -0.6708 H         1 COA         0.2048
     51 H62A        8.4991    1.6788   -1.5963 H         1 COA         0.2048
     52 H8A         4.7208   -1.1726   -2.4865 H         1 COA        -0.1292
     53 H1B         2.4085   -0.8200   -1.8256 H         1 COA        -0.0393
     54 H2B         2.3286    0.5212    0.9904 H         1 COA        -0.0393
     55 H3B        -0.0977    0.2245    0.9885 H         1 COA        -0.0393
     56 H4B        -0.2996    1.3083   -1.5416 H         1 COA        -0.0393
     57 H51A        1.5144    2.6204    0.5455 H         1 COA        -0.0393
     58 H52A       -0.2654    2.7227    0.5494 H         1 COA        -0.0393
     59 H121       -1.2324    7.4355   -0.9984 H         1 COA        -0.0393
     60 H122       -2.5440    8.1138   -0.0133 H         1 COA        -0.0393
     61 H131        0.8796   10.5616   -1.1013 H         1 COA        -0.0393
     62 H132        0.7886    8.8842   -1.6454 H         1 COA        -0.0393
     63 H133        1.0681    9.2399    0.0618 H         1 COA        -0.0393
     64 H141       -1.3855   11.0192   -2.1904 H         1 COA        -0.0393
     65 H142       -2.7797   10.0132   -1.7903 H         1 COA        -0.0393
     66 H143       -1.4280    9.3402   -2.7211 H         1 COA        -0.0393
     67 H10        -2.3323   10.9827    0.4518 H         1 COA        -0.0393
     68 HO1        -0.3644    9.5651    1.9111 H         1 COA         0.2010
     69 HN8        -1.6351   12.8136   -0.5951 H         1 COA         0.0865
     70 H71         1.0693   13.8448   -0.1161 H         1 COA        -0.0393
     71 H72        -0.1791   14.5477   -1.1458 H         1 COA        -0.0393
     72 H61         0.1936   15.9502    0.8988 H         1 COA        -0.0393
     73 H62        -0.1859   14.5621    1.9268 H         1 COA        -0.0393
     74 HN4        -1.7427   15.5686    2.9720 H         1 COA         0.0865
     75 H31        -3.7131   17.0076    2.8936 H         1 COA        -0.0393
     76 H32        -4.2320   16.1342    1.4456 H         1 COA        -0.0393
     77 H21        -4.0025   14.9920    4.3071 H         1 COA        -0.0393
     78 H22        -5.5074   15.3727    3.4533 H         1 COA        -0.0393
     79 HS1        -3.1899   13.2007    2.5638 H         1 COA         0.1718
@<TRIPOS>BOND
     1    1    2 ar
     2    1    6 ar
     3    2    3 ar
     4    2   49 1
     5    3    4 ar
     6    4    5 ar
     7    4   10 ar
     8    5    6 ar
     9    5    8 ar
    10    6    7 1
    11    7   50 1
    12    7   51 1
    13    8    9 ar
    14    9   10 ar
    15    9   52 1
    16   10   11 1
    17   11   12 1
    18   11   21 1
    19   11   53 1
    20   12   13 1
    21   12   14 1
    22   12   54 1
    23   14   15 1
    24   14   20 1
    25   14   55 1
    26   15   16 1
    27   16   17 2
    28   16   18 1
    29   16   19 1
    30   20   21 1
    31   20   22 1
    32   20   56 1
    33   22   23 1
    34   22   57 1
    35   22   58 1
    36   23   24 1
    37   24   25 2
    38   24   26 1
    39   24   27 1
    40   27   28 1
    41   28   29 2
    42   28   30 1
    43   28   31 1
    44   31   33 1
    45   32   33 1
    46   32   34 1
    47   32   35 1
    48   32   36 1
    49   33   59 1
    50   33   60 1
    51   34   61 1
    52   34   62 1
    53   34   63 1
    54   35   64 1
    55   35   65 1
    56   35   66 1
    57   36   37 1
    58   36   38 1
    59   36   67 1
    60   37   68 1
    61   38   39 2
    62   38   40 am
    63   40   41 1
    64   40   69 1
    65   41   42 1
    66   41   70 1
    67   41   71 1
    68   42   43 1
    69   42   72 1
    70   42   73 1
    71   43   44 2
    72   43   45 am
    73   45   46 1
    74   45   74 1
    75   46   47 1
    76   46   75 1
    77   46   76 1
    78   47   48 1
    79   47   77 1
    80   47   78 1
    81   48   79 1
@<TRIPOS>SUBSTRUCTURE
     1 COA         1 GROUP 0 A     ****
@<TRIPOS>MOLECULE
[5-(6-aminopurin-9-yl)-2-[[[[3-hydroxy-2,2-dimethyl-4-oxo-4-[[3-oxo-3-(2-sulfanylethylamino)propyl]amino]butoxy]-oxido-phosphoryl]oxy-oxido-phosphoryl]oxymethyl]-4-oxido-tetrahydrofuran-3-yl] phosphate
   79    81     1     0     0
SMALL
USER_CHARGES

@<TRIPOS>ATOM
      1 N1A         4.6908    0.9263    0.5284 N.ar      1 COA        -0.5260
      2 C2A         3.4193    1.3931    0.4919 C.ar      1 COA         0.6629
      3 N3A         2.4653    1.1803   -0.4405 N.ar      1 COA        -0.5260
      4 C4A         2.9338    0.3916   -1.4192 C.ar      1 COA         0.5212
      5 C5A         4.2020   -0.1580   -1.5185 C.ar      1 COA         0.0088
      6 C6A         5.0963    0.1348   -0.4937 C.ar      1 COA         0.5212
      7 N6A         6.4038   -0.3801   -0.5131 N.pl3     1 COA        -0.6025
      8 N7A         4.3170   -0.9111   -2.6598 N.2       1 COA        -0.4271
      9 C8A         3.1403   -0.8212   -3.2436 C.ar      1 COA         0.5691
     10 N9A         2.2683   -0.0422   -2.5302 N.pl3     1 COA        -0.5033
     11 C1B         0.8363    0.2748   -2.9142 C.3       1 COA         0.2693
     12 C2B        -0.3043   -0.1391   -1.9549 C.3       1 COA         0.2008
     13 O2B        -0.6991   -1.3747   -2.2004 O.co2     1 COA        -0.1615
     14 C3B        -1.3853    0.8773   -2.3558 C.3       1 COA         0.1111
     15 O3B        -2.0094    0.5576   -3.6033 O.3       1 COA         0.1618
     16 P3B        -3.4806    1.2180   -3.9334 P.3       1 COA        -1.1921
     17 O7A        -4.3962    0.7100   -2.8235 O.co2     1 COA         0.3195
     18 O8A        -3.8112    0.6588   -5.3140 O.co2     1 COA         0.3195
     19 O9A        -3.2466    2.7257   -3.9151 O.co2     1 COA         0.3195
     20 C4B        -0.5713    2.1464   -2.5855 C.3       1 COA         0.1111
     21 O4B         0.7211    1.7136   -3.0526 O.3       1 COA        -0.1436
     22 C5B        -0.3655    2.9745   -1.3239 C.3       1 COA         0.1504
     23 O5B         0.3986    4.1249   -1.6460 O.3       1 COA         0.1618
     24 P1A         0.7670    5.1936   -0.4641 P.3       1 COA        -1.1062
     25 O1A         1.1289    6.5260   -1.0837 O.co2     1 COA         0.3195
     26 O2A         1.6876    4.5161    0.5275 O.co2     1 COA         0.3195
     27 O3A        -0.6886    5.3125    0.2679 O.3       1 COA         0.4672
     28 P2A        -1.1429    6.2040    1.5594 P.3       1 COA        -1.1062
     29 O4A        -2.6377    6.0612    1.7476 O.co2     1 COA         0.3195
     30 O5A        -0.1888    5.9134    2.6974 O.co2     1 COA         0.3195
     31 O6A        -0.8065    7.6957    0.9792 O.3       1 COA         0.1618
     32 CBP        -1.0090    9.5771   -0.5793 C.3       1 COA         0.0000
     33 CCP        -1.4652    8.1470   -0.1994 C.3       1 COA         0.1504
     34 CDP         0.5182    9.5632   -0.8289 C.3       1 COA         0.1179
     35 CEP        -1.6888   10.0085   -1.8940 C.3       1 COA         0.1179
     36 CAP        -1.3149   10.5877    0.5658 C.3       1 COA         0.0611
     37 OAP        -0.8841   11.8921    0.1862 O.3       1 COA        -0.2728
     38 C9P        -2.7940   10.7032    0.9282 C.2       1 COA         0.3561
     39 O9P        -3.5640    9.7470    0.8589 O.2       1 COA        -0.2391
     40 N8P        -3.1433   11.9737    1.3570 N.am      1 COA        -0.1909
     41 C7P        -4.4804   12.3219    1.7791 C.3       1 COA         0.1160
     42 C6P        -5.2854   12.8090    0.5830 C.3       1 COA         0.0286
     43 C5P        -4.6698   14.0337   -0.0696 C.2       1 COA         0.3561
     44 O5P        -3.6380   14.5633    0.3339 O.2       1 COA        -0.2391
     45 N4P        -5.4171   14.4623   -1.1568 N.am      1 COA        -0.1909
     46 C3P        -5.0548   15.6099   -1.9564 C.3       1 COA         0.1160
     47 C2P        -4.1530   15.2512   -3.1262 C.3       1 COA         0.2607
     48 S1P        -4.9353   14.0663   -4.2626 S.3       1 COA        -0.3539
     49 H2A         3.1287    2.0232    1.3259 H         1 COA        -0.1369
     50 H61A        7.0472   -0.1189    0.2098 H         1 COA         0.2048
     51 H62A        6.7069   -0.9256   -1.2976 H         1 COA         0.2048
     52 H8A         2.8628   -1.2932   -4.1762 H         1 COA        -0.1292
     53 H1B         0.7316   -0.1451   -3.9582 H         1 COA        -0.0393
     54 H2B         0.0098    0.1350   -0.9357 H         1 COA        -0.0393
     55 H3B        -2.1756    1.0002   -1.6070 H         1 COA        -0.0393
     56 H4B        -1.0101    2.7804   -3.3646 H         1 COA        -0.0393
     57 H51A        0.1721    2.3946   -0.5677 H         1 COA        -0.0393
     58 H52A       -1.3279    3.2941   -0.9132 H         1 COA        -0.0393
     59 H121       -1.2324    7.4355   -0.9984 H         1 COA        -0.0393
     60 H122       -2.5440    8.1138   -0.0133 H         1 COA        -0.0393
     61 H131        0.8796   10.5616   -1.1013 H         1 COA        -0.0393
     62 H132        0.7886    8.8842   -1.6454 H         1 COA        -0.0393
     63 H133        1.0681    9.2399    0.0618 H         1 COA        -0.0393
     64 H141       -1.3855   11.0192   -2.1904 H         1 COA        -0.0393
     65 H142       -2.7797   10.0132   -1.7903 H         1 COA        -0.0393
     66 H143       -1.4280    9.3402   -2.7211 H         1 COA        -0.0393
     67 H10        -0.7524   10.3112    1.4665 H         1 COA        -0.0393
     68 HO1        -1.3767   12.1229   -0.6167 H         1 COA         0.2010
     69 HN8        -2.4320   12.6966    1.4083 H         1 COA         0.0865
     70 H71        -4.9542   11.4454    2.2324 H         1 COA        -0.0393
     71 H72        -4.4240   13.0982    2.5487 H         1 COA        -0.0393
     72 H61        -6.3072   13.0602    0.8938 H         1 COA        -0.0393
     73 H62        -5.3576   12.0151   -0.1709 H         1 COA        -0.0393
     74 HN4        -6.2569   13.9461   -1.4019 H         1 COA         0.0865
     75 H31        -5.9925   16.0295   -2.3298 H         1 COA        -0.0393
     76 H32        -4.5965   16.3456   -1.2906 H         1 COA        -0.0393
     77 H21        -3.8735   16.1440   -3.6948 H         1 COA        -0.0393
     78 H22        -3.2357   14.7900   -2.7471 H         1 COA        -0.0393
     79 HS1        -5.0982   13.0927   -3.3571 H         1 COA         0.1718
@<TRIPOS>BOND
     1    1    2 ar
     2    1    6 ar
     3    2    3 ar
     4    2   49 1
     5    3    4 ar
     6    4    5 ar
     7    4   10 ar
     8    5    6 ar
     9    5    8 ar
    10    6    7 1
    11    7   50 1
    12    7   51 1
    13    8    9 ar
    14    9   10 ar
    15    9   52 1
    16   10   11 1
    17   11   12 1
    18   11   21 1
    19   11   53 1
    20   12   13 1
    21   12   14 1
    22   12   54 1
    23   14   15 1
    24   14   20 1
    25   14   55 1
    26   15   16 1
    27   16   17 2
    28   16   18 1
    29   16   19 1
    30   20   21 1
    31   20   22 1
    32   20   56 1
    33   22   23 1
    34   22   57 1
    35   22   58 1
    36   23   24 1
    37   24   25 2
    38   24   26 1
    39   24   27 1
    40   27   28 1
    41   28   29 2
    42   28   30 1
    43   28   31 1
    44   31   33 1
    45   32   33 1
    46   32   34 1
    47   32   35 1
    48   32   36 1
    49   33   59 1
    50   33   60 1
    51   34   61 1
    52   34   62 1
    53   34   63 1
    54   35   64 1
    55   35   65 1
    56   35   66 1
    57   36   37 1
    58   36   38 1
    59   36   67 1
    60   37   68 1
    61   38   39 2
    62   38   40 am
    63   40   41 1
    64   40   69 1
    65   41   42 1
    66   41   70 1
    67   41   71 1
    68   42   43 1
    69   42   72 1
    70   42   73 1
    71   43   44 2
    72   43   45 am
    73   45   46 1
    74   45   74 1
    75   46   47 1
    76   46   75 1
    77   46   76 1
    78   47   48 1
    79   47   77 1
    80   47   78 1
    81   48   79 1
@<TRIPOS>SUBSTRUCTURE
     1 COA         1 GROUP 0 A     ****
@<TRIPOS>MOLECULE
[5-(6-aminopurin-9-yl)-2-[[[[3-hydroxy-2,2-dimethyl-4-oxo-4-[[3-oxo-3-(2-sulfanylethylamino)propyl]amino]butoxy]-oxido-phosphoryl]oxy-oxido-phosphoryl]oxymethyl]-4-oxido-tetrahydrofuran-3-yl] phosphate
   79    81     1     0     0
SMALL
USER_CHARGES

@<TRIPOS>ATOM
      1 N1A         6.1093    3.4221   -2.1706 N.ar      1 COA        -0.5260
      2 C2A         4.9028    3.1932   -1.5982 C.ar      1 COA         0.6629
      3 N3A         3.8250    2.5648   -2.1163 N.ar      1 COA        -0.5260
      4 C4A         4.0802    2.1492   -3.3659 C.ar      1 COA         0.5212
      5 C5A         5.2577    2.3095   -4.0788 C.ar      1 COA         0.0088
      6 C6A         6.2970    2.9741   -3.4353 C.ar      1 COA         0.5212
      7 N6A         7.5267    3.1813   -4.0834 N.pl3     1 COA        -0.6025
      8 N7A         5.1483    1.7539   -5.3288 N.2       1 COA        -0.4271
      9 C8A         3.9267    1.2647   -5.3749 C.ar      1 COA         0.5691
     10 N9A         3.2402    1.4796   -4.2093 N.pl3     1 COA        -0.5033
     11 C1B         1.8139    1.0528   -3.9225 C.3       1 COA         0.2693
     12 C2B         1.5441    0.0924   -2.7404 C.3       1 COA         0.2008
     13 O2B         1.6560   -1.1661   -3.1231 O.co2     1 COA        -0.1615
     14 C3B         0.0825    0.4469   -2.4241 C.3       1 COA         0.1111
     15 O3B        -0.8371   -0.0985   -3.3754 O.3       1 COA         0.1618
     16 P3B        -2.4169   -0.2494   -2.9382 P.3       1 COA        -1.1921
     17 O7A        -2.4022   -1.1842   -1.7323 O.co2     1 COA         0.3195
     18 O8A        -3.0660   -0.8511   -4.1810 O.co2     1 COA         0.3195
     19 O9A        -2.8748    1.1724   -2.6264 O.co2     1 COA         0.3195
     20 C4B         0.0646    1.9600   -2.6151 C.3       1 COA         0.1111
     21 O4B         1.0421    2.2460   -3.6341 O.3       1 COA        -0.1436
     22 C5B         0.4465    2.7364   -1.3618 C.3       1 COA         0.1504
     23 O5B         0.3986    4.1249   -1.6460 O.3       1 COA         0.1618
     24 P1A         0.7670    5.1936   -0.4641 P.3       1 COA        -1.1062
     25 O1A         1.1289    6.5260   -1.0837 O.co2     1 COA         0.3195
     26 O2A         1.6876    4.5161    0.5275 O.co2     1 COA         0.3195
     27 O3A        -0.6886    5.3125    0.2679 O.3       1 COA         0.4672
     28 P2A        -1.1429    6.2040    1.5594 P.3       1 COA        -1.1062
     29 O4A        -2.6377    6.0612    1.7476 O.co2     1 COA         0.3195
     30 O5A        -0.1888    5.9134    2.6974 O.co2     1 COA         0.3195
     31 O6A        -0.8065    7.6957    0.9792 O.3       1 COA         0.1618
     32 CBP        -1.0090    9.5771   -0.5793 C.3       1 COA         0.0000
     33 CCP        -1.4652    8.1470   -0.1994 C.3       1 COA         0.1504
     34 CDP         0.5182    9.5632   -0.8289 C.3       1 COA         0.1179
     35 CEP        -1.6888   10.0085   -1.8940 C.3       1 COA         0.1179
     36 CAP        -1.3149   10.5877    0.5658 C.3       1 COA         0.0611
     37 OAP        -1.2622    9.9213    1.8245 O.3       1 COA        -0.2728
     38 C9P        -0.3407   11.7608    0.6502 C.2       1 COA         0.3561
     39 O9P         0.7104   11.6974    1.2852 O.2       1 COA        -0.2391
     40 N8P        -0.7630   12.8619   -0.0771 N.am      1 COA        -0.1909
     41 C7P         0.0024   14.0836   -0.1712 C.3       1 COA         0.1160
     42 C6P         0.9441   14.0084   -1.3643 C.3       1 COA         0.0286
     43 C5P         0.2033   13.8213   -2.6761 C.2       1 COA         0.3561
     44 O5P        -1.0197   13.7394   -2.7517 O.2       1 COA        -0.2391
     45 N4P         1.0778   13.7550   -3.7508 N.am      1 COA        -0.1909
     46 C3P         0.6351   13.5777   -5.1147 C.3       1 COA         0.1160
     47 C2P         0.3712   14.8959   -5.8239 C.3       1 COA         0.2607
     48 S1P         1.8541   15.9459   -5.9031 S.3       1 COA        -0.3539
     49 H2A         4.7878    3.5651   -0.5856 H         1 COA        -0.1369
     50 H61A        8.2460    3.7037   -3.6204 H         1 COA         0.2048
     51 H62A        7.6376    2.8871   -5.0353 H         1 COA         0.2048
     52 H8A         3.4866    0.7495   -6.2177 H         1 COA        -0.1292
     53 H1B         1.4348    0.6728   -4.9170 H         1 COA        -0.0393
     54 H2B         2.1376    0.4515   -1.8851 H         1 COA        -0.0393
     55 H3B        -0.2421    0.1333   -1.4258 H         1 COA        -0.0393
     56 H4B        -0.9063    2.3168   -2.9777 H         1 COA        -0.0393
     57 H51A        1.4605    2.4765   -1.0434 H         1 COA        -0.0393
     58 H52A       -0.2515    2.5189   -0.5478 H         1 COA        -0.0393
     59 H121       -1.2324    7.4355   -0.9984 H         1 COA        -0.0393
     60 H122       -2.5440    8.1138   -0.0133 H         1 COA        -0.0393
     61 H131        0.8796   10.5616   -1.1013 H         1 COA        -0.0393
     62 H132        0.7886    8.8842   -1.6454 H         1 COA        -0.0393
     63 H133        1.0681    9.2399    0.0618 H         1 COA        -0.0393
     64 H141       -1.3855   11.0192   -2.1904 H         1 COA        -0.0393
     65 H142       -2.7797   10.0132   -1.7903 H         1 COA        -0.0393
     66 H143       -1.4280    9.3402   -2.7211 H         1 COA        -0.0393
     67 H10        -2.3323   10.9827    0.4518 H         1 COA        -0.0393
     68 HO1        -0.3644    9.5651    1.9111 H         1 COA         0.2010
     69 HN8        -1.6351   12.8136   -0.5951 H         1 COA         0.0865
     70 H71        -0.6833   14.9308   -0.2732 H         1 COA        -0.0393
     71 H72         0.5651   14.2279    0.7566 H         1 COA        -0.0393
     72 H61         1.6432   13.1719   -1.2401 H         1 COA        -0.0393
     73 H62         1.5403   14.9270   -1.4320 H         1 COA        -0.0393
     74 HN4         2.0743   13.8348   -3.5709 H         1 COA         0.0865
     75 H31         1.4356   13.0379   -5.6272 H         1 COA        -0.0393
     76 H32        -0.2480   12.9340   -5.0949 H         1 COA        -0.0393
     77 H21         0.0106   14.7278   -6.8439 H         1 COA        -0.0393
     78 H22        -0.3989   15.4512   -5.2796 H         1 COA        -0.0393
     79 HS1         2.0259   16.0431   -4.5782 H         1 COA         0.1718
@<TRIPOS>BOND
     1    1    2 ar
     2    1    6 ar
     3    2    3 ar
     4    2   49 1
     5    3    4 ar
     6    4    5 ar
     7    4   10 ar
     8    5    6 ar
     9    5    8 ar
    10    6    7 1
    11    7   50 1
    12    7   51 1
    13    8    9 ar
    14    9   10 ar
    15    9   52 1
    16   10   11 1
    17   11   12 1
    18   11   21 1
    19   11   53 1
    20   12   13 1
    21   12   14 1
    22   12   54 1
    23   14   15 1
    24   14   20 1
    25   14   55 1
    26   15   16 1
    27   16   17 2
    28   16   18 1
    29   16   19 1
    30   20   21 1
    31   20   22 1
    32   20   56 1
    33   22   23 1
    34   22   57 1
    35   22   58 1
    36   23   24 1
    37   24   25 2
    38   24   26 1
    39   24   27 1
    40   27   28 1
    41   28   29 2
    42   28   30 1
    43   28   31 1
    44   31   33 1
    45   32   33 1
    46   32   34 1
    47   32   35 1
    48   32   36 1
    49   33   59 1
    50   33   60 1
    51   34   61 1
    52   34   62 1
    53   34   63 1
    54   35   64 1
    55   35   65 1
    56   35   66 1
    57   36   37 1
    58   36   38 1
    59   36   67 1
    60   37   68 1
    61   38   39 2
    62   38   40 am
    63   40   41 1
    64   40   69 1
    65   41   42 1
    66   41   70 1
    67   41   71 1
    68   42   43 1
    69   42   72 1
    70   42   73 1
    71   43   44 2
    72   43   45 am
    73   45   46 1
    74   45   74 1
    75   46   47 1
    76   46   75 1
    77   46   76 1
    78   47   48 1
    79   47   77 1
    80   47   78 1
    81   48   79 1
@<TRIPOS>SUBSTRUCTURE
     1 COA         1 GROUP 0 A     ****
@<TRIPOS>MOLECULE
[5-(6-aminopurin-9-yl)-2-[[[[3-hydroxy-2,2-dimethyl-4-oxo-4-[[3-oxo-3-(2-sulfanylethylamino)propyl]amino]butoxy]-oxido-phosphoryl]oxy-oxido-phosphoryl]oxymethyl]-4-oxido-tetrahydrofuran-3-yl] phosphate
   79    81     1     0     0
SMALL
USER_CHARGES

@<TRIPOS>ATOM
      1 N1A         6.3197    3.3711    0.1967 N.ar      1 COA        -0.5260
      2 C2A         5.0033    3.3256    0.5141 C.ar      1 COA         0.6629
      3 N3A         4.0730    2.4196    0.1418 N.ar      1 COA        -0.5260
      4 C4A         4.6208    1.4811   -0.6447 C.ar      1 COA         0.5212
      5 C5A         5.9423    1.3962   -1.0530 C.ar      1 COA         0.0088
      6 C6A         6.8050    2.3902   -0.6021 C.ar      1 COA         0.5212
      7 N6A         8.1621    2.3826   -0.9671 N.pl3     1 COA        -0.6025
      8 N7A         6.1335    0.2987   -1.8543 N.2       1 COA        -0.4271
      9 C8A         4.9500   -0.2731   -1.9316 C.ar      1 COA         0.5691
     10 N9A         4.0006    0.4065   -1.2155 N.pl3     1 COA        -0.5033
     11 C1B         2.5376    0.0288   -1.0907 C.3       1 COA         0.2693
     12 C2B         1.9579   -0.2640    0.3131 C.3       1 COA         0.2008
     13 O2B         2.1299   -1.5323    0.6368 O.co2     1 COA        -0.1615
     14 C3B         0.4729    0.0487    0.0699 C.3       1 COA         0.1111
     15 O3B        -0.1943   -0.9780   -0.6709 O.3       1 COA         0.1618
     16 P3B        -1.8364   -1.0586   -0.5907 P.3       1 COA        -1.1921
     17 O7A        -2.1459   -1.2889    0.8856 O.co2     1 COA         0.3195
     18 O8A        -2.1706   -2.2476   -1.4866 O.co2     1 COA         0.3195
     19 O9A        -2.3217    0.2823   -1.1335 O.co2     1 COA         0.3195
     20 C4B         0.5412    1.2713   -0.8394 C.3       1 COA         0.1111
     21 O4B         1.7485    1.1278   -1.6124 O.3       1 COA        -0.1436
     22 C5B         0.6184    2.5901   -0.0816 C.3       1 COA         0.1504
     23 O5B         0.6777    3.6562   -1.0149 O.3       1 COA         0.1618
     24 P1A         0.7670    5.1936   -0.4641 P.3       1 COA        -1.1062
     25 O1A         0.8194    6.1476   -1.6376 O.co2     1 COA         0.3195
     26 O2A         1.8029    5.2507    0.6375 O.co2     1 COA         0.3195
     27 O3A        -0.6886    5.3125    0.2679 O.3       1 COA         0.4672
     28 P2A        -1.1429    6.2040    1.5594 P.3       1 COA        -1.1062
     29 O4A        -2.6377    6.0612    1.7476 O.co2     1 COA         0.3195
     30 O5A        -0.1888    5.9134    2.6974 O.co2     1 COA         0.3195
     31 O6A        -0.8065    7.6957    0.9792 O.3       1 COA         0.1618
     32 CBP        -1.0463    9.4480   -0.7182 C.3       1 COA         0.0000
     33 CCP        -1.7297    8.3208    0.0940 C.3       1 COA         0.1504
     34 CDP         0.1097    8.8359   -1.5452 C.3       1 COA         0.1179
     35 CEP        -2.0542   10.0578   -1.7127 C.3       1 COA         0.1179
     36 CAP        -0.4581   10.5415    0.2222 C.3       1 COA         0.0611
     37 OAP        -1.5012   11.1177    1.0041 O.3       1 COA        -0.2728
     38 C9P         0.5942   10.0309    1.2042 C.2       1 COA         0.3561
     39 O9P         0.2963    9.5605    2.3006 O.2       1 COA        -0.2391
     40 N8P         1.8845   10.1361    0.7101 N.am      1 COA        -0.1909
     41 C7P         3.0471    9.6947    1.4453 C.3       1 COA         0.1160
     42 C6P         3.5802   10.8378    2.2968 C.3       1 COA         0.0286
     43 C5P         3.9854   12.0405    1.4637 C.2       1 COA         0.3561
     44 O5P         3.8903   12.0733    0.2398 O.2       1 COA        -0.2391
     45 N4P         4.4683   13.0711    2.2568 N.am      1 COA        -0.1909
     46 C3P         4.9249   14.3309    1.7167 C.3       1 COA         0.1160
     47 C2P         6.4076   14.3249    1.3819 C.3       1 COA         0.2607
     48 S1P         7.4428   13.9915    2.8395 S.3       1 COA        -0.3539
     49 H2A         4.6492    4.1260    1.1552 H         1 COA        -0.1369
     50 H61A        8.7564    3.1335   -0.6708 H         1 COA         0.2048
     51 H62A        8.4991    1.6788   -1.5963 H         1 COA         0.2048
     52 H8A         4.7208   -1.1726   -2.4865 H         1 COA        -0.1292
     53 H1B         2.4085   -0.8200   -1.8256 H         1 COA        -0.0393
     54 H2B         2.3286    0.5212    0.9904 H         1 COA        -0.0393
     55 H3B        -0.0977    0.2245    0.9885 H         1 COA        -0.0393
     56 H4B        -0.2996    1.3083   -1.5416 H         1 COA        -0.0393
     57 H51A        1.5144    2.6204    0.5455 H         1 COA        -0.0393
     58 H52A       -0.2654    2.7227    0.5494 H         1 COA        -0.0393
     59 H121       -2.1262    7.5446   -0.5686 H         1 COA        -0.0393
     60 H122       -2.5562    8.7139    0.6956 H         1 COA        -0.0393
     61 H131        0.6194    9.6060   -2.1356 H         1 COA        -0.0393
     62 H132       -0.2524    8.0744   -2.2449 H         1 COA        -0.0393
     63 H133        0.8566    8.3597   -0.9005 H         1 COA        -0.0393
     64 H141       -1.5995   10.8607   -2.3043 H         1 COA        -0.0393
     65 H142       -2.9149   10.4873   -1.1878 H         1 COA        -0.0393
     66 H143       -2.4255    9.3094   -2.4205 H         1 COA        -0.0393
     67 H10        -0.0186   11.3498   -0.3758 H         1 COA        -0.0393
     68 HO1        -1.8916   10.3949    1.5193 H         1 COA         0.2010
     69 HN8         2.0335   10.5134   -0.2208 H         1 COA         0.0865
     70 H71         2.7730    8.8408    2.0730 H         1 COA        -0.0393
     71 H72         3.8098    9.3505    0.7395 H         1 COA        -0.0393
     72 H61         4.4542   10.5045    2.8701 H         1 COA        -0.0393
     73 H62         2.8174   11.1579    3.0176 H         1 COA        -0.0393
     74 HN4         4.5023   12.9338    3.2627 H         1 COA         0.0865
     75 H31         4.3430   14.5014    0.8071 H         1 COA        -0.0393
     76 H32         4.6658   15.1124    2.4354 H         1 COA        -0.0393
     77 H21         6.6345   13.5754    0.6168 H         1 COA        -0.0393
     78 H22         6.6935   15.3061    0.9903 H         1 COA        -0.0393
     79 HS1         6.9206   12.7875    3.1079 H         1 COA         0.1718
@<TRIPOS>BOND
     1    1    2 ar
     2    1    6 ar
     3    2    3 ar
     4    2   49 1
     5    3    4 ar
     6    4    5 ar
     7    4   10 ar
     8    5    6 ar
     9    5    8 ar
    10    6    7 1
    11    7   50 1
    12    7   51 1
    13    8    9 ar
    14    9   10 ar
    15    9   52 1
    16   10   11 1
    17   11   12 1
    18   11   21 1
    19   11   53 1
    20   12   13 1
    21   12   14 1
    22   12   54 1
    23   14   15 1
    24   14   20 1
    25   14   55 1
    26   15   16 1
    27   16   17 2
    28   16   18 1
    29   16   19 1
    30   20   21 1
    31   20   22 1
    32   20   56 1
    33   22   23 1
    34   22   57 1
    35   22   58 1
    36   23   24 1
    37   24   25 2
    38   24   26 1
    39   24   27 1
    40   27   28 1
    41   28   29 2
    42   28   30 1
    43   28   31 1
    44   31   33 1
    45   32   33 1
    46   32   34 1
    47   32   35 1
    48   32   36 1
    49   33   59 1
    50   33   60 1
    51   34   61 1
    52   34   62 1
    53   34   63 1
    54   35   64 1
    55   35   65 1
    56   35   66 1
    57   36   37 1
    58   36   38 1
    59   36   67 1
    60   37   68 1
    61   38   39 2
    62   38   40 am
    63   40   41 1
    64   40   69 1
    65   41   42 1
    66   41   70 1
    67   41   71 1
    68   42   43 1
    69   42   72 1
    70   42   73 1
    71   43   44 2
    72   43   45 am
    73   45   46 1
    74   45   74 1
    75   46   47 1
    76   46   75 1
    77   46   76 1
    78   47   48 1
    79   47   77 1
    80   47   78 1
    81   48   79 1
@<TRIPOS>SUBSTRUCTURE
     1 COA         1 GROUP 0 A     ****
@<TRIPOS>MOLECULE
[5-(6-aminopurin-9-yl)-2-[[[[3-hydroxy-2,2-dimethyl-4-oxo-4-[[3-oxo-3-(2-sulfanylethylamino)propyl]amino]butoxy]-oxido-phosphoryl]oxy-oxido-phosphoryl]oxymethyl]-4-oxido-tetrahydrofuran-3-yl] phosphate
   79    81     1     0     0
SMALL
USER_CHARGES

@<TRIPOS>ATOM
      1 N1A         6.1093    3.4221   -2.1706 N.ar      1 COA        -0.5260
      2 C2A         4.9028    3.1932   -1.5982 C.ar      1 COA         0.6629
      3 N3A         3.8250    2.5648   -2.1163 N.ar      1 COA        -0.5260
      4 C4A         4.0802    2.1492   -3.3659 C.ar      1 COA         0.5212
      5 C5A         5.2577    2.3095   -4.0788 C.ar      1 COA         0.0088
      6 C6A         6.2970    2.9741   -3.4353 C.ar      1 COA         0.5212
      7 N6A         7.5267    3.1813   -4.0834 N.pl3     1 COA        -0.6025
      8 N7A         5.1483    1.7539   -5.3288 N.2       1 COA        -0.4271
      9 C8A         3.9267    1.2647   -5.3749 C.ar      1 COA         0.5691
     10 N9A         3.2402    1.4796   -4.2093 N.pl3     1 COA        -0.5033
     11 C1B         1.8139    1.0528   -3.9225 C.3       1 COA         0.2693
     12 C2B         1.5441    0.0924   -2.7404 C.3       1 COA         0.2008
     13 O2B         1.6560   -1.1661   -3.1231 O.co2     1 COA        -0.1615
     14 C3B         0.0825    0.4469   -2.4241 C.3       1 COA         0.1111
     15 O3B        -0.8371   -0.0985   -3.3754 O.3       1 COA         0.1618
     16 P3B        -2.4169   -0.2494   -2.9382 P.3       1 COA        -1.1921
     17 O7A        -2.4022   -1.1842   -1.7323 O.co2     1 COA         0.3195
     18 O8A        -3.0660   -0.8511   -4.1810 O.co2     1 COA         0.3195
     19 O9A        -2.8748    1.1724   -2.6264 O.co2     1 COA         0.3195
     20 C4B         0.0646    1.9600   -2.6151 C.3       1 COA         0.1111
     21 O4B         1.0421    2.2460   -3.6341 O.3       1 COA        -0.1436
     22 C5B         0.4465    2.7364   -1.3618 C.3       1 COA         0.1504
     23 O5B         0.3986    4.1249   -1.6460 O.3       1 COA         0.1618
     24 P1A         0.7670    5.1936   -0.4641 P.3       1 COA        -1.1062
     25 O1A         1.1289    6.5260   -1.0837 O.co2     1 COA         0.3195
     26 O2A         1.6876    4.5161    0.5275 O.co2     1 COA         0.3195
     27 O3A        -0.6886    5.3125    0.2679 O.3       1 COA         0.4672
     28 P2A        -1.1429    6.2040    1.5594 P.3       1 COA        -1.1062
     29 O4A        -2.6377    6.0612    1.7476 O.co2     1 COA         0.3195
     30 O5A        -0.1888    5.9134    2.6974 O.co2     1 COA         0.3195
     31 O6A        -0.8065    7.6957    0.9792 O.3       1 COA         0.1618
     32 CBP        -1.0090    9.5771   -0.5793 C.3       1 COA         0.0000
     33 CCP        -1.4652    8.1470   -0.1994 C.3       1 COA         0.1504
     34 CDP         0.5182    9.5632   -0.8289 C.3       1 COA         0.1179
     35 CEP        -1.6888   10.0085   -1.8940 C.3       1 COA         0.1179
     36 CAP        -1.3149   10.5877    0.5658 C.3       1 COA         0.0611
     37 OAP        -0.8841   11.8921    0.1862 O.3       1 COA        -0.2728
     38 C9P        -2.7940   10.7032    0.9282 C.2       1 COA         0.3561
     39 O9P        -3.5640    9.7470    0.8589 O.2       1 COA        -0.2391
     40 N8P        -3.1433   11.9737    1.3570 N.am      1 COA        -0.1909
     41 C7P        -4.4804   12.3219    1.7791 C.3       1 COA         0.1160
     42 C6P        -5.2854   12.8090    0.5830 C.3       1 COA         0.0286
     43 C5P        -4.6698   14.0337   -0.0696 C.2       1 COA         0.3561
     44 O5P        -4.0163   14.8686    0.5499 O.2       1 COA        -0.2391
     45 N4P        -4.9428   14.0789   -1.4289 N.am      1 COA        -0.1909
     46 C3P        -4.4763   15.1416   -2.2894 C.3       1 COA         0.1160
     47 C2P        -5.4576   16.2988   -2.3805 C.3       1 COA         0.2607
     48 S1P        -7.0729   15.7838   -3.0386 S.3       1 COA        -0.3539
     49 H2A         4.7878    3.5651   -0.5856 H         1 COA        -0.1369
     50 H61A        8.2460    3.7037   -3.6204 H         1 COA         0.2048
     51 H62A        7.6376    2.8871   -5.0353 H         1 COA         0.2048
     52 H8A         3.4866    0.7495   -6.2177 H         1 COA        -0.1292
     53 H1B         1.4348    0.6728   -4.9170 H         1 COA        -0.0393
     54 H2B         2.1376    0.4515   -1.8851 H         1 COA        -0.0393
     55 H3B        -0.2421    0.1333   -1.4258 H         1 COA        -0.0393
     56 H4B        -0.9063    2.3168   -2.9777 H         1 COA        -0.0393
     57 H51A        1.4605    2.4765   -1.0434 H         1 COA        -0.0393
     58 H52A       -0.2515    2.5189   -0.5478 H         1 COA        -0.0393
     59 H121       -1.2324    7.4355   -0.9984 H         1 COA        -0.0393
     60 H122       -2.5440    8.1138   -0.0133 H         1 COA        -0.0393
     61 H131        0.8796   10.5616   -1.1013 H         1 COA        -0.0393
     62 H132        0.7886    8.8842   -1.6454 H         1 COA        -0.0393
     63 H133        1.0681    9.2399    0.0618 H         1 COA        -0.0393
     64 H141       -1.3855   11.0192   -2.1904 H         1 COA        -0.0393
     65 H142       -2.7797   10.0132   -1.7903 H         1 COA        -0.0393
     66 H143       -1.4280    9.3402   -2.7211 H         1 COA        -0.0393
     67 H10        -0.7524   10.3112    1.4665 H         1 COA        -0.0393
     68 HO1        -1.3767   12.1229   -0.6167 H         1 COA         0.2010
     69 HN8        -2.4320   12.6966    1.4083 H         1 COA         0.0865
     70 H71        -4.9542   11.4454    2.2324 H         1 COA        -0.0393
     71 H72        -4.4240   13.0982    2.5487 H         1 COA        -0.0393
     72 H61        -6.3072   13.0602    0.8938 H         1 COA        -0.0393
     73 H62        -5.3576   12.0151   -0.1709 H         1 COA        -0.0393
     74 HN4        -5.4957   13.3312   -1.8376 H         1 COA         0.0865
     75 H31        -3.5342   15.4910   -1.8589 H         1 COA        -0.0393
     76 H32        -4.2596   14.7044   -3.2674 H         1 COA        -0.0393
     77 H21        -5.6138   16.7595   -1.3997 H         1 COA        -0.0393
     78 H22        -5.0544   17.0623   -3.0531 H         1 COA        -0.0393
     79 HS1        -7.3386   14.8940   -2.0732 H         1 COA         0.1718
@<TRIPOS>BOND
     1    1    2 ar
     2    1    6 ar
     3    2    3 ar
     4    2   49 1
     5    3    4 ar
     6    4    5 ar
     7    4   10 ar
     8    5    6 ar
     9    5    8 ar
    10    6    7 1
    11    7   50 1
    12    7   51 1
    13    8    9 ar
    14    9   10 ar
    15    9   52 1
    16   10   11 1
    17   11   12 1
    18   11   21 1
    19   11   53 1
    20   12   13 1
    21   12   14 1
    22   12   54 1
    23   14   15 1
    24   14   20 1
    25   14   55 1
    26   15   16 1
    27   16   17 2
    28   16   18 1
    29   16   19 1
    30   20   21 1
    31   20   22 1
    32   20   56 1
    33   22   23 1
    34   22   57 1
    35   22   58 1
    36   23   24 1
    37   24   25 2
    38   24   26 1
    39   24   27 1
    40   27   28 1
    41   28   29 2
    42   28   30 1
    43   28   31 1
    44   31   33 1
    45   32   33 1
    46   32   34 1
    47   32   35 1
    48   32   36 1
    49   33   59 1
    50   33   60 1
    51   34   61 1
    52   34   62 1
    53   34   63 1
    54   35   64 1
    55   35   65 1
    56   35   66 1
    57   36   37 1
    58   36   38 1
    59   36   67 1
    60   37   68 1
    61   38   39 2
    62   38   40 am
    63   40   41 1
    64   40   69 1
    65   41   42 1
    66   41   70 1
    67   41   71 1
    68   42   43 1
    69   42   72 1
    70   42   73 1
    71   43   44 2
    72   43   45 am
    73   45   46 1
    74   45   74 1
    75   46   47 1
    76   46   75 1
    77   46   76 1
    78   47   48 1
    79   47   77 1
    80   47   78 1
    81   48   79 1
@<TRIPOS>SUBSTRUCTURE
     1 COA         1 GROUP 0 A     ****
@<TRIPOS>MOLECULE
[5-(6-aminopurin-9-yl)-2-[[[[3-hydroxy-2,2-dimethyl-4-oxo-4-[[3-oxo-3-(2-sulfanylethylamino)propyl]amino]butoxy]-oxido-phosphoryl]oxy-oxido-phosphoryl]oxymethyl]-4-oxido-tetrahydrofuran-3-yl] phosphate
   79    81     1     0     0
SMALL
USER_CHARGES

@<TRIPOS>ATOM
      1 N1A         6.3197    3.3711    0.1967 N.ar      1 COA        -0.5260
      2 C2A         5.0033    3.3256    0.5141 C.ar      1 COA         0.6629
      3 N3A         4.0730    2.4196    0.1418 N.ar      1 COA        -0.5260
      4 C4A         4.6208    1.4811   -0.6447 C.ar      1 COA         0.5212
      5 C5A         5.9423    1.3962   -1.0530 C.ar      1 COA         0.0088
      6 C6A         6.8050    2.3902   -0.6021 C.ar      1 COA         0.5212
      7 N6A         8.1621    2.3826   -0.9671 N.pl3     1 COA        -0.6025
      8 N7A         6.1335    0.2987   -1.8543 N.2       1 COA        -0.4271
      9 C8A         4.9500   -0.2731   -1.9316 C.ar      1 COA         0.5691
     10 N9A         4.0006    0.4065   -1.2155 N.pl3     1 COA        -0.5033
     11 C1B         2.5376    0.0288   -1.0907 C.3       1 COA         0.2693
     12 C2B         1.9579   -0.2640    0.3131 C.3       1 COA         0.2008
     13 O2B         2.1299   -1.5323    0.6368 O.co2     1 COA        -0.1615
     14 C3B         0.4729    0.0487    0.0699 C.3       1 COA         0.1111
     15 O3B        -0.1943   -0.9780   -0.6709 O.3       1 COA         0.1618
     16 P3B        -1.8364   -1.0586   -0.5907 P.3       1 COA        -1.1921
     17 O7A        -2.1459   -1.2889    0.8856 O.co2     1 COA         0.3195
     18 O8A        -2.1706   -2.2476   -1.4866 O.co2     1 COA         0.3195
     19 O9A        -2.3217    0.2823   -1.1335 O.co2     1 COA         0.3195
     20 C4B         0.5412    1.2713   -0.8394 C.3       1 COA         0.1111
     21 O4B         1.7485    1.1278   -1.6124 O.3       1 COA        -0.1436
     22 C5B         0.6184    2.5901   -0.0816 C.3       1 COA         0.1504
     23 O5B         0.6777    3.6562   -1.0149 O.3       1 COA         0.1618
     24 P1A         0.7670    5.1936   -0.4641 P.3       1 COA        -1.1062
     25 O1A         0.8194    6.1476   -1.6376 O.co2     1 COA         0.3195
     26 O2A         1.8029    5.2507    0.6375 O.co2     1 COA         0.3195
     27 O3A        -0.6886    5.3125    0.2679 O.3       1 COA         0.4672
     28 P2A        -1.1429    6.2040    1.5594 P.3       1 COA        -1.1062
     29 O4A        -2.6377    6.0612    1.7476 O.co2     1 COA         0.3195
     30 O5A        -0.1888    5.9134    2.6974 O.co2     1 COA         0.3195
     31 O6A        -0.8065    7.6957    0.9792 O.3       1 COA         0.1618
     32 CBP        -1.0463    9.4480   -0.7182 C.3       1 COA         0.0000
     33 CCP        -1.7297    8.3208    0.0940 C.3       1 COA         0.1504
     34 CDP         0.1097    8.8359   -1.5452 C.3       1 COA         0.1179
     35 CEP        -2.0542   10.0578   -1.7127 C.3       1 COA         0.1179
     36 CAP        -0.4581   10.5415    0.2222 C.3       1 COA         0.0611
     37 OAP         0.5109    9.9606    1.0910 O.3       1 COA        -0.2728
     38 C9P         0.2376   11.6913   -0.5032 C.2       1 COA         0.3561
     39 O9P         1.4233   11.6430   -0.8256 O.2       1 COA        -0.2391
     40 N8P        -0.6141   12.7516   -0.7682 N.am      1 COA        -0.1909
     41 C7P        -0.1929   13.9434   -1.4680 C.3       1 COA         0.1160
     42 C6P         0.3203   14.9704   -0.4692 C.3       1 COA         0.0286
     43 C5P         0.7807   16.2518   -1.1407 C.2       1 COA         0.3561
     44 O5P         0.2985   16.6720   -2.1890 O.2       1 COA        -0.2391
     45 N4P         1.7980   16.8657   -0.4249 N.am      1 COA        -0.1909
     46 C3P         2.4197   18.1007   -0.8444 C.3       1 COA         0.1160
     47 C2P         3.6242   17.8773   -1.7441 C.3       1 COA         0.2607
     48 S1P         4.9256   16.9050   -0.9263 S.3       1 COA        -0.3539
     49 H2A         4.6492    4.1260    1.1552 H         1 COA        -0.1369
     50 H61A        8.7564    3.1335   -0.6708 H         1 COA         0.2048
     51 H62A        8.4991    1.6788   -1.5963 H         1 COA         0.2048
     52 H8A         4.7208   -1.1726   -2.4865 H         1 COA        -0.1292
     53 H1B         2.4085   -0.8200   -1.8256 H         1 COA        -0.0393
     54 H2B         2.3286    0.5212    0.9904 H         1 COA        -0.0393
     55 H3B        -0.0977    0.2245    0.9885 H         1 COA        -0.0393
     56 H4B        -0.2996    1.3083   -1.5416 H         1 COA        -0.0393
     57 H51A        1.5144    2.6204    0.5455 H         1 COA        -0.0393
     58 H52A       -0.2654    2.7227    0.5494 H         1 COA        -0.0393
     59 H121       -2.1262    7.5446   -0.5686 H         1 COA        -0.0393
     60 H122       -2.5562    8.7139    0.6956 H         1 COA        -0.0393
     61 H131        0.6194    9.6060   -2.1356 H         1 COA        -0.0393
     62 H132       -0.2524    8.0744   -2.2449 H         1 COA        -0.0393
     63 H133        0.8566    8.3597   -0.9005 H         1 COA        -0.0393
     64 H141       -1.5995   10.8607   -2.3043 H         1 COA        -0.0393
     65 H142       -2.9149   10.4873   -1.1878 H         1 COA        -0.0393
     66 H143       -2.4255    9.3094   -2.4205 H         1 COA        -0.0393
     67 H10        -1.2532   10.9548    0.8556 H         1 COA        -0.0393
     68 HO1         1.2026    9.5873    0.5230 H         1 COA         0.2010
     69 HN8        -1.5883   12.6916   -0.4881 H         1 COA         0.0865
     70 H71         0.5887   13.6805   -2.1879 H         1 COA        -0.0393
     71 H72        -1.0385   14.3452   -2.0353 H         1 COA        -0.0393
     72 H61         1.1630   14.5557    0.0980 H         1 COA        -0.0393
     73 H62        -0.4681   15.2218    0.2512 H         1 COA        -0.0393
     74 HN4         2.1204   16.4273    0.4328 H         1 COA         0.0865
     75 H31         1.6528   18.6587   -1.3879 H         1 COA        -0.0393
     76 H32         2.6744   18.6654    0.0560 H         1 COA        -0.0393
     77 H21         3.3354   17.3632   -2.6666 H         1 COA        -0.0393
     78 H22         4.0561   18.8453   -2.0166 H         1 COA        -0.0393
     79 HS1         4.1726   15.8181   -0.7122 H         1 COA         0.1718
@<TRIPOS>BOND
     1    1    2 ar
     2    1    6 ar
     3    2    3 ar
     4    2   49 1
     5    3    4 ar
     6    4    5 ar
     7    4   10 ar
     8    5    6 ar
     9    5    8 ar
    10    6    7 1
    11    7   50 1
    12    7   51 1
    13    8    9 ar
    14    9   10 ar
    15    9   52 1
    16   10   11 1
    17   11   12 1
    18   11   21 1
    19   11   53 1
    20   12   13 1
    21   12   14 1
    22   12   54 1
    23   14   15 1
    24   14   20 1
    25   14   55 1
    26   15   16 1
    27   16   17 2
    28   16   18 1
    29   16   19 1
    30   20   21 1
    31   20   22 1
    32   20   56 1
    33   22   23 1
    34   22   57 1
    35   22   58 1
    36   23   24 1
    37   24   25 2
    38   24   26 1
    39   24   27 1
    40   27   28 1
    41   28   29 2
    42   28   30 1
    43   28   31 1
    44   31   33 1
    45   32   33 1
    46   32   34 1
    47   32   35 1
    48   32   36 1
    49   33   59 1
    50   33   60 1
    51   34   61 1
    52   34   62 1
    53   34   63 1
    54   35   64 1
    55   35   65 1
    56   35   66 1
    57   36   37 1
    58   36   38 1
    59   36   67 1
    60   37   68 1
    61   38   39 2
    62   38   40 am
    63   40   41 1
    64   40   69 1
    65   41   42 1
    66   41   70 1
    67   41   71 1
    68   42   43 1
    69   42   72 1
    70   42   73 1
    71   43   44 2
    72   43   45 am
    73   45   46 1
    74   45   74 1
    75   46   47 1
    76   46   75 1
    77   46   76 1
    78   47   48 1
    79   47   77 1
    80   47   78 1
    81   48   79 1
@<TRIPOS>SUBSTRUCTURE
     1 COA         1 GROUP 0 A     ****
@<TRIPOS>MOLECULE
[5-(6-aminopurin-9-yl)-2-[[[[3-hydroxy-2,2-dimethyl-4-oxo-4-[[3-oxo-3-(2-sulfanylethylamino)propyl]amino]butoxy]-oxido-phosphoryl]oxy-oxido-phosphoryl]oxymethyl]-4-oxido-tetrahydrofuran-3-yl] phosphate
   79    81     1     0     0
SMALL
USER_CHARGES

@<TRIPOS>ATOM
      1 N1A         6.3197    3.3711    0.1967 N.ar      1 COA        -0.5260
      2 C2A         5.0033    3.3256    0.5141 C.ar      1 COA         0.6629
      3 N3A         4.0730    2.4196    0.1418 N.ar      1 COA        -0.5260
      4 C4A         4.6208    1.4811   -0.6447 C.ar      1 COA         0.5212
      5 C5A         5.9423    1.3962   -1.0530 C.ar      1 COA         0.0088
      6 C6A         6.8050    2.3902   -0.6021 C.ar      1 COA         0.5212
      7 N6A         8.1621    2.3826   -0.9671 N.pl3     1 COA        -0.6025
      8 N7A         6.1335    0.2987   -1.8543 N.2       1 COA        -0.4271
      9 C8A         4.9500   -0.2731   -1.9316 C.ar      1 COA         0.5691
     10 N9A         4.0006    0.4065   -1.2155 N.pl3     1 COA        -0.5033
     11 C1B         2.5376    0.0288   -1.0907 C.3       1 COA         0.2693
     12 C2B         1.9579   -0.2640    0.3131 C.3       1 COA         0.2008
     13 O2B         2.1299   -1.5323    0.6368 O.co2     1 COA        -0.1615
     14 C3B         0.4729    0.0487    0.0699 C.3       1 COA         0.1111
     15 O3B        -0.1943   -0.9780   -0.6709 O.3       1 COA         0.1618
     16 P3B        -1.8364   -1.0586   -0.5907 P.3       1 COA        -1.1921
     17 O7A        -2.1459   -1.2889    0.8856 O.co2     1 COA         0.3195
     18 O8A        -2.1706   -2.2476   -1.4866 O.co2     1 COA         0.3195
     19 O9A        -2.3217    0.2823   -1.1335 O.co2     1 COA         0.3195
     20 C4B         0.5412    1.2713   -0.8394 C.3       1 COA         0.1111
     21 O4B         1.7485    1.1278   -1.6124 O.3       1 COA        -0.1436
     22 C5B         0.6184    2.5901   -0.0816 C.3       1 COA         0.1504
     23 O5B         0.6777    3.6562   -1.0149 O.3       1 COA         0.1618
     24 P1A         0.7670    5.1936   -0.4641 P.3       1 COA        -1.1062
     25 O1A         0.8194    6.1476   -1.6376 O.co2     1 COA         0.3195
     26 O2A         1.8029    5.2507    0.6375 O.co2     1 COA         0.3195
     27 O3A        -0.6886    5.3125    0.2679 O.3       1 COA         0.4672
     28 P2A        -1.1429    6.2040    1.5594 P.3       1 COA        -1.1062
     29 O4A        -2.6377    6.0612    1.7476 O.co2     1 COA         0.3195
     30 O5A        -0.1888    5.9134    2.6974 O.co2     1 COA         0.3195
     31 O6A        -0.8065    7.6957    0.9792 O.3       1 COA         0.1618
     32 CBP        -1.0090    9.5771   -0.5793 C.3       1 COA         0.0000
     33 CCP        -1.4652    8.1470   -0.1994 C.3       1 COA         0.1504
     34 CDP         0.5182    9.5632   -0.8289 C.3       1 COA         0.1179
     35 CEP        -1.6888   10.0085   -1.8940 C.3       1 COA         0.1179
     36 CAP        -1.3149   10.5877    0.5658 C.3       1 COA         0.0611
     37 OAP        -0.8841   11.8921    0.1862 O.3       1 COA        -0.2728
     38 C9P        -2.7940   10.7032    0.9282 C.2       1 COA         0.3561
     39 O9P        -3.5640    9.7470    0.8589 O.2       1 COA        -0.2391
     40 N8P        -3.1433   11.9737    1.3570 N.am      1 COA        -0.1909
     41 C7P        -4.4804   12.3219    1.7791 C.3       1 COA         0.1160
     42 C6P        -5.2854   12.8090    0.5830 C.3       1 COA         0.0286
     43 C5P        -6.7056   13.1928    0.9581 C.2       1 COA         0.3561
     44 O5P        -7.0146   13.6272    2.0643 O.2       1 COA        -0.2391
     45 N4P        -7.5844   12.9878   -0.0954 N.am      1 COA        -0.1909
     46 C3P        -8.9986   13.2702   -0.0056 C.3       1 COA         0.1160
     47 C2P        -9.3421   14.6924   -0.4173 C.3       1 COA         0.2607
     48 S1P       -11.1246   15.0335   -0.2994 S.3       1 COA        -0.3539
     49 H2A         4.6492    4.1260    1.1552 H         1 COA        -0.1369
     50 H61A        8.7564    3.1335   -0.6708 H         1 COA         0.2048
     51 H62A        8.4991    1.6788   -1.5963 H         1 COA         0.2048
     52 H8A         4.7208   -1.1726   -2.4865 H         1 COA        -0.1292
     53 H1B         2.4085   -0.8200   -1.8256 H         1 COA        -0.0393
     54 H2B         2.3286    0.5212    0.9904 H         1 COA        -0.0393
     55 H3B        -0.0977    0.2245    0.9885 H         1 COA        -0.0393
     56 H4B        -0.2996    1.3083   -1.5416 H         1 COA        -0.0393
     57 H51A        1.5144    2.6204    0.5455 H         1 COA        -0.0393
     58 H52A       -0.2654    2.7227    0.5494 H         1 COA        -0.0393
     59 H121       -1.2324    7.4355   -0.9984 H         1 COA        -0.0393
     60 H122       -2.5440    8.1138   -0.0133 H         1 COA        -0.0393
     61 H131        0.8796   10.5616   -1.1013 H         1 COA        -0.0393
     62 H132        0.7886    8.8842   -1.6454 H         1 COA        -0.0393
     63 H133        1.0681    9.2399    0.0618 H         1 COA        -0.0393
     64 H141       -1.3855   11.0192   -2.1904 H         1 COA        -0.0393
     65 H142       -2.7797   10.0132   -1.7903 H         1 COA        -0.0393
     66 H143       -1.4280    9.3402   -2.7211 H         1 COA        -0.0393
     67 H10        -0.7524   10.3112    1.4665 H         1 COA        -0.0393
     68 HO1        -1.3767   12.1229   -0.6167 H         1 COA         0.2010
     69 HN8        -2.4320   12.6966    1.4083 H         1 COA         0.0865
     70 H71        -4.9542   11.4454    2.2324 H         1 COA        -0.0393
     71 H72        -4.4240   13.0982    2.5487 H         1 COA        -0.0393
     72 H61        -5.3305   12.0264   -0.1846 H         1 COA        -0.0393
     73 H62        -4.7988   13.6830    0.1323 H         1 COA        -0.0393
     74 HN4        -7.2173   12.6228   -0.9693 H         1 COA         0.0865
     75 H31        -9.4937   12.5631   -0.6762 H         1 COA        -0.0393
     76 H32        -9.3164   13.0465    1.0160 H         1 COA        -0.0393
     77 H21        -8.8081   15.4204    0.2020 H         1 COA        -0.0393
     78 H22        -9.0433   14.8493   -1.4584 H         1 COA        -0.0393
     79 HS1       -11.2264   14.7864    1.0132 H         1 COA         0.1718
@<TRIPOS>BOND
     1    1    2 ar
     2    1    6 ar
     3    2    3 ar
     4    2   49 1
     5    3    4 ar
     6    4    5 ar
     7    4   10 ar
     8    5    6 ar
     9    5    8 ar
    10    6    7 1
    11    7   50 1
    12    7   51 1
    13    8    9 ar
    14    9   10 ar
    15    9   52 1
    16   10   11 1
    17   11   12 1
    18   11   21 1
    19   11   53 1
    20   12   13 1
    21   12   14 1
    22   12   54 1
    23   14   15 1
    24   14   20 1
    25   14   55 1
    26   15   16 1
    27   16   17 2
    28   16   18 1
    29   16   19 1
    30   20   21 1
    31   20   22 1
    32   20   56 1
    33   22   23 1
    34   22   57 1
    35   22   58 1
    36   23   24 1
    37   24   25 2
    38   24   26 1
    39   24   27 1
    40   27   28 1
    41   28   29 2
    42   28   30 1
    43   28   31 1
    44   31   33 1
    45   32   33 1
    46   32   34 1
    47   32   35 1
    48   32   36 1
    49   33   59 1
    50   33   60 1
    51   34   61 1
    52   34   62 1
    53   34   63 1
    54   35   64 1
    55   35   65 1
    56   35   66 1
    57   36   37 1
    58   36   38 1
    59   36   67 1
    60   37   68 1
    61   38   39 2
    62   38   40 am
    63   40   41 1
    64   40   69 1
    65   41   42 1
    66   41   70 1
    67   41   71 1
    68   42   43 1
    69   42   72 1
    70   42   73 1
    71   43   44 2
    72   43   45 am
    73   45   46 1
    74   45   74 1
    75   46   47 1
    76   46   75 1
    77   46   76 1
    78   47   48 1
    79   47   77 1
    80   47   78 1
    81   48   79 1
@<TRIPOS>SUBSTRUCTURE
     1 COA         1 GROUP 0 A     ****
@<TRIPOS>MOLECULE
[5-(6-aminopurin-9-yl)-2-[[[[3-hydroxy-2,2-dimethyl-4-oxo-4-[[3-oxo-3-(2-sulfanylethylamino)propyl]amino]butoxy]-oxido-phosphoryl]oxy-oxido-phosphoryl]oxymethyl]-4-oxido-tetrahydrofuran-3-yl] phosphate
   79    81     1     0     0
SMALL
USER_CHARGES

@<TRIPOS>ATOM
      1 N1A         5.7146    2.0302   -0.7890 N.ar      1 COA        -0.5260
      2 C2A         4.3962    2.1571   -0.5034 C.ar      1 COA         0.6629
      3 N3A         3.3299    1.7526   -1.2276 N.ar      1 COA        -0.5260
      4 C4A         3.7311    1.1587   -2.3614 C.ar      1 COA         0.5212
      5 C5A         5.0346    0.9576   -2.7868 C.ar      1 COA         0.0088
      6 C6A         6.0470    1.4195   -1.9517 C.ar      1 COA         0.5212
      7 N6A         7.3978    1.2581   -2.3043 N.pl3     1 COA        -0.6025
      8 N7A         5.0562    0.3154   -3.9993 N.2       1 COA        -0.4271
      9 C8A         3.7892    0.1293   -4.3054 C.ar      1 COA         0.5691
     10 N9A         2.9479    0.6234   -3.3440 N.pl3     1 COA        -0.5033
     11 C1B         1.4328    0.5815   -3.3775 C.3       1 COA         0.2693
     12 C2B         0.6799   -0.1567   -2.2458 C.3       1 COA         0.2008
     13 O2B         0.5449   -1.4388   -2.5302 O.co2     1 COA        -0.1615
     14 C3B        -0.6749    0.5672   -2.2968 C.3       1 COA         0.1111
     15 O3B        -1.4782    0.1594   -3.4088 O.3       1 COA         0.1618
     16 P3B        -3.0996    0.4363   -3.3454 P.3       1 COA        -1.1921
     17 O7A        -3.5828   -0.3425   -2.1254 O.co2     1 COA         0.3195
     18 O8A        -3.6001   -0.1211   -4.6746 O.co2     1 COA         0.3195
     19 O9A        -3.2339    1.9510   -3.2185 O.co2     1 COA         0.3195
     20 C4B        -0.2635    2.0121   -2.5599 C.3       1 COA         0.1111
     21 O4B         0.9490    1.9478   -3.3354 O.3       1 COA        -0.1436
     22 C5B         0.0275    2.8029   -1.2913 C.3       1 COA         0.1504
     23 O5B         0.3986    4.1249   -1.6460 O.3       1 COA         0.1618
     24 P1A         0.7670    5.1936   -0.4641 P.3       1 COA        -1.1062
     25 O1A         1.1289    6.5260   -1.0837 O.co2     1 COA         0.3195
     26 O2A         1.6876    4.5161    0.5275 O.co2     1 COA         0.3195
     27 O3A        -0.6886    5.3125    0.2679 O.3       1 COA         0.4672
     28 P2A        -1.1429    6.2040    1.5594 P.3       1 COA        -1.1062
     29 O4A        -2.6377    6.0612    1.7476 O.co2     1 COA         0.3195
     30 O5A        -0.1888    5.9134    2.6974 O.co2     1 COA         0.3195
     31 O6A        -0.8065    7.6957    0.9792 O.3       1 COA         0.1618
     32 CBP        -1.0090    9.5771   -0.5793 C.3       1 COA         0.0000
     33 CCP        -1.4652    8.1470   -0.1994 C.3       1 COA         0.1504
     34 CDP         0.5182    9.5632   -0.8289 C.3       1 COA         0.1179
     35 CEP        -1.6888   10.0085   -1.8940 C.3       1 COA         0.1179
     36 CAP        -1.3149   10.5877    0.5658 C.3       1 COA         0.0611
     37 OAP        -0.8841   11.8921    0.1862 O.3       1 COA        -0.2728
     38 C9P        -2.7940   10.7032    0.9282 C.2       1 COA         0.3561
     39 O9P        -3.5640    9.7470    0.8589 O.2       1 COA        -0.2391
     40 N8P        -3.1433   11.9737    1.3570 N.am      1 COA        -0.1909
     41 C7P        -4.4804   12.3219    1.7791 C.3       1 COA         0.1160
     42 C6P        -4.6250   12.0820    3.2749 C.3       1 COA         0.0286
     43 C5P        -3.6490   12.9100    4.0913 C.2       1 COA         0.3561
     44 O5P        -2.8373   13.6819    3.5881 O.2       1 COA        -0.2391
     45 N4P        -3.7960   12.6778    5.4510 N.am      1 COA        -0.1909
     46 C3P        -2.9890   13.3359    6.4526 C.3       1 COA         0.1160
     47 C2P        -1.5044   13.0525    6.2916 C.3       1 COA         0.2607
     48 S1P        -1.1230   11.2786    6.4163 S.3       1 COA        -0.3539
     49 H2A         4.1666    2.6505    0.4351 H         1 COA        -0.1369
     50 H61A        8.1108    1.6399   -1.7121 H         1 COA         0.2048
     51 H62A        7.6305    0.8472   -3.1886 H         1 COA         0.2048
     52 H8A         3.4224   -0.3522   -5.2016 H         1 COA        -0.1292
     53 H1B         1.1905    0.2000   -4.4133 H         1 COA        -0.0393
     54 H2B         1.1486    0.1388   -1.2941 H         1 COA        -0.0393
     55 H3B        -1.2745    0.4471   -1.3878 H         1 COA        -0.0393
     56 H4B        -1.0100    2.5497   -3.1559 H         1 COA        -0.0393
     57 H51A        0.8489    2.3441   -0.7330 H         1 COA        -0.0393
     58 H52A       -0.8601    2.8452   -0.6531 H         1 COA        -0.0393
     59 H121       -1.2324    7.4355   -0.9984 H         1 COA        -0.0393
     60 H122       -2.5440    8.1138   -0.0133 H         1 COA        -0.0393
     61 H131        0.8796   10.5616   -1.1013 H         1 COA        -0.0393
     62 H132        0.7886    8.8842   -1.6454 H         1 COA        -0.0393
     63 H133        1.0681    9.2399    0.0618 H         1 COA        -0.0393
     64 H141       -1.3855   11.0192   -2.1904 H         1 COA        -0.0393
     65 H142       -2.7797   10.0132   -1.7903 H         1 COA        -0.0393
     66 H143       -1.4280    9.3402   -2.7211 H         1 COA        -0.0393
     67 H10        -0.7524   10.3112    1.4665 H         1 COA        -0.0393
     68 HO1        -1.3767   12.1229   -0.6167 H         1 COA         0.2010
     69 HN8        -2.4320   12.6966    1.4083 H         1 COA         0.0865
     70 H71        -4.6724   13.3717    1.5359 H         1 COA        -0.0393
     71 H72        -5.2027   11.7190    1.2195 H         1 COA        -0.0393
     72 H61        -4.4557   11.0227    3.5045 H         1 COA        -0.0393
     73 H62        -5.6437   12.3293    3.5992 H         1 COA        -0.0393
     74 HN4        -4.5029   12.0153    5.7562 H         1 COA         0.0865
     75 H31        -3.1738   14.4071    6.3373 H         1 COA        -0.0393
     76 H32        -3.3649   13.0315    7.4327 H         1 COA        -0.0393
     77 H21        -1.1368   13.4192    5.3278 H         1 COA        -0.0393
     78 H22        -0.9506   13.5666    7.0833 H         1 COA        -0.0393
     79 HS1        -1.8846   10.9000    5.3814 H         1 COA         0.1718
@<TRIPOS>BOND
     1    1    2 ar
     2    1    6 ar
     3    2    3 ar
     4    2   49 1
     5    3    4 ar
     6    4    5 ar
     7    4   10 ar
     8    5    6 ar
     9    5    8 ar
    10    6    7 1
    11    7   50 1
    12    7   51 1
    13    8    9 ar
    14    9   10 ar
    15    9   52 1
    16   10   11 1
    17   11   12 1
    18   11   21 1
    19   11   53 1
    20   12   13 1
    21   12   14 1
    22   12   54 1
    23   14   15 1
    24   14   20 1
    25   14   55 1
    26   15   16 1
    27   16   17 2
    28   16   18 1
    29   16   19 1
    30   20   21 1
    31   20   22 1
    32   20   56 1
    33   22   23 1
    34   22   57 1
    35   22   58 1
    36   23   24 1
    37   24   25 2
    38   24   26 1
    39   24   27 1
    40   27   28 1
    41   28   29 2
    42   28   30 1
    43   28   31 1
    44   31   33 1
    45   32   33 1
    46   32   34 1
    47   32   35 1
    48   32   36 1
    49   33   59 1
    50   33   60 1
    51   34   61 1
    52   34   62 1
    53   34   63 1
    54   35   64 1
    55   35   65 1
    56   35   66 1
    57   36   37 1
    58   36   38 1
    59   36   67 1
    60   37   68 1
    61   38   39 2
    62   38   40 am
    63   40   41 1
    64   40   69 1
    65   41   42 1
    66   41   70 1
    67   41   71 1
    68   42   43 1
    69   42   72 1
    70   42   73 1
    71   43   44 2
    72   43   45 am
    73   45   46 1
    74   45   74 1
    75   46   47 1
    76   46   75 1
    77   46   76 1
    78   47   48 1
    79   47   77 1
    80   47   78 1
    81   48   79 1
@<TRIPOS>SUBSTRUCTURE
     1 COA         1 GROUP 0 A     ****
@<TRIPOS>MOLECULE
[5-(6-aminopurin-9-yl)-2-[[[[3-hydroxy-2,2-dimethyl-4-oxo-4-[[3-oxo-3-(2-sulfanylethylamino)propyl]amino]butoxy]-oxido-phosphoryl]oxy-oxido-phosphoryl]oxymethyl]-4-oxido-tetrahydrofuran-3-yl] phosphate
   79    81     1     0     0
SMALL
USER_CHARGES

@<TRIPOS>ATOM
      1 N1A        -3.9039    2.4517    1.8283 N.ar      1 COA        -0.5260
      2 C2A        -3.3295    3.2614    0.9063 C.ar      1 COA         0.6629
      3 N3A        -2.9870    2.9823   -0.3704 N.ar      1 COA        -0.5260
      4 C4A        -3.2951    1.7119   -0.6714 C.ar      1 COA         0.5212
      5 C5A        -3.8810    0.7714    0.1608 C.ar      1 COA         0.0088
      6 C6A        -4.1878    1.1807    1.4546 C.ar      1 COA         0.5212
      7 N6A        -4.7836    0.2924    2.3662 N.pl3     1 COA        -0.6025
      8 N7A        -4.0438   -0.4230   -0.4949 N.2       1 COA        -0.4271
      9 C8A        -3.5659   -0.2124   -1.7036 C.ar      1 COA         0.5691
     10 N9A        -3.1003    1.0663   -1.8591 N.pl3     1 COA        -0.5033
     11 C1B        -2.4828    1.6438   -3.1175 C.3       1 COA         0.2693
     12 C2B        -3.1527    2.8675   -3.7856 C.3       1 COA         0.2008
     13 O2B        -4.0894    2.4850   -4.6336 O.co2     1 COA        -0.1615
     14 C3B        -1.9491    3.4718   -4.5260 C.3       1 COA         0.1111
     15 O3B        -1.5961    2.7353   -5.7012 O.3       1 COA         0.1618
     16 P3B        -0.6948    3.4882   -6.8546 P.3       1 COA        -1.1921
     17 O7A        -1.5419    4.6766   -7.3000 O.co2     1 COA         0.3195
     18 O8A        -0.5270    2.4117   -7.9228 O.co2     1 COA         0.3195
     19 O9A         0.6037    3.8701   -6.1501 O.co2     1 COA         0.3195
     20 C4B        -0.8155    3.2705   -3.5257 C.3       1 COA         0.1111
     21 O4B        -1.1344    2.0698   -2.7962 O.3       1 COA        -0.1436
     22 C5B        -0.6774    4.4099   -2.5246 C.3       1 COA         0.1504
     23 O5B         0.3986    4.1249   -1.6460 O.3       1 COA         0.1618
     24 P1A         0.7670    5.1936   -0.4641 P.3       1 COA        -1.1062
     25 O1A         1.1289    6.5260   -1.0837 O.co2     1 COA         0.3195
     26 O2A         1.6876    4.5161    0.5275 O.co2     1 COA         0.3195
     27 O3A        -0.6886    5.3125    0.2679 O.3       1 COA         0.4672
     28 P2A        -1.1429    6.2040    1.5594 P.3       1 COA        -1.1062
     29 O4A        -2.6377    6.0612    1.7476 O.co2     1 COA         0.3195
     30 O5A        -0.1888    5.9134    2.6974 O.co2     1 COA         0.3195
     31 O6A        -0.8065    7.6957    0.9792 O.3       1 COA         0.1618
     32 CBP        -1.0090    9.5771   -0.5793 C.3       1 COA         0.0000
     33 CCP        -1.4652    8.1470   -0.1994 C.3       1 COA         0.1504
     34 CDP         0.5182    9.5632   -0.8289 C.3       1 COA         0.1179
     35 CEP        -1.6888   10.0085   -1.8940 C.3       1 COA         0.1179
     36 CAP        -1.3149   10.5877    0.5658 C.3       1 COA         0.0611
     37 OAP        -0.8841   11.8921    0.1862 O.3       1 COA        -0.2728
     38 C9P        -2.7940   10.7032    0.9282 C.2       1 COA         0.3561
     39 O9P        -3.5554   11.4723    0.3443 O.2       1 COA        -0.2391
     40 N8P        -3.1652    9.8410    1.9474 N.am      1 COA        -0.1909
     41 C7P        -4.5178    9.7490    2.4468 C.3       1 COA         0.1160
     42 C6P        -5.2856    8.6982    1.6581 C.3       1 COA         0.0286
     43 C5P        -6.7198    8.5504    2.1335 C.2       1 COA         0.3561
     44 O5P        -7.1941    9.2100    3.0543 O.2       1 COA        -0.2391
     45 N4P        -7.4027    7.5889    1.4032 N.am      1 COA        -0.1909
     46 C3P        -8.7846    7.2479    1.6513 C.3       1 COA         0.1160
     47 C2P        -8.9411    6.1267    2.6655 C.3       1 COA         0.2607
     48 S1P        -8.1271    4.5916    2.1284 S.3       1 COA        -0.3539
     49 H2A        -3.1164    4.2717    1.2395 H         1 COA        -0.1369
     50 H61A       -4.9530    0.5922    3.3076 H         1 COA         0.2048
     51 H62A       -4.9456   -0.6585    2.0932 H         1 COA         0.2048
     52 H8A        -3.5298   -0.9412   -2.5018 H         1 COA        -0.1292
     53 H1B        -2.3698    0.7525   -3.8030 H         1 COA        -0.0393
     54 H2B        -3.4073    3.5789   -2.9846 H         1 COA        -0.0393
     55 H3B        -2.0891    4.5191   -4.8158 H         1 COA        -0.0393
     56 H4B         0.1478    3.1100   -4.0235 H         1 COA        -0.0393
     57 H51A       -1.5937    4.5171   -1.9365 H         1 COA        -0.0393
     58 H52A       -0.4707    5.3519   -3.0411 H         1 COA        -0.0393
     59 H121       -1.2324    7.4355   -0.9984 H         1 COA        -0.0393
     60 H122       -2.5440    8.1138   -0.0133 H         1 COA        -0.0393
     61 H131        0.8796   10.5616   -1.1013 H         1 COA        -0.0393
     62 H132        0.7886    8.8842   -1.6454 H         1 COA        -0.0393
     63 H133        1.0681    9.2399    0.0618 H         1 COA        -0.0393
     64 H141       -1.3855   11.0192   -2.1904 H         1 COA        -0.0393
     65 H142       -2.7797   10.0132   -1.7903 H         1 COA        -0.0393
     66 H143       -1.4280    9.3402   -2.7211 H         1 COA        -0.0393
     67 H10        -0.7524   10.3112    1.4665 H         1 COA        -0.0393
     68 HO1        -1.3767   12.1229   -0.6167 H         1 COA         0.2010
     69 HN8        -2.4720    9.2197    2.3532 H         1 COA         0.0865
     70 H71        -4.4918    9.4911    3.5103 H         1 COA        -0.0393
     71 H72        -5.0009   10.7274    2.3591 H         1 COA        -0.0393
     72 H61        -4.7899    7.7236    1.7475 H         1 COA        -0.0393
     73 H62        -5.3000    8.9626    0.5933 H         1 COA        -0.0393
     74 HN4        -6.9090    7.1027    0.6604 H         1 COA         0.0865
     75 H31        -9.2593    8.1564    2.0310 H         1 COA        -0.0393
     76 H32        -9.2429    7.0035    0.6897 H         1 COA        -0.0393
     77 H21        -8.5287    6.4159    3.6376 H         1 COA        -0.0393
     78 H22       -10.0049    5.9075    2.8005 H         1 COA        -0.0393
     79 HS1        -6.8946    5.1096    2.0465 H         1 COA         0.1718
@<TRIPOS>BOND
     1    1    2 ar
     2    1    6 ar
     3    2    3 ar
     4    2   49 1
     5    3    4 ar
     6    4    5 ar
     7    4   10 ar
     8    5    6 ar
     9    5    8 ar
    10    6    7 1
    11    7   50 1
    12    7   51 1
    13    8    9 ar
    14    9   10 ar
    15    9   52 1
    16   10   11 1
    17   11   12 1
    18   11   21 1
    19   11   53 1
    20   12   13 1
    21   12   14 1
    22   12   54 1
    23   14   15 1
    24   14   20 1
    25   14   55 1
    26   15   16 1
    27   16   17 2
    28   16   18 1
    29   16   19 1
    30   20   21 1
    31   20   22 1
    32   20   56 1
    33   22   23 1
    34   22   57 1
    35   22   58 1
    36   23   24 1
    37   24   25 2
    38   24   26 1
    39   24   27 1
    40   27   28 1
    41   28   29 2
    42   28   30 1
    43   28   31 1
    44   31   33 1
    45   32   33 1
    46   32   34 1
    47   32   35 1
    48   32   36 1
    49   33   59 1
    50   33   60 1
    51   34   61 1
    52   34   62 1
    53   34   63 1
    54   35   64 1
    55   35   65 1
    56   35   66 1
    57   36   37 1
    58   36   38 1
    59   36   67 1
    60   37   68 1
    61   38   39 2
    62   38   40 am
    63   40   41 1
    64   40   69 1
    65   41   42 1
    66   41   70 1
    67   41   71 1
    68   42   43 1
    69   42   72 1
    70   42   73 1
    71   43   44 2
    72   43   45 am
    73   45   46 1
    74   45   74 1
    75   46   47 1
    76   46   75 1
    77   46   76 1
    78   47   48 1
    79   47   77 1
    80   47   78 1
    81   48   79 1
@<TRIPOS>SUBSTRUCTURE
     1 COA         1 GROUP 0 A     ****
@<TRIPOS>MOLECULE
[5-(6-aminopurin-9-yl)-2-[[[[3-hydroxy-2,2-dimethyl-4-oxo-4-[[3-oxo-3-(2-sulfanylethylamino)propyl]amino]butoxy]-oxido-phosphoryl]oxy-oxido-phosphoryl]oxymethyl]-4-oxido-tetrahydrofuran-3-yl] phosphate
   79    81     1     0     0
SMALL
USER_CHARGES

@<TRIPOS>ATOM
      1 N1A         6.3197    3.3711    0.1967 N.ar      1 COA        -0.5260
      2 C2A         5.0033    3.3256    0.5141 C.ar      1 COA         0.6629
      3 N3A         4.0730    2.4196    0.1418 N.ar      1 COA        -0.5260
      4 C4A         4.6208    1.4811   -0.6447 C.ar      1 COA         0.5212
      5 C5A         5.9423    1.3962   -1.0530 C.ar      1 COA         0.0088
      6 C6A         6.8050    2.3902   -0.6021 C.ar      1 COA         0.5212
      7 N6A         8.1621    2.3826   -0.9671 N.pl3     1 COA        -0.6025
      8 N7A         6.1335    0.2987   -1.8543 N.2       1 COA        -0.4271
      9 C8A         4.9500   -0.2731   -1.9316 C.ar      1 COA         0.5691
     10 N9A         4.0006    0.4065   -1.2155 N.pl3     1 COA        -0.5033
     11 C1B         2.5376    0.0288   -1.0907 C.3       1 COA         0.2693
     12 C2B         1.9579   -0.2640    0.3131 C.3       1 COA         0.2008
     13 O2B         2.1299   -1.5323    0.6368 O.co2     1 COA        -0.1615
     14 C3B         0.4729    0.0487    0.0699 C.3       1 COA         0.1111
     15 O3B        -0.1943   -0.9780   -0.6709 O.3       1 COA         0.1618
     16 P3B        -1.8364   -1.0586   -0.5907 P.3       1 COA        -1.1921
     17 O7A        -2.1459   -1.2889    0.8856 O.co2     1 COA         0.3195
     18 O8A        -2.1706   -2.2476   -1.4866 O.co2     1 COA         0.3195
     19 O9A        -2.3217    0.2823   -1.1335 O.co2     1 COA         0.3195
     20 C4B         0.5412    1.2713   -0.8394 C.3       1 COA         0.1111
     21 O4B         1.7485    1.1278   -1.6124 O.3       1 COA        -0.1436
     22 C5B         0.6184    2.5901   -0.0816 C.3       1 COA         0.1504
     23 O5B         0.6777    3.6562   -1.0149 O.3       1 COA         0.1618
     24 P1A         0.7670    5.1936   -0.4641 P.3       1 COA        -1.1062
     25 O1A         0.8194    6.1476   -1.6376 O.co2     1 COA         0.3195
     26 O2A         1.8029    5.2507    0.6375 O.co2     1 COA         0.3195
     27 O3A        -0.6886    5.3125    0.2679 O.3       1 COA         0.4672
     28 P2A        -1.1429    6.2040    1.5594 P.3       1 COA        -1.1062
     29 O4A        -2.6377    6.0612    1.7476 O.co2     1 COA         0.3195
     30 O5A        -0.1888    5.9134    2.6974 O.co2     1 COA         0.3195
     31 O6A        -0.8065    7.6957    0.9792 O.3       1 COA         0.1618
     32 CBP        -1.0463    9.4480   -0.7182 C.3       1 COA         0.0000
     33 CCP        -1.7297    8.3208    0.0940 C.3       1 COA         0.1504
     34 CDP         0.1097    8.8359   -1.5452 C.3       1 COA         0.1179
     35 CEP        -2.0542   10.0578   -1.7127 C.3       1 COA         0.1179
     36 CAP        -0.4581   10.5415    0.2222 C.3       1 COA         0.0611
     37 OAP         0.1628   11.5628   -0.5541 O.3       1 COA        -0.2728
     38 C9P        -1.4903   11.2331    1.1103 C.2       1 COA         0.3561
     39 O9P        -2.6751   10.9040    1.1192 O.2       1 COA        -0.2391
     40 N8P        -0.9374   12.2286    1.8997 N.am      1 COA        -0.1909
     41 C7P        -1.7097   13.0066    2.8407 C.3       1 COA         0.1160
     42 C6P        -2.2594   14.2471    2.1517 C.3       1 COA         0.0286
     43 C5P        -1.1609   15.1390    1.6016 C.2       1 COA         0.3561
     44 O5P        -0.0451   15.2210    2.1077 O.2       1 COA        -0.2391
     45 N4P        -1.5826   15.8330    0.4770 N.am      1 COA        -0.1909
     46 C3P        -0.7332   16.7538   -0.2429 C.3       1 COA         0.1160
     47 C2P         0.0595   16.0799   -1.3509 C.3       1 COA         0.2607
     48 S1P        -1.0162   15.3024   -2.5943 S.3       1 COA        -0.3539
     49 H2A         4.6492    4.1260    1.1552 H         1 COA        -0.1369
     50 H61A        8.7564    3.1335   -0.6708 H         1 COA         0.2048
     51 H62A        8.4991    1.6788   -1.5963 H         1 COA         0.2048
     52 H8A         4.7208   -1.1726   -2.4865 H         1 COA        -0.1292
     53 H1B         2.4085   -0.8200   -1.8256 H         1 COA        -0.0393
     54 H2B         2.3286    0.5212    0.9904 H         1 COA        -0.0393
     55 H3B        -0.0977    0.2245    0.9885 H         1 COA        -0.0393
     56 H4B        -0.2996    1.3083   -1.5416 H         1 COA        -0.0393
     57 H51A        1.5144    2.6204    0.5455 H         1 COA        -0.0393
     58 H52A       -0.2654    2.7227    0.5494 H         1 COA        -0.0393
     59 H121       -2.1262    7.5446   -0.5686 H         1 COA        -0.0393
     60 H122       -2.5562    8.7139    0.6956 H         1 COA        -0.0393
     61 H131        0.6194    9.6060   -2.1356 H         1 COA        -0.0393
     62 H132       -0.2524    8.0744   -2.2449 H         1 COA        -0.0393
     63 H133        0.8566    8.3597   -0.9005 H         1 COA        -0.0393
     64 H141       -1.5995   10.8607   -2.3043 H         1 COA        -0.0393
     65 H142       -2.9149   10.4873   -1.1878 H         1 COA        -0.0393
     66 H143       -2.4255    9.3094   -2.4205 H         1 COA        -0.0393
     67 H10         0.3192   10.1040    0.8613 H         1 COA        -0.0393
     68 HO1        -0.5280   11.9349   -1.1241 H         1 COA         0.2010
     69 HN8         0.0597   12.4131    1.8452 H         1 COA         0.0865
     70 H71        -2.5243   12.3902    3.2340 H         1 COA        -0.0393
     71 H72        -1.0723   13.2847    3.6861 H         1 COA        -0.0393
     72 H61        -2.8604   14.8346    2.8570 H         1 COA        -0.0393
     73 H62        -2.9169   13.9572    1.3225 H         1 COA        -0.0393
     74 HN4        -2.5313   15.6872    0.1445 H         1 COA         0.0865
     75 H31        -1.3970   17.5088   -0.6721 H         1 COA        -0.0393
     76 H32        -0.0870   17.2476    0.4872 H         1 COA        -0.0393
     77 H21         0.7134   16.7968   -1.8579 H         1 COA        -0.0393
     78 H22         0.6879   15.2946   -0.9194 H         1 COA        -0.0393
     79 HS1        -1.6246   14.4632   -1.7458 H         1 COA         0.1718
@<TRIPOS>BOND
     1    1    2 ar
     2    1    6 ar
     3    2    3 ar
     4    2   49 1
     5    3    4 ar
     6    4    5 ar
     7    4   10 ar
     8    5    6 ar
     9    5    8 ar
    10    6    7 1
    11    7   50 1
    12    7   51 1
    13    8    9 ar
    14    9   10 ar
    15    9   52 1
    16   10   11 1
    17   11   12 1
    18   11   21 1
    19   11   53 1
    20   12   13 1
    21   12   14 1
    22   12   54 1
    23   14   15 1
    24   14   20 1
    25   14   55 1
    26   15   16 1
    27   16   17 2
    28   16   18 1
    29   16   19 1
    30   20   21 1
    31   20   22 1
    32   20   56 1
    33   22   23 1
    34   22   57 1
    35   22   58 1
    36   23   24 1
    37   24   25 2
    38   24   26 1
    39   24   27 1
    40   27   28 1
    41   28   29 2
    42   28   30 1
    43   28   31 1
    44   31   33 1
    45   32   33 1
    46   32   34 1
    47   32   35 1
    48   32   36 1
    49   33   59 1
    50   33   60 1
    51   34   61 1
    52   34   62 1
    53   34   63 1
    54   35   64 1
    55   35   65 1
    56   35   66 1
    57   36   37 1
    58   36   38 1
    59   36   67 1
    60   37   68 1
    61   38   39 2
    62   38   40 am
    63   40   41 1
    64   40   69 1
    65   41   42 1
    66   41   70 1
    67   41   71 1
    68   42   43 1
    69   42   72 1
    70   42   73 1
    71   43   44 2
    72   43   45 am
    73   45   46 1
    74   45   74 1
    75   46   47 1
    76   46   75 1
    77   46   76 1
    78   47   48 1
    79   47   77 1
    80   47   78 1
    81   48   79 1
@<TRIPOS>SUBSTRUCTURE
     1 COA         1 GROUP 0 A     ****
@<TRIPOS>MOLECULE
[5-(6-aminopurin-9-yl)-2-[[[[3-hydroxy-2,2-dimethyl-4-oxo-4-[[3-oxo-3-(2-sulfanylethylamino)propyl]amino]butoxy]-oxido-phosphoryl]oxy-oxido-phosphoryl]oxymethyl]-4-oxido-tetrahydrofuran-3-yl] phosphate
   79    81     1     0     0
SMALL
USER_CHARGES

@<TRIPOS>ATOM
      1 N1A         6.1093    3.4221   -2.1706 N.ar      1 COA        -0.5260
      2 C2A         4.9028    3.1932   -1.5982 C.ar      1 COA         0.6629
      3 N3A         3.8250    2.5648   -2.1163 N.ar      1 COA        -0.5260
      4 C4A         4.0802    2.1492   -3.3659 C.ar      1 COA         0.5212
      5 C5A         5.2577    2.3095   -4.0788 C.ar      1 COA         0.0088
      6 C6A         6.2970    2.9741   -3.4353 C.ar      1 COA         0.5212
      7 N6A         7.5267    3.1813   -4.0834 N.pl3     1 COA        -0.6025
      8 N7A         5.1483    1.7539   -5.3288 N.2       1 COA        -0.4271
      9 C8A         3.9267    1.2647   -5.3749 C.ar      1 COA         0.5691
     10 N9A         3.2402    1.4796   -4.2093 N.pl3     1 COA        -0.5033
     11 C1B         1.8139    1.0528   -3.9225 C.3       1 COA         0.2693
     12 C2B         1.5441    0.0924   -2.7404 C.3       1 COA         0.2008
     13 O2B         1.6560   -1.1661   -3.1231 O.co2     1 COA        -0.1615
     14 C3B         0.0825    0.4469   -2.4241 C.3       1 COA         0.1111
     15 O3B        -0.8371   -0.0985   -3.3754 O.3       1 COA         0.1618
     16 P3B        -2.4169   -0.2494   -2.9382 P.3       1 COA        -1.1921
     17 O7A        -2.4022   -1.1842   -1.7323 O.co2     1 COA         0.3195
     18 O8A        -3.0660   -0.8511   -4.1810 O.co2     1 COA         0.3195
     19 O9A        -2.8748    1.1724   -2.6264 O.co2     1 COA         0.3195
     20 C4B         0.0646    1.9600   -2.6151 C.3       1 COA         0.1111
     21 O4B         1.0421    2.2460   -3.6341 O.3       1 COA        -0.1436
     22 C5B         0.4465    2.7364   -1.3618 C.3       1 COA         0.1504
     23 O5B         0.3986    4.1249   -1.6460 O.3       1 COA         0.1618
     24 P1A         0.7670    5.1936   -0.4641 P.3       1 COA        -1.1062
     25 O1A         1.1289    6.5260   -1.0837 O.co2     1 COA         0.3195
     26 O2A         1.6876    4.5161    0.5275 O.co2     1 COA         0.3195
     27 O3A        -0.6886    5.3125    0.2679 O.3       1 COA         0.4672
     28 P2A        -1.1429    6.2040    1.5594 P.3       1 COA        -1.1062
     29 O4A        -2.6377    6.0612    1.7476 O.co2     1 COA         0.3195
     30 O5A        -0.1888    5.9134    2.6974 O.co2     1 COA         0.3195
     31 O6A        -0.8065    7.6957    0.9792 O.3       1 COA         0.1618
     32 CBP        -1.0090    9.5771   -0.5793 C.3       1 COA         0.0000
     33 CCP        -1.4652    8.1470   -0.1994 C.3       1 COA         0.1504
     34 CDP         0.5182    9.5632   -0.8289 C.3       1 COA         0.1179
     35 CEP        -1.6888   10.0085   -1.8940 C.3       1 COA         0.1179
     36 CAP        -1.3149   10.5877    0.5658 C.3       1 COA         0.0611
     37 OAP        -1.2622    9.9213    1.8245 O.3       1 COA        -0.2728
     38 C9P        -0.3407   11.7608    0.6502 C.2       1 COA         0.3561
     39 O9P         0.7104   11.6974    1.2852 O.2       1 COA        -0.2391
     40 N8P        -0.7630   12.8619   -0.0771 N.am      1 COA        -0.1909
     41 C7P         0.0024   14.0836   -0.1712 C.3       1 COA         0.1160
     42 C6P         0.9441   14.0084   -1.3643 C.3       1 COA         0.0286
     43 C5P         0.2033   13.8213   -2.6761 C.2       1 COA         0.3561
     44 O5P        -0.9305   14.2492   -2.8748 O.2       1 COA        -0.2391
     45 N4P         0.9649   13.1154   -3.5959 N.am      1 COA        -0.1909
     46 C3P         0.4963   12.7969   -4.9250 C.3       1 COA         0.1160
     47 C2P        -0.2322   11.4645   -4.9886 C.3       1 COA         0.2607
     48 S1P        -0.8162   11.0767   -6.6668 S.3       1 COA        -0.3539
     49 H2A         4.7878    3.5651   -0.5856 H         1 COA        -0.1369
     50 H61A        8.2460    3.7037   -3.6204 H         1 COA         0.2048
     51 H62A        7.6376    2.8871   -5.0353 H         1 COA         0.2048
     52 H8A         3.4866    0.7495   -6.2177 H         1 COA        -0.1292
     53 H1B         1.4348    0.6728   -4.9170 H         1 COA        -0.0393
     54 H2B         2.1376    0.4515   -1.8851 H         1 COA        -0.0393
     55 H3B        -0.2421    0.1333   -1.4258 H         1 COA        -0.0393
     56 H4B        -0.9063    2.3168   -2.9777 H         1 COA        -0.0393
     57 H51A        1.4605    2.4765   -1.0434 H         1 COA        -0.0393
     58 H52A       -0.2515    2.5189   -0.5478 H         1 COA        -0.0393
     59 H121       -1.2324    7.4355   -0.9984 H         1 COA        -0.0393
     60 H122       -2.5440    8.1138   -0.0133 H         1 COA        -0.0393
     61 H131        0.8796   10.5616   -1.1013 H         1 COA        -0.0393
     62 H132        0.7886    8.8842   -1.6454 H         1 COA        -0.0393
     63 H133        1.0681    9.2399    0.0618 H         1 COA        -0.0393
     64 H141       -1.3855   11.0192   -2.1904 H         1 COA        -0.0393
     65 H142       -2.7797   10.0132   -1.7903 H         1 COA        -0.0393
     66 H143       -1.4280    9.3402   -2.7211 H         1 COA        -0.0393
     67 H10        -2.3323   10.9827    0.4518 H         1 COA        -0.0393
     68 HO1        -0.3644    9.5651    1.9111 H         1 COA         0.2010
     69 HN8        -1.6351   12.8136   -0.5951 H         1 COA         0.0865
     70 H71        -0.6833   14.9308   -0.2732 H         1 COA        -0.0393
     71 H72         0.5651   14.2279    0.7566 H         1 COA        -0.0393
     72 H61         1.6432   13.1719   -1.2401 H         1 COA        -0.0393
     73 H62         1.5403   14.9270   -1.4320 H         1 COA        -0.0393
     74 HN4         1.8939   12.8086   -3.3226 H         1 COA         0.0865
     75 H31        -0.1852   13.6030   -5.2091 H         1 COA        -0.0393
     76 H32         1.3580   12.8303   -5.5964 H         1 COA        -0.0393
     77 H21         0.4125   10.6476   -4.6486 H         1 COA        -0.0393
     78 H22        -1.1081   11.5000   -4.3333 H         1 COA        -0.0393
     79 HS1        -1.6009   12.1549   -6.7931 H         1 COA         0.1718
@<TRIPOS>BOND
     1    1    2 ar
     2    1    6 ar
     3    2    3 ar
     4    2   49 1
     5    3    4 ar
     6    4    5 ar
     7    4   10 ar
     8    5    6 ar
     9    5    8 ar
    10    6    7 1
    11    7   50 1
    12    7   51 1
    13    8    9 ar
    14    9   10 ar
    15    9   52 1
    16   10   11 1
    17   11   12 1
    18   11   21 1
    19   11   53 1
    20   12   13 1
    21   12   14 1
    22   12   54 1
    23   14   15 1
    24   14   20 1
    25   14   55 1
    26   15   16 1
    27   16   17 2
    28   16   18 1
    29   16   19 1
    30   20   21 1
    31   20   22 1
    32   20   56 1
    33   22   23 1
    34   22   57 1
    35   22   58 1
    36   23   24 1
    37   24   25 2
    38   24   26 1
    39   24   27 1
    40   27   28 1
    41   28   29 2
    42   28   30 1
    43   28   31 1
    44   31   33 1
    45   32   33 1
    46   32   34 1
    47   32   35 1
    48   32   36 1
    49   33   59 1
    50   33   60 1
    51   34   61 1
    52   34   62 1
    53   34   63 1
    54   35   64 1
    55   35   65 1
    56   35   66 1
    57   36   37 1
    58   36   38 1
    59   36   67 1
    60   37   68 1
    61   38   39 2
    62   38   40 am
    63   40   41 1
    64   40   69 1
    65   41   42 1
    66   41   70 1
    67   41   71 1
    68   42   43 1
    69   42   72 1
    70   42   73 1
    71   43   44 2
    72   43   45 am
    73   45   46 1
    74   45   74 1
    75   46   47 1
    76   46   75 1
    77   46   76 1
    78   47   48 1
    79   47   77 1
    80   47   78 1
    81   48   79 1
@<TRIPOS>SUBSTRUCTURE
     1 COA         1 GROUP 0 A     ****
@<TRIPOS>MOLECULE
[5-(6-aminopurin-9-yl)-2-[[[[3-hydroxy-2,2-dimethyl-4-oxo-4-[[3-oxo-3-(2-sulfanylethylamino)propyl]amino]butoxy]-oxido-phosphoryl]oxy-oxido-phosphoryl]oxymethyl]-4-oxido-tetrahydrofuran-3-yl] phosphate
   79    81     1     0     0
SMALL
USER_CHARGES

@<TRIPOS>ATOM
      1 N1A         6.3197    3.3711    0.1967 N.ar      1 COA        -0.5260
      2 C2A         5.0033    3.3256    0.5141 C.ar      1 COA         0.6629
      3 N3A         4.0730    2.4196    0.1418 N.ar      1 COA        -0.5260
      4 C4A         4.6208    1.4811   -0.6447 C.ar      1 COA         0.5212
      5 C5A         5.9423    1.3962   -1.0530 C.ar      1 COA         0.0088
      6 C6A         6.8050    2.3902   -0.6021 C.ar      1 COA         0.5212
      7 N6A         8.1621    2.3826   -0.9671 N.pl3     1 COA        -0.6025
      8 N7A         6.1335    0.2987   -1.8543 N.2       1 COA        -0.4271
      9 C8A         4.9500   -0.2731   -1.9316 C.ar      1 COA         0.5691
     10 N9A         4.0006    0.4065   -1.2155 N.pl3     1 COA        -0.5033
     11 C1B         2.5376    0.0288   -1.0907 C.3       1 COA         0.2693
     12 C2B         1.9579   -0.2640    0.3131 C.3       1 COA         0.2008
     13 O2B         2.1299   -1.5323    0.6368 O.co2     1 COA        -0.1615
     14 C3B         0.4729    0.0487    0.0699 C.3       1 COA         0.1111
     15 O3B        -0.1943   -0.9780   -0.6709 O.3       1 COA         0.1618
     16 P3B        -1.8364   -1.0586   -0.5907 P.3       1 COA        -1.1921
     17 O7A        -2.1459   -1.2889    0.8856 O.co2     1 COA         0.3195
     18 O8A        -2.1706   -2.2476   -1.4866 O.co2     1 COA         0.3195
     19 O9A        -2.3217    0.2823   -1.1335 O.co2     1 COA         0.3195
     20 C4B         0.5412    1.2713   -0.8394 C.3       1 COA         0.1111
     21 O4B         1.7485    1.1278   -1.6124 O.3       1 COA        -0.1436
     22 C5B         0.6184    2.5901   -0.0816 C.3       1 COA         0.1504
     23 O5B         0.6777    3.6562   -1.0149 O.3       1 COA         0.1618
     24 P1A         0.7670    5.1936   -0.4641 P.3       1 COA        -1.1062
     25 O1A         0.8194    6.1476   -1.6376 O.co2     1 COA         0.3195
     26 O2A         1.8029    5.2507    0.6375 O.co2     1 COA         0.3195
     27 O3A        -0.6886    5.3125    0.2679 O.3       1 COA         0.4672
     28 P2A        -1.1429    6.2040    1.5594 P.3       1 COA        -1.1062
     29 O4A        -2.6377    6.0612    1.7476 O.co2     1 COA         0.3195
     30 O5A        -0.1888    5.9134    2.6974 O.co2     1 COA         0.3195
     31 O6A        -0.8065    7.6957    0.9792 O.3       1 COA         0.1618
     32 CBP        -1.0463    9.4480   -0.7182 C.3       1 COA         0.0000
     33 CCP        -1.7297    8.3208    0.0940 C.3       1 COA         0.1504
     34 CDP         0.1097    8.8359   -1.5452 C.3       1 COA         0.1179
     35 CEP        -2.0542   10.0578   -1.7127 C.3       1 COA         0.1179
     36 CAP        -0.4581   10.5415    0.2222 C.3       1 COA         0.0611
     37 OAP        -1.5012   11.1177    1.0041 O.3       1 COA        -0.2728
     38 C9P         0.5942   10.0309    1.2042 C.2       1 COA         0.3561
     39 O9P         0.2963    9.5605    2.3006 O.2       1 COA        -0.2391
     40 N8P         1.8845   10.1361    0.7101 N.am      1 COA        -0.1909
     41 C7P         3.0471    9.6947    1.4453 C.3       1 COA         0.1160
     42 C6P         3.9850   10.8706    1.6763 C.3       1 COA         0.0286
     43 C5P         5.2319   10.4746    2.4465 C.2       1 COA         0.3561
     44 O5P         5.4464    9.3298    2.8355 O.2       1 COA        -0.2391
     45 N4P         6.0736   11.5588    2.6469 N.am      1 COA        -0.1909
     46 C3P         7.3293   11.4589    3.3544 C.3       1 COA         0.1160
     47 C2P         8.4968   11.1317    2.4378 C.3       1 COA         0.2607
     48 S1P         8.7378   12.3931    1.1499 S.3       1 COA        -0.3539
     49 H2A         4.6492    4.1260    1.1552 H         1 COA        -0.1369
     50 H61A        8.7564    3.1335   -0.6708 H         1 COA         0.2048
     51 H62A        8.4991    1.6788   -1.5963 H         1 COA         0.2048
     52 H8A         4.7208   -1.1726   -2.4865 H         1 COA        -0.1292
     53 H1B         2.4085   -0.8200   -1.8256 H         1 COA        -0.0393
     54 H2B         2.3286    0.5212    0.9904 H         1 COA        -0.0393
     55 H3B        -0.0977    0.2245    0.9885 H         1 COA        -0.0393
     56 H4B        -0.2996    1.3083   -1.5416 H         1 COA        -0.0393
     57 H51A        1.5144    2.6204    0.5455 H         1 COA        -0.0393
     58 H52A       -0.2654    2.7227    0.5494 H         1 COA        -0.0393
     59 H121       -2.1262    7.5446   -0.5686 H         1 COA        -0.0393
     60 H122       -2.5562    8.7139    0.6956 H         1 COA        -0.0393
     61 H131        0.6194    9.6060   -2.1356 H         1 COA        -0.0393
     62 H132       -0.2524    8.0744   -2.2449 H         1 COA        -0.0393
     63 H133        0.8566    8.3597   -0.9005 H         1 COA        -0.0393
     64 H141       -1.5995   10.8607   -2.3043 H         1 COA        -0.0393
     65 H142       -2.9149   10.4873   -1.1878 H         1 COA        -0.0393
     66 H143       -2.4255    9.3094   -2.4205 H         1 COA        -0.0393
     67 H10        -0.0186   11.3498   -0.3758 H         1 COA        -0.0393
     68 HO1        -1.8916   10.3949    1.5193 H         1 COA         0.2010
     69 HN8         2.0335   10.5134   -0.2208 H         1 COA         0.0865
     70 H71         2.7271    9.2628    2.3989 H         1 COA        -0.0393
     71 H72         3.5510    8.9038    0.8806 H         1 COA        -0.0393
     72 H61         3.4687   11.6596    2.2372 H         1 COA        -0.0393
     73 H62         4.2944   11.3000    0.7151 H         1 COA        -0.0393
     74 HN4         5.7944   12.4639    2.2797 H         1 COA         0.0865
     75 H31         7.4924   12.4321    3.8249 H         1 COA        -0.0393
     76 H32         7.2044   10.7168    4.1470 H         1 COA        -0.0393
     77 H21         9.4274   11.0347    3.0064 H         1 COA        -0.0393
     78 H22         8.3057   10.1783    1.9356 H         1 COA        -0.0393
     79 HS1         7.5275   12.2550    0.5926 H         1 COA         0.1718
@<TRIPOS>BOND
     1    1    2 ar
     2    1    6 ar
     3    2    3 ar
     4    2   49 1
     5    3    4 ar
     6    4    5 ar
     7    4   10 ar
     8    5    6 ar
     9    5    8 ar
    10    6    7 1
    11    7   50 1
    12    7   51 1
    13    8    9 ar
    14    9   10 ar
    15    9   52 1
    16   10   11 1
    17   11   12 1
    18   11   21 1
    19   11   53 1
    20   12   13 1
    21   12   14 1
    22   12   54 1
    23   14   15 1
    24   14   20 1
    25   14   55 1
    26   15   16 1
    27   16   17 2
    28   16   18 1
    29   16   19 1
    30   20   21 1
    31   20   22 1
    32   20   56 1
    33   22   23 1
    34   22   57 1
    35   22   58 1
    36   23   24 1
    37   24   25 2
    38   24   26 1
    39   24   27 1
    40   27   28 1
    41   28   29 2
    42   28   30 1
    43   28   31 1
    44   31   33 1
    45   32   33 1
    46   32   34 1
    47   32   35 1
    48   32   36 1
    49   33   59 1
    50   33   60 1
    51   34   61 1
    52   34   62 1
    53   34   63 1
    54   35   64 1
    55   35   65 1
    56   35   66 1
    57   36   37 1
    58   36   38 1
    59   36   67 1
    60   37   68 1
    61   38   39 2
    62   38   40 am
    63   40   41 1
    64   40   69 1
    65   41   42 1
    66   41   70 1
    67   41   71 1
    68   42   43 1
    69   42   72 1
    70   42   73 1
    71   43   44 2
    72   43   45 am
    73   45   46 1
    74   45   74 1
    75   46   47 1
    76   46   75 1
    77   46   76 1
    78   47   48 1
    79   47   77 1
    80   47   78 1
    81   48   79 1
@<TRIPOS>SUBSTRUCTURE
     1 COA         1 GROUP 0 A     ****
@<TRIPOS>MOLECULE
[5-(6-aminopurin-9-yl)-2-[[[[3-hydroxy-2,2-dimethyl-4-oxo-4-[[3-oxo-3-(2-sulfanylethylamino)propyl]amino]butoxy]-oxido-phosphoryl]oxy-oxido-phosphoryl]oxymethyl]-4-oxido-tetrahydrofuran-3-yl] phosphate
   79    81     1     0     0
SMALL
USER_CHARGES

@<TRIPOS>ATOM
      1 N1A         4.6908    0.9263    0.5284 N.ar      1 COA        -0.5260
      2 C2A         3.4193    1.3931    0.4919 C.ar      1 COA         0.6629
      3 N3A         2.4653    1.1803   -0.4405 N.ar      1 COA        -0.5260
      4 C4A         2.9338    0.3916   -1.4192 C.ar      1 COA         0.5212
      5 C5A         4.2020   -0.1580   -1.5185 C.ar      1 COA         0.0088
      6 C6A         5.0963    0.1348   -0.4937 C.ar      1 COA         0.5212
      7 N6A         6.4038   -0.3801   -0.5131 N.pl3     1 COA        -0.6025
      8 N7A         4.3170   -0.9111   -2.6598 N.2       1 COA        -0.4271
      9 C8A         3.1403   -0.8212   -3.2436 C.ar      1 COA         0.5691
     10 N9A         2.2683   -0.0422   -2.5302 N.pl3     1 COA        -0.5033
     11 C1B         0.8363    0.2748   -2.9142 C.3       1 COA         0.2693
     12 C2B        -0.3043   -0.1391   -1.9549 C.3       1 COA         0.2008
     13 O2B        -0.6991   -1.3747   -2.2004 O.co2     1 COA        -0.1615
     14 C3B        -1.3853    0.8773   -2.3558 C.3       1 COA         0.1111
     15 O3B        -2.0094    0.5576   -3.6033 O.3       1 COA         0.1618
     16 P3B        -3.4806    1.2180   -3.9334 P.3       1 COA        -1.1921
     17 O7A        -4.3962    0.7100   -2.8235 O.co2     1 COA         0.3195
     18 O8A        -3.8112    0.6588   -5.3140 O.co2     1 COA         0.3195
     19 O9A        -3.2466    2.7257   -3.9151 O.co2     1 COA         0.3195
     20 C4B        -0.5713    2.1464   -2.5855 C.3       1 COA         0.1111
     21 O4B         0.7211    1.7136   -3.0526 O.3       1 COA        -0.1436
     22 C5B        -0.3655    2.9745   -1.3239 C.3       1 COA         0.1504
     23 O5B         0.3986    4.1249   -1.6460 O.3       1 COA         0.1618
     24 P1A         0.7670    5.1936   -0.4641 P.3       1 COA        -1.1062
     25 O1A         1.1289    6.5260   -1.0837 O.co2     1 COA         0.3195
     26 O2A         1.6876    4.5161    0.5275 O.co2     1 COA         0.3195
     27 O3A        -0.6886    5.3125    0.2679 O.3       1 COA         0.4672
     28 P2A        -1.1429    6.2040    1.5594 P.3       1 COA        -1.1062
     29 O4A        -2.6377    6.0612    1.7476 O.co2     1 COA         0.3195
     30 O5A        -0.1888    5.9134    2.6974 O.co2     1 COA         0.3195
     31 O6A        -0.8065    7.6957    0.9792 O.3       1 COA         0.1618
     32 CBP        -1.0090    9.5771   -0.5793 C.3       1 COA         0.0000
     33 CCP        -1.4652    8.1470   -0.1994 C.3       1 COA         0.1504
     34 CDP         0.5182    9.5632   -0.8289 C.3       1 COA         0.1179
     35 CEP        -1.6888   10.0085   -1.8940 C.3       1 COA         0.1179
     36 CAP        -1.3149   10.5877    0.5658 C.3       1 COA         0.0611
     37 OAP        -0.3519   11.6382    0.5524 O.3       1 COA        -0.2728
     38 C9P        -2.6876   11.2507    0.4734 C.2       1 COA         0.3561
     39 O9P        -2.8806   12.2731   -0.1822 O.2       1 COA        -0.2391
     40 N8P        -3.6636   10.5632    1.1768 N.am      1 COA        -0.1909
     41 C7P        -5.0458   10.9816    1.2180 C.3       1 COA         0.1160
     42 C6P        -5.6185   10.9998   -0.1918 C.3       1 COA         0.0286
     43 C5P        -7.0735   11.4323   -0.2205 C.2       1 COA         0.3561
     44 O5P        -7.7063   11.7297    0.7889 O.2       1 COA        -0.2391
     45 N4P        -7.5771   11.4426   -1.5129 N.am      1 COA        -0.1909
     46 C3P        -8.9384   11.8143   -1.8231 C.3       1 COA         0.1160
     47 C2P        -9.0238   13.0120   -2.7550 C.3       1 COA         0.2607
     48 S1P        -8.2407   14.4935   -2.0482 S.3       1 COA        -0.3539
     49 H2A         3.1287    2.0232    1.3259 H         1 COA        -0.1369
     50 H61A        7.0472   -0.1189    0.2098 H         1 COA         0.2048
     51 H62A        6.7069   -0.9256   -1.2976 H         1 COA         0.2048
     52 H8A         2.8628   -1.2932   -4.1762 H         1 COA        -0.1292
     53 H1B         0.7316   -0.1451   -3.9582 H         1 COA        -0.0393
     54 H2B         0.0098    0.1350   -0.9357 H         1 COA        -0.0393
     55 H3B        -2.1756    1.0002   -1.6070 H         1 COA        -0.0393
     56 H4B        -1.0101    2.7804   -3.3646 H         1 COA        -0.0393
     57 H51A        0.1721    2.3946   -0.5677 H         1 COA        -0.0393
     58 H52A       -1.3279    3.2941   -0.9132 H         1 COA        -0.0393
     59 H121       -1.2324    7.4355   -0.9984 H         1 COA        -0.0393
     60 H122       -2.5440    8.1138   -0.0133 H         1 COA        -0.0393
     61 H131        0.8796   10.5616   -1.1013 H         1 COA        -0.0393
     62 H132        0.7886    8.8842   -1.6454 H         1 COA        -0.0393
     63 H133        1.0681    9.2399    0.0618 H         1 COA        -0.0393
     64 H141       -1.3855   11.0192   -2.1904 H         1 COA        -0.0393
     65 H142       -2.7797   10.0132   -1.7903 H         1 COA        -0.0393
     66 H143       -1.4280    9.3402   -2.7211 H         1 COA        -0.0393
     67 H10        -1.2314   10.0854    1.5378 H         1 COA        -0.0393
     68 HO1        -0.4241   12.0681   -0.3139 H         1 COA         0.2010
     69 HN8        -3.4169    9.7096    1.6684 H         1 COA         0.0865
     70 H71        -5.6108   10.2942    1.8555 H         1 COA        -0.0393
     71 H72        -5.1075   11.9753    1.6729 H         1 COA        -0.0393
     72 H61        -5.5461   10.0013   -0.6406 H         1 COA        -0.0393
     73 H62        -5.0414   11.6863   -0.8239 H         1 COA        -0.0393
     74 HN4        -6.9611   11.1768   -2.2757 H         1 COA         0.0865
     75 H31        -9.3908   10.9422   -2.3024 H         1 COA        -0.0393
     76 H32        -9.4578   11.9876   -0.8772 H         1 COA        -0.0393
     77 H21        -8.5497   12.7952   -3.7177 H         1 COA        -0.0393
     78 H22       -10.0755   13.2505   -2.9414 H         1 COA        -0.0393
     79 HS1        -7.0182   13.9595   -1.9269 H         1 COA         0.1718
@<TRIPOS>BOND
     1    1    2 ar
     2    1    6 ar
     3    2    3 ar
     4    2   49 1
     5    3    4 ar
     6    4    5 ar
     7    4   10 ar
     8    5    6 ar
     9    5    8 ar
    10    6    7 1
    11    7   50 1
    12    7   51 1
    13    8    9 ar
    14    9   10 ar
    15    9   52 1
    16   10   11 1
    17   11   12 1
    18   11   21 1
    19   11   53 1
    20   12   13 1
    21   12   14 1
    22   12   54 1
    23   14   15 1
    24   14   20 1
    25   14   55 1
    26   15   16 1
    27   16   17 2
    28   16   18 1
    29   16   19 1
    30   20   21 1
    31   20   22 1
    32   20   56 1
    33   22   23 1
    34   22   57 1
    35   22   58 1
    36   23   24 1
    37   24   25 2
    38   24   26 1
    39   24   27 1
    40   27   28 1
    41   28   29 2
    42   28   30 1
    43   28   31 1
    44   31   33 1
    45   32   33 1
    46   32   34 1
    47   32   35 1
    48   32   36 1
    49   33   59 1
    50   33   60 1
    51   34   61 1
    52   34   62 1
    53   34   63 1
    54   35   64 1
    55   35   65 1
    56   35   66 1
    57   36   37 1
    58   36   38 1
    59   36   67 1
    60   37   68 1
    61   38   39 2
    62   38   40 am
    63   40   41 1
    64   40   69 1
    65   41   42 1
    66   41   70 1
    67   41   71 1
    68   42   43 1
    69   42   72 1
    70   42   73 1
    71   43   44 2
    72   43   45 am
    73   45   46 1
    74   45   74 1
    75   46   47 1
    76   46   75 1
    77   46   76 1
    78   47   48 1
    79   47   77 1
    80   47   78 1
    81   48   79 1
@<TRIPOS>SUBSTRUCTURE
     1 COA         1 GROUP 0 A     ****
@<TRIPOS>MOLECULE
[5-(6-aminopurin-9-yl)-2-[[[[3-hydroxy-2,2-dimethyl-4-oxo-4-[[3-oxo-3-(2-sulfanylethylamino)propyl]amino]butoxy]-oxido-phosphoryl]oxy-oxido-phosphoryl]oxymethyl]-4-oxido-tetrahydrofuran-3-yl] phosphate
   79    81     1     0     0
SMALL
USER_CHARGES

@<TRIPOS>ATOM
      1 N1A         6.3197    3.3711    0.1967 N.ar      1 COA        -0.5260
      2 C2A         5.0033    3.3256    0.5141 C.ar      1 COA         0.6629
      3 N3A         4.0730    2.4196    0.1418 N.ar      1 COA        -0.5260
      4 C4A         4.6208    1.4811   -0.6447 C.ar      1 COA         0.5212
      5 C5A         5.9423    1.3962   -1.0530 C.ar      1 COA         0.0088
      6 C6A         6.8050    2.3902   -0.6021 C.ar      1 COA         0.5212
      7 N6A         8.1621    2.3826   -0.9671 N.pl3     1 COA        -0.6025
      8 N7A         6.1335    0.2987   -1.8543 N.2       1 COA        -0.4271
      9 C8A         4.9500   -0.2731   -1.9316 C.ar      1 COA         0.5691
     10 N9A         4.0006    0.4065   -1.2155 N.pl3     1 COA        -0.5033
     11 C1B         2.5376    0.0288   -1.0907 C.3       1 COA         0.2693
     12 C2B         1.9579   -0.2640    0.3131 C.3       1 COA         0.2008
     13 O2B         2.1299   -1.5323    0.6368 O.co2     1 COA        -0.1615
     14 C3B         0.4729    0.0487    0.0699 C.3       1 COA         0.1111
     15 O3B        -0.1943   -0.9780   -0.6709 O.3       1 COA         0.1618
     16 P3B        -1.8364   -1.0586   -0.5907 P.3       1 COA        -1.1921
     17 O7A        -2.1459   -1.2889    0.8856 O.co2     1 COA         0.3195
     18 O8A        -2.1706   -2.2476   -1.4866 O.co2     1 COA         0.3195
     19 O9A        -2.3217    0.2823   -1.1335 O.co2     1 COA         0.3195
     20 C4B         0.5412    1.2713   -0.8394 C.3       1 COA         0.1111
     21 O4B         1.7485    1.1278   -1.6124 O.3       1 COA        -0.1436
     22 C5B         0.6184    2.5901   -0.0816 C.3       1 COA         0.1504
     23 O5B         0.6777    3.6562   -1.0149 O.3       1 COA         0.1618
     24 P1A         0.7670    5.1936   -0.4641 P.3       1 COA        -1.1062
     25 O1A         0.8194    6.1476   -1.6376 O.co2     1 COA         0.3195
     26 O2A         1.8029    5.2507    0.6375 O.co2     1 COA         0.3195
     27 O3A        -0.6886    5.3125    0.2679 O.3       1 COA         0.4672
     28 P2A        -1.1429    6.2040    1.5594 P.3       1 COA        -1.1062
     29 O4A        -2.6377    6.0612    1.7476 O.co2     1 COA         0.3195
     30 O5A        -0.1888    5.9134    2.6974 O.co2     1 COA         0.3195
     31 O6A        -0.8065    7.6957    0.9792 O.3       1 COA         0.1618
     32 CBP        -1.0463    9.4480   -0.7182 C.3       1 COA         0.0000
     33 CCP        -1.7297    8.3208    0.0940 C.3       1 COA         0.1504
     34 CDP         0.1097    8.8359   -1.5452 C.3       1 COA         0.1179
     35 CEP        -2.0542   10.0578   -1.7127 C.3       1 COA         0.1179
     36 CAP        -0.4581   10.5415    0.2222 C.3       1 COA         0.0611
     37 OAP         0.1628   11.5628   -0.5541 O.3       1 COA        -0.2728
     38 C9P        -1.4903   11.2331    1.1103 C.2       1 COA         0.3561
     39 O9P        -2.6751   10.9040    1.1192 O.2       1 COA        -0.2391
     40 N8P        -0.9374   12.2286    1.8997 N.am      1 COA        -0.1909
     41 C7P        -1.7097   13.0066    2.8407 C.3       1 COA         0.1160
     42 C6P        -2.2594   14.2471    2.1517 C.3       1 COA         0.0286
     43 C5P        -3.0839   15.1124    3.0878 C.2       1 COA         0.3561
     44 O5P        -3.2792   14.8301    4.2669 O.2       1 COA        -0.2391
     45 N4P        -3.5758   16.2372    2.4421 N.am      1 COA        -0.1909
     46 C3P        -4.3943   17.2278    3.1026 C.3       1 COA         0.1160
     47 C2P        -5.8799   16.9202    3.0106 C.3       1 COA         0.2607
     48 S1P        -6.4636   16.8438    1.2898 S.3       1 COA        -0.3539
     49 H2A         4.6492    4.1260    1.1552 H         1 COA        -0.1369
     50 H61A        8.7564    3.1335   -0.6708 H         1 COA         0.2048
     51 H62A        8.4991    1.6788   -1.5963 H         1 COA         0.2048
     52 H8A         4.7208   -1.1726   -2.4865 H         1 COA        -0.1292
     53 H1B         2.4085   -0.8200   -1.8256 H         1 COA        -0.0393
     54 H2B         2.3286    0.5212    0.9904 H         1 COA        -0.0393
     55 H3B        -0.0977    0.2245    0.9885 H         1 COA        -0.0393
     56 H4B        -0.2996    1.3083   -1.5416 H         1 COA        -0.0393
     57 H51A        1.5144    2.6204    0.5455 H         1 COA        -0.0393
     58 H52A       -0.2654    2.7227    0.5494 H         1 COA        -0.0393
     59 H121       -2.1262    7.5446   -0.5686 H         1 COA        -0.0393
     60 H122       -2.5562    8.7139    0.6956 H         1 COA        -0.0393
     61 H131        0.6194    9.6060   -2.1356 H         1 COA        -0.0393
     62 H132       -0.2524    8.0744   -2.2449 H         1 COA        -0.0393
     63 H133        0.8566    8.3597   -0.9005 H         1 COA        -0.0393
     64 H141       -1.5995   10.8607   -2.3043 H         1 COA        -0.0393
     65 H142       -2.9149   10.4873   -1.1878 H         1 COA        -0.0393
     66 H143       -2.4255    9.3094   -2.4205 H         1 COA        -0.0393
     67 H10         0.3192   10.1040    0.8613 H         1 COA        -0.0393
     68 HO1        -0.5280   11.9349   -1.1241 H         1 COA         0.2010
     69 HN8         0.0597   12.4131    1.8452 H         1 COA         0.0865
     70 H71        -2.5243   12.3902    3.2340 H         1 COA        -0.0393
     71 H72        -1.0723   13.2847    3.6861 H         1 COA        -0.0393
     72 H61        -2.8912   13.9576    1.3028 H         1 COA        -0.0393
     73 H62        -1.4357   14.8542    1.7556 H         1 COA        -0.0393
     74 HN4        -3.3505   16.3705    1.4606 H         1 COA         0.0865
     75 H31        -4.0833   17.2306    4.1506 H         1 COA        -0.0393
     76 H32        -4.1457   18.2018    2.6736 H         1 COA        -0.0393
     77 H21        -6.1150   15.9689    3.4989 H         1 COA        -0.0393
     78 H22        -6.4444   17.7094    3.5168 H         1 COA        -0.0393
     79 HS1        -5.6563   15.8431    0.9140 H         1 COA         0.1718
@<TRIPOS>BOND
     1    1    2 ar
     2    1    6 ar
     3    2    3 ar
     4    2   49 1
     5    3    4 ar
     6    4    5 ar
     7    4   10 ar
     8    5    6 ar
     9    5    8 ar
    10    6    7 1
    11    7   50 1
    12    7   51 1
    13    8    9 ar
    14    9   10 ar
    15    9   52 1
    16   10   11 1
    17   11   12 1
    18   11   21 1
    19   11   53 1
    20   12   13 1
    21   12   14 1
    22   12   54 1
    23   14   15 1
    24   14   20 1
    25   14   55 1
    26   15   16 1
    27   16   17 2
    28   16   18 1
    29   16   19 1
    30   20   21 1
    31   20   22 1
    32   20   56 1
    33   22   23 1
    34   22   57 1
    35   22   58 1
    36   23   24 1
    37   24   25 2
    38   24   26 1
    39   24   27 1
    40   27   28 1
    41   28   29 2
    42   28   30 1
    43   28   31 1
    44   31   33 1
    45   32   33 1
    46   32   34 1
    47   32   35 1
    48   32   36 1
    49   33   59 1
    50   33   60 1
    51   34   61 1
    52   34   62 1
    53   34   63 1
    54   35   64 1
    55   35   65 1
    56   35   66 1
    57   36   37 1
    58   36   38 1
    59   36   67 1
    60   37   68 1
    61   38   39 2
    62   38   40 am
    63   40   41 1
    64   40   69 1
    65   41   42 1
    66   41   70 1
    67   41   71 1
    68   42   43 1
    69   42   72 1
    70   42   73 1
    71   43   44 2
    72   43   45 am
    73   45   46 1
    74   45   74 1
    75   46   47 1
    76   46   75 1
    77   46   76 1
    78   47   48 1
    79   47   77 1
    80   47   78 1
    81   48   79 1
@<TRIPOS>SUBSTRUCTURE
     1 COA         1 GROUP 0 A     ****
@<TRIPOS>MOLECULE
[5-(6-aminopurin-9-yl)-2-[[[[3-hydroxy-2,2-dimethyl-4-oxo-4-[[3-oxo-3-(2-sulfanylethylamino)propyl]amino]butoxy]-oxido-phosphoryl]oxy-oxido-phosphoryl]oxymethyl]-4-oxido-tetrahydrofuran-3-yl] phosphate
   79    81     1     0     0
SMALL
USER_CHARGES

@<TRIPOS>ATOM
      1 N1A         6.1093    3.4221   -2.1706 N.ar      1 COA        -0.5260
      2 C2A         4.9028    3.1932   -1.5982 C.ar      1 COA         0.6629
      3 N3A         3.8250    2.5648   -2.1163 N.ar      1 COA        -0.5260
      4 C4A         4.0802    2.1492   -3.3659 C.ar      1 COA         0.5212
      5 C5A         5.2577    2.3095   -4.0788 C.ar      1 COA         0.0088
      6 C6A         6.2970    2.9741   -3.4353 C.ar      1 COA         0.5212
      7 N6A         7.5267    3.1813   -4.0834 N.pl3     1 COA        -0.6025
      8 N7A         5.1483    1.7539   -5.3288 N.2       1 COA        -0.4271
      9 C8A         3.9267    1.2647   -5.3749 C.ar      1 COA         0.5691
     10 N9A         3.2402    1.4796   -4.2093 N.pl3     1 COA        -0.5033
     11 C1B         1.8139    1.0528   -3.9225 C.3       1 COA         0.2693
     12 C2B         1.5441    0.0924   -2.7404 C.3       1 COA         0.2008
     13 O2B         1.6560   -1.1661   -3.1231 O.co2     1 COA        -0.1615
     14 C3B         0.0825    0.4469   -2.4241 C.3       1 COA         0.1111
     15 O3B        -0.8371   -0.0985   -3.3754 O.3       1 COA         0.1618
     16 P3B        -2.4169   -0.2494   -2.9382 P.3       1 COA        -1.1921
     17 O7A        -2.4022   -1.1842   -1.7323 O.co2     1 COA         0.3195
     18 O8A        -3.0660   -0.8511   -4.1810 O.co2     1 COA         0.3195
     19 O9A        -2.8748    1.1724   -2.6264 O.co2     1 COA         0.3195
     20 C4B         0.0646    1.9600   -2.6151 C.3       1 COA         0.1111
     21 O4B         1.0421    2.2460   -3.6341 O.3       1 COA        -0.1436
     22 C5B         0.4465    2.7364   -1.3618 C.3       1 COA         0.1504
     23 O5B         0.3986    4.1249   -1.6460 O.3       1 COA         0.1618
     24 P1A         0.7670    5.1936   -0.4641 P.3       1 COA        -1.1062
     25 O1A         1.1289    6.5260   -1.0837 O.co2     1 COA         0.3195
     26 O2A         1.6876    4.5161    0.5275 O.co2     1 COA         0.3195
     27 O3A        -0.6886    5.3125    0.2679 O.3       1 COA         0.4672
     28 P2A        -1.1429    6.2040    1.5594 P.3       1 COA        -1.1062
     29 O4A        -2.6377    6.0612    1.7476 O.co2     1 COA         0.3195
     30 O5A        -0.1888    5.9134    2.6974 O.co2     1 COA         0.3195
     31 O6A        -0.8065    7.6957    0.9792 O.3       1 COA         0.1618
     32 CBP        -1.0090    9.5771   -0.5793 C.3       1 COA         0.0000
     33 CCP        -1.4652    8.1470   -0.1994 C.3       1 COA         0.1504
     34 CDP         0.5182    9.5632   -0.8289 C.3       1 COA         0.1179
     35 CEP        -1.6888   10.0085   -1.8940 C.3       1 COA         0.1179
     36 CAP        -1.3149   10.5877    0.5658 C.3       1 COA         0.0611
     37 OAP        -2.6150   11.1430    0.3849 O.3       1 COA        -0.2728
     38 C9P        -1.2888    9.9815    1.9673 C.2       1 COA         0.3561
     39 O9P        -2.2761    9.4494    2.4714 O.2       1 COA        -0.2391
     40 N8P        -0.0453   10.0792    2.5706 N.am      1 COA        -0.1909
     41 C7P         0.2338    9.5548    3.8876 C.3       1 COA         0.1160
     42 C6P         1.6949    9.1385    3.9750 C.3       1 COA         0.0286
     43 C5P         2.0566    8.5765    5.3381 C.2       1 COA         0.3561
     44 O5P         1.2508    8.4764    6.2593 O.2       1 COA        -0.2391
     45 N4P         3.3912    8.2030    5.3981 N.am      1 COA        -0.1909
     46 C3P         3.9973    7.6397    6.5825 C.3       1 COA         0.1160
     47 C2P         3.9038    6.1233    6.6272 C.3       1 COA         0.2607
     48 S1P         4.6704    5.4284    8.1229 S.3       1 COA        -0.3539
     49 H2A         4.7878    3.5651   -0.5856 H         1 COA        -0.1369
     50 H61A        8.2460    3.7037   -3.6204 H         1 COA         0.2048
     51 H62A        7.6376    2.8871   -5.0353 H         1 COA         0.2048
     52 H8A         3.4866    0.7495   -6.2177 H         1 COA        -0.1292
     53 H1B         1.4348    0.6728   -4.9170 H         1 COA        -0.0393
     54 H2B         2.1376    0.4515   -1.8851 H         1 COA        -0.0393
     55 H3B        -0.2421    0.1333   -1.4258 H         1 COA        -0.0393
     56 H4B        -0.9063    2.3168   -2.9777 H         1 COA        -0.0393
     57 H51A        1.4605    2.4765   -1.0434 H         1 COA        -0.0393
     58 H52A       -0.2515    2.5189   -0.5478 H         1 COA        -0.0393
     59 H121       -1.2324    7.4355   -0.9984 H         1 COA        -0.0393
     60 H122       -2.5440    8.1138   -0.0133 H         1 COA        -0.0393
     61 H131        0.8796   10.5616   -1.1013 H         1 COA        -0.0393
     62 H132        0.7886    8.8842   -1.6454 H         1 COA        -0.0393
     63 H133        1.0681    9.2399    0.0618 H         1 COA        -0.0393
     64 H141       -1.3855   11.0192   -2.1904 H         1 COA        -0.0393
     65 H142       -2.7797   10.0132   -1.7903 H         1 COA        -0.0393
     66 H143       -1.4280    9.3402   -2.7211 H         1 COA        -0.0393
     67 H10        -0.6003   11.4196    0.5288 H         1 COA        -0.0393
     68 HO1        -3.2380   10.4002    0.4064 H         1 COA         0.2010
     69 HN8         0.7221   10.5122    2.0658 H         1 COA         0.0865
     70 H71         0.0050   10.3206    4.6356 H         1 COA        -0.0393
     71 H72        -0.4234    8.7012    4.0816 H         1 COA        -0.0393
     72 H61         2.3445    9.9993    3.7729 H         1 COA        -0.0393
     73 H62         1.9153    8.3761    3.2173 H         1 COA        -0.0393
     74 HN4         3.9684    8.3313    4.5721 H         1 COA         0.0865
     75 H31         5.0473    7.9432    6.5613 H         1 COA        -0.0393
     76 H32         3.5271    8.1095    7.4502 H         1 COA        -0.0393
     77 H21         2.8608    5.7928    6.5868 H         1 COA        -0.0393
     78 H22         4.4260    5.7035    5.7619 H         1 COA        -0.0393
     79 HS1         3.8792    6.0680    8.9942 H         1 COA         0.1718
@<TRIPOS>BOND
     1    1    2 ar
     2    1    6 ar
     3    2    3 ar
     4    2   49 1
     5    3    4 ar
     6    4    5 ar
     7    4   10 ar
     8    5    6 ar
     9    5    8 ar
    10    6    7 1
    11    7   50 1
    12    7   51 1
    13    8    9 ar
    14    9   10 ar
    15    9   52 1
    16   10   11 1
    17   11   12 1
    18   11   21 1
    19   11   53 1
    20   12   13 1
    21   12   14 1
    22   12   54 1
    23   14   15 1
    24   14   20 1
    25   14   55 1
    26   15   16 1
    27   16   17 2
    28   16   18 1
    29   16   19 1
    30   20   21 1
    31   20   22 1
    32   20   56 1
    33   22   23 1
    34   22   57 1
    35   22   58 1
    36   23   24 1
    37   24   25 2
    38   24   26 1
    39   24   27 1
    40   27   28 1
    41   28   29 2
    42   28   30 1
    43   28   31 1
    44   31   33 1
    45   32   33 1
    46   32   34 1
    47   32   35 1
    48   32   36 1
    49   33   59 1
    50   33   60 1
    51   34   61 1
    52   34   62 1
    53   34   63 1
    54   35   64 1
    55   35   65 1
    56   35   66 1
    57   36   37 1
    58   36   38 1
    59   36   67 1
    60   37   68 1
    61   38   39 2
    62   38   40 am
    63   40   41 1
    64   40   69 1
    65   41   42 1
    66   41   70 1
    67   41   71 1
    68   42   43 1
    69   42   72 1
    70   42   73 1
    71   43   44 2
    72   43   45 am
    73   45   46 1
    74   45   74 1
    75   46   47 1
    76   46   75 1
    77   46   76 1
    78   47   48 1
    79   47   77 1
    80   47   78 1
    81   48   79 1
@<TRIPOS>SUBSTRUCTURE
     1 COA         1 GROUP 0 A     ****
@<TRIPOS>MOLECULE
[5-(6-aminopurin-9-yl)-2-[[[[3-hydroxy-2,2-dimethyl-4-oxo-4-[[3-oxo-3-(2-sulfanylethylamino)propyl]amino]butoxy]-oxido-phosphoryl]oxy-oxido-phosphoryl]oxymethyl]-4-oxido-tetrahydrofuran-3-yl] phosphate
   79    81     1     0     0
SMALL
USER_CHARGES

@<TRIPOS>ATOM
      1 N1A         6.3197    3.3711    0.1967 N.ar      1 COA        -0.5260
      2 C2A         5.0033    3.3256    0.5141 C.ar      1 COA         0.6629
      3 N3A         4.0730    2.4196    0.1418 N.ar      1 COA        -0.5260
      4 C4A         4.6208    1.4811   -0.6447 C.ar      1 COA         0.5212
      5 C5A         5.9423    1.3962   -1.0530 C.ar      1 COA         0.0088
      6 C6A         6.8050    2.3902   -0.6021 C.ar      1 COA         0.5212
      7 N6A         8.1621    2.3826   -0.9671 N.pl3     1 COA        -0.6025
      8 N7A         6.1335    0.2987   -1.8543 N.2       1 COA        -0.4271
      9 C8A         4.9500   -0.2731   -1.9316 C.ar      1 COA         0.5691
     10 N9A         4.0006    0.4065   -1.2155 N.pl3     1 COA        -0.5033
     11 C1B         2.5376    0.0288   -1.0907 C.3       1 COA         0.2693
     12 C2B         1.9579   -0.2640    0.3131 C.3       1 COA         0.2008
     13 O2B         2.1299   -1.5323    0.6368 O.co2     1 COA        -0.1615
     14 C3B         0.4729    0.0487    0.0699 C.3       1 COA         0.1111
     15 O3B        -0.1943   -0.9780   -0.6709 O.3       1 COA         0.1618
     16 P3B        -1.8364   -1.0586   -0.5907 P.3       1 COA        -1.1921
     17 O7A        -2.1459   -1.2889    0.8856 O.co2     1 COA         0.3195
     18 O8A        -2.1706   -2.2476   -1.4866 O.co2     1 COA         0.3195
     19 O9A        -2.3217    0.2823   -1.1335 O.co2     1 COA         0.3195
     20 C4B         0.5412    1.2713   -0.8394 C.3       1 COA         0.1111
     21 O4B         1.7485    1.1278   -1.6124 O.3       1 COA        -0.1436
     22 C5B         0.6184    2.5901   -0.0816 C.3       1 COA         0.1504
     23 O5B         0.6777    3.6562   -1.0149 O.3       1 COA         0.1618
     24 P1A         0.7670    5.1936   -0.4641 P.3       1 COA        -1.1062
     25 O1A         0.8194    6.1476   -1.6376 O.co2     1 COA         0.3195
     26 O2A         1.8029    5.2507    0.6375 O.co2     1 COA         0.3195
     27 O3A        -0.6886    5.3125    0.2679 O.3       1 COA         0.4672
     28 P2A        -1.1429    6.2040    1.5594 P.3       1 COA        -1.1062
     29 O4A        -2.6377    6.0612    1.7476 O.co2     1 COA         0.3195
     30 O5A        -0.1888    5.9134    2.6974 O.co2     1 COA         0.3195
     31 O6A        -0.8065    7.6957    0.9792 O.3       1 COA         0.1618
     32 CBP        -1.0463    9.4480   -0.7182 C.3       1 COA         0.0000
     33 CCP        -1.7297    8.3208    0.0940 C.3       1 COA         0.1504
     34 CDP         0.1097    8.8359   -1.5452 C.3       1 COA         0.1179
     35 CEP        -2.0542   10.0578   -1.7127 C.3       1 COA         0.1179
     36 CAP        -0.4581   10.5415    0.2222 C.3       1 COA         0.0611
     37 OAP         0.1628   11.5628   -0.5541 O.3       1 COA        -0.2728
     38 C9P        -1.4903   11.2331    1.1103 C.2       1 COA         0.3561
     39 O9P        -2.6736   11.3294    0.7898 O.2       1 COA        -0.2391
     40 N8P        -0.9493   11.7003    2.2973 N.am      1 COA        -0.1909
     41 C7P        -1.7337   12.3668    3.3111 C.3       1 COA         0.1160
     42 C6P        -2.2832   11.3408    4.2916 C.3       1 COA         0.0286
     43 C5P        -1.1841   10.5616    4.9912 C.2       1 COA         0.3561
     44 O5P         0.0111   10.7472    4.7789 O.2       1 COA        -0.2391
     45 N4P        -1.7042    9.6322    5.8800 N.am      1 COA        -0.1909
     46 C3P        -0.8755    8.7562    6.6758 C.3       1 COA         0.1160
     47 C2P        -0.5704    7.4406    5.9784 C.3       1 COA         0.2607
     48 S1P         0.4731    6.3483    6.9912 S.3       1 COA        -0.3539
     49 H2A         4.6492    4.1260    1.1552 H         1 COA        -0.1369
     50 H61A        8.7564    3.1335   -0.6708 H         1 COA         0.2048
     51 H62A        8.4991    1.6788   -1.5963 H         1 COA         0.2048
     52 H8A         4.7208   -1.1726   -2.4865 H         1 COA        -0.1292
     53 H1B         2.4085   -0.8200   -1.8256 H         1 COA        -0.0393
     54 H2B         2.3286    0.5212    0.9904 H         1 COA        -0.0393
     55 H3B        -0.0977    0.2245    0.9885 H         1 COA        -0.0393
     56 H4B        -0.2996    1.3083   -1.5416 H         1 COA        -0.0393
     57 H51A        1.5144    2.6204    0.5455 H         1 COA        -0.0393
     58 H52A       -0.2654    2.7227    0.5494 H         1 COA        -0.0393
     59 H121       -2.1262    7.5446   -0.5686 H         1 COA        -0.0393
     60 H122       -2.5562    8.7139    0.6956 H         1 COA        -0.0393
     61 H131        0.6194    9.6060   -2.1356 H         1 COA        -0.0393
     62 H132       -0.2524    8.0744   -2.2449 H         1 COA        -0.0393
     63 H133        0.8566    8.3597   -0.9005 H         1 COA        -0.0393
     64 H141       -1.5995   10.8607   -2.3043 H         1 COA        -0.0393
     65 H142       -2.9149   10.4873   -1.1878 H         1 COA        -0.0393
     66 H143       -2.4255    9.3094   -2.4205 H         1 COA        -0.0393
     67 H10         0.3192   10.1040    0.8613 H         1 COA        -0.0393
     68 HO1        -0.5280   11.9349   -1.1241 H         1 COA         0.2010
     69 HN8         0.0365   11.5508    2.4898 H         1 COA         0.0865
     70 H71        -1.1053   13.0982    3.8291 H         1 COA        -0.0393
     71 H72        -2.5488   12.9175    2.8310 H         1 COA        -0.0393
     72 H61        -2.9315   10.6281    3.7669 H         1 COA        -0.0393
     73 H62        -2.8936   11.8389    5.0553 H         1 COA        -0.0393
     74 HN4        -2.7132    9.5645    5.9757 H         1 COA         0.0865
     75 H31         0.0549    9.3000    6.8589 H         1 COA        -0.0393
     76 H32        -1.3760    8.6095    7.6363 H         1 COA        -0.0393
     77 H21        -1.4923    6.9054    5.7287 H         1 COA        -0.0393
     78 H22        -0.0325    7.6417    5.0468 H         1 COA        -0.0393
     79 HS1         1.5096    7.1919    7.0819 H         1 COA         0.1718
@<TRIPOS>BOND
     1    1    2 ar
     2    1    6 ar
     3    2    3 ar
     4    2   49 1
     5    3    4 ar
     6    4    5 ar
     7    4   10 ar
     8    5    6 ar
     9    5    8 ar
    10    6    7 1
    11    7   50 1
    12    7   51 1
    13    8    9 ar
    14    9   10 ar
    15    9   52 1
    16   10   11 1
    17   11   12 1
    18   11   21 1
    19   11   53 1
    20   12   13 1
    21   12   14 1
    22   12   54 1
    23   14   15 1
    24   14   20 1
    25   14   55 1
    26   15   16 1
    27   16   17 2
    28   16   18 1
    29   16   19 1
    30   20   21 1
    31   20   22 1
    32   20   56 1
    33   22   23 1
    34   22   57 1
    35   22   58 1
    36   23   24 1
    37   24   25 2
    38   24   26 1
    39   24   27 1
    40   27   28 1
    41   28   29 2
    42   28   30 1
    43   28   31 1
    44   31   33 1
    45   32   33 1
    46   32   34 1
    47   32   35 1
    48   32   36 1
    49   33   59 1
    50   33   60 1
    51   34   61 1
    52   34   62 1
    53   34   63 1
    54   35   64 1
    55   35   65 1
    56   35   66 1
    57   36   37 1
    58   36   38 1
    59   36   67 1
    60   37   68 1
    61   38   39 2
    62   38   40 am
    63   40   41 1
    64   40   69 1
    65   41   42 1
    66   41   70 1
    67   41   71 1
    68   42   43 1
    69   42   72 1
    70   42   73 1
    71   43   44 2
    72   43   45 am
    73   45   46 1
    74   45   74 1
    75   46   47 1
    76   46   75 1
    77   46   76 1
    78   47   48 1
    79   47   77 1
    80   47   78 1
    81   48   79 1
@<TRIPOS>SUBSTRUCTURE
     1 COA         1 GROUP 0 A     ****
@<TRIPOS>MOLECULE
[5-(6-aminopurin-9-yl)-2-[[[[3-hydroxy-2,2-dimethyl-4-oxo-4-[[3-oxo-3-(2-sulfanylethylamino)propyl]amino]butoxy]-oxido-phosphoryl]oxy-oxido-phosphoryl]oxymethyl]-4-oxido-tetrahydrofuran-3-yl] phosphate
   79    81     1     0     0
SMALL
USER_CHARGES

@<TRIPOS>ATOM
      1 N1A         5.7146    2.0302   -0.7890 N.ar      1 COA        -0.5260
      2 C2A         4.3962    2.1571   -0.5034 C.ar      1 COA         0.6629
      3 N3A         3.3299    1.7526   -1.2276 N.ar      1 COA        -0.5260
      4 C4A         3.7311    1.1587   -2.3614 C.ar      1 COA         0.5212
      5 C5A         5.0346    0.9576   -2.7868 C.ar      1 COA         0.0088
      6 C6A         6.0470    1.4195   -1.9517 C.ar      1 COA         0.5212
      7 N6A         7.3978    1.2581   -2.3043 N.pl3     1 COA        -0.6025
      8 N7A         5.0562    0.3154   -3.9993 N.2       1 COA        -0.4271
      9 C8A         3.7892    0.1293   -4.3054 C.ar      1 COA         0.5691
     10 N9A         2.9479    0.6234   -3.3440 N.pl3     1 COA        -0.5033
     11 C1B         1.4328    0.5815   -3.3775 C.3       1 COA         0.2693
     12 C2B         0.6799   -0.1567   -2.2458 C.3       1 COA         0.2008
     13 O2B         0.5449   -1.4388   -2.5302 O.co2     1 COA        -0.1615
     14 C3B        -0.6749    0.5672   -2.2968 C.3       1 COA         0.1111
     15 O3B        -1.4782    0.1594   -3.4088 O.3       1 COA         0.1618
     16 P3B        -3.0996    0.4363   -3.3454 P.3       1 COA        -1.1921
     17 O7A        -3.5828   -0.3425   -2.1254 O.co2     1 COA         0.3195
     18 O8A        -3.6001   -0.1211   -4.6746 O.co2     1 COA         0.3195
     19 O9A        -3.2339    1.9510   -3.2185 O.co2     1 COA         0.3195
     20 C4B        -0.2635    2.0121   -2.5599 C.3       1 COA         0.1111
     21 O4B         0.9490    1.9478   -3.3354 O.3       1 COA        -0.1436
     22 C5B         0.0275    2.8029   -1.2913 C.3       1 COA         0.1504
     23 O5B         0.3986    4.1249   -1.6460 O.3       1 COA         0.1618
     24 P1A         0.7670    5.1936   -0.4641 P.3       1 COA        -1.1062
     25 O1A         1.1289    6.5260   -1.0837 O.co2     1 COA         0.3195
     26 O2A         1.6876    4.5161    0.5275 O.co2     1 COA         0.3195
     27 O3A        -0.6886    5.3125    0.2679 O.3       1 COA         0.4672
     28 P2A        -1.1429    6.2040    1.5594 P.3       1 COA        -1.1062
     29 O4A        -2.6377    6.0612    1.7476 O.co2     1 COA         0.3195
     30 O5A        -0.1888    5.9134    2.6974 O.co2     1 COA         0.3195
     31 O6A        -0.8065    7.6957    0.9792 O.3       1 COA         0.1618
     32 CBP        -1.0090    9.5771   -0.5793 C.3       1 COA         0.0000
     33 CCP        -1.4652    8.1470   -0.1994 C.3       1 COA         0.1504
     34 CDP         0.5182    9.5632   -0.8289 C.3       1 COA         0.1179
     35 CEP        -1.6888   10.0085   -1.8940 C.3       1 COA         0.1179
     36 CAP        -1.3149   10.5877    0.5658 C.3       1 COA         0.0611
     37 OAP        -0.8841   11.8921    0.1862 O.3       1 COA        -0.2728
     38 C9P        -2.7940   10.7032    0.9282 C.2       1 COA         0.3561
     39 O9P        -3.5640    9.7470    0.8589 O.2       1 COA        -0.2391
     40 N8P        -3.1433   11.9737    1.3570 N.am      1 COA        -0.1909
     41 C7P        -4.4804   12.3219    1.7791 C.3       1 COA         0.1160
     42 C6P        -4.4173   13.4261    2.8243 C.3       1 COA         0.0286
     43 C5P        -5.7936   13.8411    3.3125 C.2       1 COA         0.3561
     44 O5P        -6.8338   13.3352    2.9002 O.2       1 COA        -0.2391
     45 N4P        -5.7153   14.8476    4.2638 N.am      1 COA        -0.1909
     46 C3P        -6.8799   15.4279    4.8919 C.3       1 COA         0.1160
     47 C2P        -7.2876   14.7000    6.1624 C.3       1 COA         0.2607
     48 S1P        -8.7543   15.4409    6.9419 S.3       1 COA        -0.3539
     49 H2A         4.1666    2.6505    0.4351 H         1 COA        -0.1369
     50 H61A        8.1108    1.6399   -1.7121 H         1 COA         0.2048
     51 H62A        7.6305    0.8472   -3.1886 H         1 COA         0.2048
     52 H8A         3.4224   -0.3522   -5.2016 H         1 COA        -0.1292
     53 H1B         1.1905    0.2000   -4.4133 H         1 COA        -0.0393
     54 H2B         1.1486    0.1388   -1.2941 H         1 COA        -0.0393
     55 H3B        -1.2745    0.4471   -1.3878 H         1 COA        -0.0393
     56 H4B        -1.0100    2.5497   -3.1559 H         1 COA        -0.0393
     57 H51A        0.8489    2.3441   -0.7330 H         1 COA        -0.0393
     58 H52A       -0.8601    2.8452   -0.6531 H         1 COA        -0.0393
     59 H121       -1.2324    7.4355   -0.9984 H         1 COA        -0.0393
     60 H122       -2.5440    8.1138   -0.0133 H         1 COA        -0.0393
     61 H131        0.8796   10.5616   -1.1013 H         1 COA        -0.0393
     62 H132        0.7886    8.8842   -1.6454 H         1 COA        -0.0393
     63 H133        1.0681    9.2399    0.0618 H         1 COA        -0.0393
     64 H141       -1.3855   11.0192   -2.1904 H         1 COA        -0.0393
     65 H142       -2.7797   10.0132   -1.7903 H         1 COA        -0.0393
     66 H143       -1.4280    9.3402   -2.7211 H         1 COA        -0.0393
     67 H10        -0.7524   10.3112    1.4665 H         1 COA        -0.0393
     68 HO1        -1.3767   12.1229   -0.6167 H         1 COA         0.2010
     69 HN8        -2.4320   12.6966    1.4083 H         1 COA         0.0865
     70 H71        -5.0593   12.6467    0.9086 H         1 COA        -0.0393
     71 H72        -4.9723   11.4326    2.1858 H         1 COA        -0.0393
     72 H61        -3.9173   14.3099    2.4088 H         1 COA        -0.0393
     73 H62        -3.8297   13.0930    3.6891 H         1 COA        -0.0393
     74 HN4        -4.7978   15.1922    4.5310 H         1 COA         0.0865
     75 H31        -6.6151   16.4616    5.1289 H         1 COA        -0.0393
     76 H32        -7.6818   15.4459    4.1494 H         1 COA        -0.0393
     77 H21        -7.4983   13.6448    5.9602 H         1 COA        -0.0393
     78 H22        -6.4678   14.7492    6.8859 H         1 COA        -0.0393
     79 HS1        -9.5739   15.2562    5.8986 H         1 COA         0.1718
@<TRIPOS>BOND
     1    1    2 ar
     2    1    6 ar
     3    2    3 ar
     4    2   49 1
     5    3    4 ar
     6    4    5 ar
     7    4   10 ar
     8    5    6 ar
     9    5    8 ar
    10    6    7 1
    11    7   50 1
    12    7   51 1
    13    8    9 ar
    14    9   10 ar
    15    9   52 1
    16   10   11 1
    17   11   12 1
    18   11   21 1
    19   11   53 1
    20   12   13 1
    21   12   14 1
    22   12   54 1
    23   14   15 1
    24   14   20 1
    25   14   55 1
    26   15   16 1
    27   16   17 2
    28   16   18 1
    29   16   19 1
    30   20   21 1
    31   20   22 1
    32   20   56 1
    33   22   23 1
    34   22   57 1
    35   22   58 1
    36   23   24 1
    37   24   25 2
    38   24   26 1
    39   24   27 1
    40   27   28 1
    41   28   29 2
    42   28   30 1
    43   28   31 1
    44   31   33 1
    45   32   33 1
    46   32   34 1
    47   32   35 1
    48   32   36 1
    49   33   59 1
    50   33   60 1
    51   34   61 1
    52   34   62 1
    53   34   63 1
    54   35   64 1
    55   35   65 1
    56   35   66 1
    57   36   37 1
    58   36   38 1
    59   36   67 1
    60   37   68 1
    61   38   39 2
    62   38   40 am
    63   40   41 1
    64   40   69 1
    65   41   42 1
    66   41   70 1
    67   41   71 1
    68   42   43 1
    69   42   72 1
    70   42   73 1
    71   43   44 2
    72   43   45 am
    73   45   46 1
    74   45   74 1
    75   46   47 1
    76   46   75 1
    77   46   76 1
    78   47   48 1
    79   47   77 1
    80   47   78 1
    81   48   79 1
@<TRIPOS>SUBSTRUCTURE
     1 COA         1 GROUP 0 A     ****
@<TRIPOS>MOLECULE
[5-(6-aminopurin-9-yl)-2-[[[[3-hydroxy-2,2-dimethyl-4-oxo-4-[[3-oxo-3-(2-sulfanylethylamino)propyl]amino]butoxy]-oxido-phosphoryl]oxy-oxido-phosphoryl]oxymethyl]-4-oxido-tetrahydrofuran-3-yl] phosphate
   79    81     1     0     0
SMALL
USER_CHARGES

@<TRIPOS>ATOM
      1 N1A         6.1093    3.4221   -2.1706 N.ar      1 COA        -0.5260
      2 C2A         4.9028    3.1932   -1.5982 C.ar      1 COA         0.6629
      3 N3A         3.8250    2.5648   -2.1163 N.ar      1 COA        -0.5260
      4 C4A         4.0802    2.1492   -3.3659 C.ar      1 COA         0.5212
      5 C5A         5.2577    2.3095   -4.0788 C.ar      1 COA         0.0088
      6 C6A         6.2970    2.9741   -3.4353 C.ar      1 COA         0.5212
      7 N6A         7.5267    3.1813   -4.0834 N.pl3     1 COA        -0.6025
      8 N7A         5.1483    1.7539   -5.3288 N.2       1 COA        -0.4271
      9 C8A         3.9267    1.2647   -5.3749 C.ar      1 COA         0.5691
     10 N9A         3.2402    1.4796   -4.2093 N.pl3     1 COA        -0.5033
     11 C1B         1.8139    1.0528   -3.9225 C.3       1 COA         0.2693
     12 C2B         1.5441    0.0924   -2.7404 C.3       1 COA         0.2008
     13 O2B         1.6560   -1.1661   -3.1231 O.co2     1 COA        -0.1615
     14 C3B         0.0825    0.4469   -2.4241 C.3       1 COA         0.1111
     15 O3B        -0.8371   -0.0985   -3.3754 O.3       1 COA         0.1618
     16 P3B        -2.4169   -0.2494   -2.9382 P.3       1 COA        -1.1921
     17 O7A        -2.4022   -1.1842   -1.7323 O.co2     1 COA         0.3195
     18 O8A        -3.0660   -0.8511   -4.1810 O.co2     1 COA         0.3195
     19 O9A        -2.8748    1.1724   -2.6264 O.co2     1 COA         0.3195
     20 C4B         0.0646    1.9600   -2.6151 C.3       1 COA         0.1111
     21 O4B         1.0421    2.2460   -3.6341 O.3       1 COA        -0.1436
     22 C5B         0.4465    2.7364   -1.3618 C.3       1 COA         0.1504
     23 O5B         0.3986    4.1249   -1.6460 O.3       1 COA         0.1618
     24 P1A         0.7670    5.1936   -0.4641 P.3       1 COA        -1.1062
     25 O1A         1.1289    6.5260   -1.0837 O.co2     1 COA         0.3195
     26 O2A         1.6876    4.5161    0.5275 O.co2     1 COA         0.3195
     27 O3A        -0.6886    5.3125    0.2679 O.3       1 COA         0.4672
     28 P2A        -1.1429    6.2040    1.5594 P.3       1 COA        -1.1062
     29 O4A        -2.6377    6.0612    1.7476 O.co2     1 COA         0.3195
     30 O5A        -0.1888    5.9134    2.6974 O.co2     1 COA         0.3195
     31 O6A        -0.8065    7.6957    0.9792 O.3       1 COA         0.1618
     32 CBP        -1.0090    9.5771   -0.5793 C.3       1 COA         0.0000
     33 CCP        -1.4652    8.1470   -0.1994 C.3       1 COA         0.1504
     34 CDP         0.5182    9.5632   -0.8289 C.3       1 COA         0.1179
     35 CEP        -1.6888   10.0085   -1.8940 C.3       1 COA         0.1179
     36 CAP        -1.3149   10.5877    0.5658 C.3       1 COA         0.0611
     37 OAP        -1.2622    9.9213    1.8245 O.3       1 COA        -0.2728
     38 C9P        -0.3407   11.7608    0.6502 C.2       1 COA         0.3561
     39 O9P         0.7104   11.6974    1.2852 O.2       1 COA        -0.2391
     40 N8P        -0.7630   12.8619   -0.0771 N.am      1 COA        -0.1909
     41 C7P         0.0024   14.0836   -0.1712 C.3       1 COA         0.1160
     42 C6P        -0.3956   15.0264    0.9551 C.3       1 COA         0.0286
     43 C5P        -1.8677   15.3950    0.9090 C.2       1 COA         0.3561
     44 O5P        -2.6396   14.9737    0.0519 O.2       1 COA        -0.2391
     45 N4P        -2.2109   16.2542    1.9425 N.am      1 COA        -0.1909
     46 C3P        -3.5504   16.7622    2.1303 C.3       1 COA         0.1160
     47 C2P        -4.3992   15.8693    3.0205 C.3       1 COA         0.2607
     48 S1P        -3.6897   15.6788    4.6842 S.3       1 COA        -0.3539
     49 H2A         4.7878    3.5651   -0.5856 H         1 COA        -0.1369
     50 H61A        8.2460    3.7037   -3.6204 H         1 COA         0.2048
     51 H62A        7.6376    2.8871   -5.0353 H         1 COA         0.2048
     52 H8A         3.4866    0.7495   -6.2177 H         1 COA        -0.1292
     53 H1B         1.4348    0.6728   -4.9170 H         1 COA        -0.0393
     54 H2B         2.1376    0.4515   -1.8851 H         1 COA        -0.0393
     55 H3B        -0.2421    0.1333   -1.4258 H         1 COA        -0.0393
     56 H4B        -0.9063    2.3168   -2.9777 H         1 COA        -0.0393
     57 H51A        1.4605    2.4765   -1.0434 H         1 COA        -0.0393
     58 H52A       -0.2515    2.5189   -0.5478 H         1 COA        -0.0393
     59 H121       -1.2324    7.4355   -0.9984 H         1 COA        -0.0393
     60 H122       -2.5440    8.1138   -0.0133 H         1 COA        -0.0393
     61 H131        0.8796   10.5616   -1.1013 H         1 COA        -0.0393
     62 H132        0.7886    8.8842   -1.6454 H         1 COA        -0.0393
     63 H133        1.0681    9.2399    0.0618 H         1 COA        -0.0393
     64 H141       -1.3855   11.0192   -2.1904 H         1 COA        -0.0393
     65 H142       -2.7797   10.0132   -1.7903 H         1 COA        -0.0393
     66 H143       -1.4280    9.3402   -2.7211 H         1 COA        -0.0393
     67 H10        -2.3323   10.9827    0.4518 H         1 COA        -0.0393
     68 HO1        -0.3644    9.5651    1.9111 H         1 COA         0.2010
     69 HN8        -1.6351   12.8136   -0.5951 H         1 COA         0.0865
     70 H71         1.0693   13.8448   -0.1161 H         1 COA        -0.0393
     71 H72        -0.1791   14.5477   -1.1458 H         1 COA        -0.0393
     72 H61         0.1936   15.9502    0.8988 H         1 COA        -0.0393
     73 H62        -0.1859   14.5621    1.9268 H         1 COA        -0.0393
     74 HN4        -1.4880   16.5390    2.5968 H         1 COA         0.0865
     75 H31        -3.4410   17.7463    2.5934 H         1 COA        -0.0393
     76 H32        -3.9931   16.9016    1.1408 H         1 COA        -0.0393
     77 H21        -5.4149   16.2655    3.1200 H         1 COA        -0.0393
     78 H22        -4.4666   14.8726    2.5733 H         1 COA        -0.0393
     79 HS1        -3.7208   16.9807    4.9980 H         1 COA         0.1718
@<TRIPOS>BOND
     1    1    2 ar
     2    1    6 ar
     3    2    3 ar
     4    2   49 1
     5    3    4 ar
     6    4    5 ar
     7    4   10 ar
     8    5    6 ar
     9    5    8 ar
    10    6    7 1
    11    7   50 1
    12    7   51 1
    13    8    9 ar
    14    9   10 ar
    15    9   52 1
    16   10   11 1
    17   11   12 1
    18   11   21 1
    19   11   53 1
    20   12   13 1
    21   12   14 1
    22   12   54 1
    23   14   15 1
    24   14   20 1
    25   14   55 1
    26   15   16 1
    27   16   17 2
    28   16   18 1
    29   16   19 1
    30   20   21 1
    31   20   22 1
    32   20   56 1
    33   22   23 1
    34   22   57 1
    35   22   58 1
    36   23   24 1
    37   24   25 2
    38   24   26 1
    39   24   27 1
    40   27   28 1
    41   28   29 2
    42   28   30 1
    43   28   31 1
    44   31   33 1
    45   32   33 1
    46   32   34 1
    47   32   35 1
    48   32   36 1
    49   33   59 1
    50   33   60 1
    51   34   61 1
    52   34   62 1
    53   34   63 1
    54   35   64 1
    55   35   65 1
    56   35   66 1
    57   36   37 1
    58   36   38 1
    59   36   67 1
    60   37   68 1
    61   38   39 2
    62   38   40 am
    63   40   41 1
    64   40   69 1
    65   41   42 1
    66   41   70 1
    67   41   71 1
    68   42   43 1
    69   42   72 1
    70   42   73 1
    71   43   44 2
    72   43   45 am
    73   45   46 1
    74   45   74 1
    75   46   47 1
    76   46   75 1
    77   46   76 1
    78   47   48 1
    79   47   77 1
    80   47   78 1
    81   48   79 1
@<TRIPOS>SUBSTRUCTURE
     1 COA         1 GROUP 0 A     ****
@<TRIPOS>MOLECULE
[5-(6-aminopurin-9-yl)-2-[[[[3-hydroxy-2,2-dimethyl-4-oxo-4-[[3-oxo-3-(2-sulfanylethylamino)propyl]amino]butoxy]-oxido-phosphoryl]oxy-oxido-phosphoryl]oxymethyl]-4-oxido-tetrahydrofuran-3-yl] phosphate
   79    81     1     0     0
SMALL
USER_CHARGES

@<TRIPOS>ATOM
      1 N1A         6.1093    3.4221   -2.1706 N.ar      1 COA        -0.5260
      2 C2A         4.9028    3.1932   -1.5982 C.ar      1 COA         0.6629
      3 N3A         3.8250    2.5648   -2.1163 N.ar      1 COA        -0.5260
      4 C4A         4.0802    2.1492   -3.3659 C.ar      1 COA         0.5212
      5 C5A         5.2577    2.3095   -4.0788 C.ar      1 COA         0.0088
      6 C6A         6.2970    2.9741   -3.4353 C.ar      1 COA         0.5212
      7 N6A         7.5267    3.1813   -4.0834 N.pl3     1 COA        -0.6025
      8 N7A         5.1483    1.7539   -5.3288 N.2       1 COA        -0.4271
      9 C8A         3.9267    1.2647   -5.3749 C.ar      1 COA         0.5691
     10 N9A         3.2402    1.4796   -4.2093 N.pl3     1 COA        -0.5033
     11 C1B         1.8139    1.0528   -3.9225 C.3       1 COA         0.2693
     12 C2B         1.5441    0.0924   -2.7404 C.3       1 COA         0.2008
     13 O2B         1.6560   -1.1661   -3.1231 O.co2     1 COA        -0.1615
     14 C3B         0.0825    0.4469   -2.4241 C.3       1 COA         0.1111
     15 O3B        -0.8371   -0.0985   -3.3754 O.3       1 COA         0.1618
     16 P3B        -2.4169   -0.2494   -2.9382 P.3       1 COA        -1.1921
     17 O7A        -2.4022   -1.1842   -1.7323 O.co2     1 COA         0.3195
     18 O8A        -3.0660   -0.8511   -4.1810 O.co2     1 COA         0.3195
     19 O9A        -2.8748    1.1724   -2.6264 O.co2     1 COA         0.3195
     20 C4B         0.0646    1.9600   -2.6151 C.3       1 COA         0.1111
     21 O4B         1.0421    2.2460   -3.6341 O.3       1 COA        -0.1436
     22 C5B         0.4465    2.7364   -1.3618 C.3       1 COA         0.1504
     23 O5B         0.3986    4.1249   -1.6460 O.3       1 COA         0.1618
     24 P1A         0.7670    5.1936   -0.4641 P.3       1 COA        -1.1062
     25 O1A         1.1289    6.5260   -1.0837 O.co2     1 COA         0.3195
     26 O2A         1.6876    4.5161    0.5275 O.co2     1 COA         0.3195
     27 O3A        -0.6886    5.3125    0.2679 O.3       1 COA         0.4672
     28 P2A        -1.1429    6.2040    1.5594 P.3       1 COA        -1.1062
     29 O4A        -2.6377    6.0612    1.7476 O.co2     1 COA         0.3195
     30 O5A        -0.1888    5.9134    2.6974 O.co2     1 COA         0.3195
     31 O6A        -0.8065    7.6957    0.9792 O.3       1 COA         0.1618
     32 CBP        -1.0090    9.5771   -0.5793 C.3       1 COA         0.0000
     33 CCP        -1.4652    8.1470   -0.1994 C.3       1 COA         0.1504
     34 CDP         0.5182    9.5632   -0.8289 C.3       1 COA         0.1179
     35 CEP        -1.6888   10.0085   -1.8940 C.3       1 COA         0.1179
     36 CAP        -1.3149   10.5877    0.5658 C.3       1 COA         0.0611
     37 OAP        -0.8841   11.8921    0.1862 O.3       1 COA        -0.2728
     38 C9P        -2.7940   10.7032    0.9282 C.2       1 COA         0.3561
     39 O9P        -3.5640    9.7470    0.8589 O.2       1 COA        -0.2391
     40 N8P        -3.1433   11.9737    1.3570 N.am      1 COA        -0.1909
     41 C7P        -4.4804   12.3219    1.7791 C.3       1 COA         0.1160
     42 C6P        -4.6250   12.0820    3.2749 C.3       1 COA         0.0286
     43 C5P        -3.6490   12.9100    4.0913 C.2       1 COA         0.3561
     44 O5P        -2.8373   13.6819    3.5881 O.2       1 COA        -0.2391
     45 N4P        -3.7960   12.6778    5.4510 N.am      1 COA        -0.1909
     46 C3P        -2.9890   13.3359    6.4526 C.3       1 COA         0.1160
     47 C2P        -3.5997   14.6411    6.9361 C.3       1 COA         0.2607
     48 S1P        -2.5737   15.4581    8.1960 S.3       1 COA        -0.3539
     49 H2A         4.7878    3.5651   -0.5856 H         1 COA        -0.1369
     50 H61A        8.2460    3.7037   -3.6204 H         1 COA         0.2048
     51 H62A        7.6376    2.8871   -5.0353 H         1 COA         0.2048
     52 H8A         3.4866    0.7495   -6.2177 H         1 COA        -0.1292
     53 H1B         1.4348    0.6728   -4.9170 H         1 COA        -0.0393
     54 H2B         2.1376    0.4515   -1.8851 H         1 COA        -0.0393
     55 H3B        -0.2421    0.1333   -1.4258 H         1 COA        -0.0393
     56 H4B        -0.9063    2.3168   -2.9777 H         1 COA        -0.0393
     57 H51A        1.4605    2.4765   -1.0434 H         1 COA        -0.0393
     58 H52A       -0.2515    2.5189   -0.5478 H         1 COA        -0.0393
     59 H121       -1.2324    7.4355   -0.9984 H         1 COA        -0.0393
     60 H122       -2.5440    8.1138   -0.0133 H         1 COA        -0.0393
     61 H131        0.8796   10.5616   -1.1013 H         1 COA        -0.0393
     62 H132        0.7886    8.8842   -1.6454 H         1 COA        -0.0393
     63 H133        1.0681    9.2399    0.0618 H         1 COA        -0.0393
     64 H141       -1.3855   11.0192   -2.1904 H         1 COA        -0.0393
     65 H142       -2.7797   10.0132   -1.7903 H         1 COA        -0.0393
     66 H143       -1.4280    9.3402   -2.7211 H         1 COA        -0.0393
     67 H10        -0.7524   10.3112    1.4665 H         1 COA        -0.0393
     68 HO1        -1.3767   12.1229   -0.6167 H         1 COA         0.2010
     69 HN8        -2.4320   12.6966    1.4083 H         1 COA         0.0865
     70 H71        -4.6724   13.3717    1.5359 H         1 COA        -0.0393
     71 H72        -5.2027   11.7190    1.2195 H         1 COA        -0.0393
     72 H61        -4.4557   11.0227    3.5045 H         1 COA        -0.0393
     73 H62        -5.6437   12.3293    3.5992 H         1 COA        -0.0393
     74 HN4        -4.5029   12.0153    5.7562 H         1 COA         0.0865
     75 H31        -2.9089   12.6354    7.2879 H         1 COA        -0.0393
     76 H32        -1.9900   13.4767    6.0324 H         1 COA        -0.0393
     77 H21        -3.7474   15.3375    6.1044 H         1 COA        -0.0393
     78 H22        -4.5768   14.4381    7.3856 H         1 COA        -0.0393
     79 HS1        -1.4884   15.5957    7.4230 H         1 COA         0.1718
@<TRIPOS>BOND
     1    1    2 ar
     2    1    6 ar
     3    2    3 ar
     4    2   49 1
     5    3    4 ar
     6    4    5 ar
     7    4   10 ar
     8    5    6 ar
     9    5    8 ar
    10    6    7 1
    11    7   50 1
    12    7   51 1
    13    8    9 ar
    14    9   10 ar
    15    9   52 1
    16   10   11 1
    17   11   12 1
    18   11   21 1
    19   11   53 1
    20   12   13 1
    21   12   14 1
    22   12   54 1
    23   14   15 1
    24   14   20 1
    25   14   55 1
    26   15   16 1
    27   16   17 2
    28   16   18 1
    29   16   19 1
    30   20   21 1
    31   20   22 1
    32   20   56 1
    33   22   23 1
    34   22   57 1
    35   22   58 1
    36   23   24 1
    37   24   25 2
    38   24   26 1
    39   24   27 1
    40   27   28 1
    41   28   29 2
    42   28   30 1
    43   28   31 1
    44   31   33 1
    45   32   33 1
    46   32   34 1
    47   32   35 1
    48   32   36 1
    49   33   59 1
    50   33   60 1
    51   34   61 1
    52   34   62 1
    53   34   63 1
    54   35   64 1
    55   35   65 1
    56   35   66 1
    57   36   37 1
    58   36   38 1
    59   36   67 1
    60   37   68 1
    61   38   39 2
    62   38   40 am
    63   40   41 1
    64   40   69 1
    65   41   42 1
    66   41   70 1
    67   41   71 1
    68   42   43 1
    69   42   72 1
    70   42   73 1
    71   43   44 2
    72   43   45 am
    73   45   46 1
    74   45   74 1
    75   46   47 1
    76   46   75 1
    77   46   76 1
    78   47   48 1
    79   47   77 1
    80   47   78 1
    81   48   79 1
@<TRIPOS>SUBSTRUCTURE
     1 COA         1 GROUP 0 A     ****
@<TRIPOS>MOLECULE
[5-(6-aminopurin-9-yl)-2-[[[[3-hydroxy-2,2-dimethyl-4-oxo-4-[[3-oxo-3-(2-sulfanylethylamino)propyl]amino]butoxy]-oxido-phosphoryl]oxy-oxido-phosphoryl]oxymethyl]-4-oxido-tetrahydrofuran-3-yl] phosphate
   79    81     1     0     0
SMALL
USER_CHARGES

@<TRIPOS>ATOM
      1 N1A         6.3197    3.3711    0.1967 N.ar      1 COA        -0.5260
      2 C2A         5.0033    3.3256    0.5141 C.ar      1 COA         0.6629
      3 N3A         4.0730    2.4196    0.1418 N.ar      1 COA        -0.5260
      4 C4A         4.6208    1.4811   -0.6447 C.ar      1 COA         0.5212
      5 C5A         5.9423    1.3962   -1.0530 C.ar      1 COA         0.0088
      6 C6A         6.8050    2.3902   -0.6021 C.ar      1 COA         0.5212
      7 N6A         8.1621    2.3826   -0.9671 N.pl3     1 COA        -0.6025
      8 N7A         6.1335    0.2987   -1.8543 N.2       1 COA        -0.4271
      9 C8A         4.9500   -0.2731   -1.9316 C.ar      1 COA         0.5691
     10 N9A         4.0006    0.4065   -1.2155 N.pl3     1 COA        -0.5033
     11 C1B         2.5376    0.0288   -1.0907 C.3       1 COA         0.2693
     12 C2B         1.9579   -0.2640    0.3131 C.3       1 COA         0.2008
     13 O2B         2.1299   -1.5323    0.6368 O.co2     1 COA        -0.1615
     14 C3B         0.4729    0.0487    0.0699 C.3       1 COA         0.1111
     15 O3B        -0.1943   -0.9780   -0.6709 O.3       1 COA         0.1618
     16 P3B        -1.8364   -1.0586   -0.5907 P.3       1 COA        -1.1921
     17 O7A        -2.1459   -1.2889    0.8856 O.co2     1 COA         0.3195
     18 O8A        -2.1706   -2.2476   -1.4866 O.co2     1 COA         0.3195
     19 O9A        -2.3217    0.2823   -1.1335 O.co2     1 COA         0.3195
     20 C4B         0.5412    1.2713   -0.8394 C.3       1 COA         0.1111
     21 O4B         1.7485    1.1278   -1.6124 O.3       1 COA        -0.1436
     22 C5B         0.6184    2.5901   -0.0816 C.3       1 COA         0.1504
     23 O5B         0.6777    3.6562   -1.0149 O.3       1 COA         0.1618
     24 P1A         0.7670    5.1936   -0.4641 P.3       1 COA        -1.1062
     25 O1A         0.8194    6.1476   -1.6376 O.co2     1 COA         0.3195
     26 O2A         1.8029    5.2507    0.6375 O.co2     1 COA         0.3195
     27 O3A        -0.6886    5.3125    0.2679 O.3       1 COA         0.4672
     28 P2A        -1.1429    6.2040    1.5594 P.3       1 COA        -1.1062
     29 O4A        -2.6377    6.0612    1.7476 O.co2     1 COA         0.3195
     30 O5A        -0.1888    5.9134    2.6974 O.co2     1 COA         0.3195
     31 O6A        -0.8065    7.6957    0.9792 O.3       1 COA         0.1618
     32 CBP        -1.0463    9.4480   -0.7182 C.3       1 COA         0.0000
     33 CCP        -1.7297    8.3208    0.0940 C.3       1 COA         0.1504
     34 CDP         0.1097    8.8359   -1.5452 C.3       1 COA         0.1179
     35 CEP        -2.0542   10.0578   -1.7127 C.3       1 COA         0.1179
     36 CAP        -0.4581   10.5415    0.2222 C.3       1 COA         0.0611
     37 OAP         0.1628   11.5628   -0.5541 O.3       1 COA        -0.2728
     38 C9P        -1.4903   11.2331    1.1103 C.2       1 COA         0.3561
     39 O9P        -2.6751   10.9040    1.1192 O.2       1 COA        -0.2391
     40 N8P        -0.9374   12.2286    1.8997 N.am      1 COA        -0.1909
     41 C7P        -1.7097   13.0066    2.8407 C.3       1 COA         0.1160
     42 C6P        -2.2594   14.2471    2.1517 C.3       1 COA         0.0286
     43 C5P        -1.1609   15.1390    1.6016 C.2       1 COA         0.3561
     44 O5P         0.0341   14.8777    1.7092 O.2       1 COA        -0.2391
     45 N4P        -1.6812   16.2634    0.9778 N.am      1 COA        -0.1909
     46 C3P        -0.8530   17.2789    0.3693 C.3       1 COA         0.1160
     47 C2P        -0.4732   18.3870    1.3379 C.3       1 COA         0.2607
     48 S1P        -1.9288   19.2501    2.0042 S.3       1 COA        -0.3539
     49 H2A         4.6492    4.1260    1.1552 H         1 COA        -0.1369
     50 H61A        8.7564    3.1335   -0.6708 H         1 COA         0.2048
     51 H62A        8.4991    1.6788   -1.5963 H         1 COA         0.2048
     52 H8A         4.7208   -1.1726   -2.4865 H         1 COA        -0.1292
     53 H1B         2.4085   -0.8200   -1.8256 H         1 COA        -0.0393
     54 H2B         2.3286    0.5212    0.9904 H         1 COA        -0.0393
     55 H3B        -0.0977    0.2245    0.9885 H         1 COA        -0.0393
     56 H4B        -0.2996    1.3083   -1.5416 H         1 COA        -0.0393
     57 H51A        1.5144    2.6204    0.5455 H         1 COA        -0.0393
     58 H52A       -0.2654    2.7227    0.5494 H         1 COA        -0.0393
     59 H121       -2.1262    7.5446   -0.5686 H         1 COA        -0.0393
     60 H122       -2.5562    8.7139    0.6956 H         1 COA        -0.0393
     61 H131        0.6194    9.6060   -2.1356 H         1 COA        -0.0393
     62 H132       -0.2524    8.0744   -2.2449 H         1 COA        -0.0393
     63 H133        0.8566    8.3597   -0.9005 H         1 COA        -0.0393
     64 H141       -1.5995   10.8607   -2.3043 H         1 COA        -0.0393
     65 H142       -2.9149   10.4873   -1.1878 H         1 COA        -0.0393
     66 H143       -2.4255    9.3094   -2.4205 H         1 COA        -0.0393
     67 H10         0.3192   10.1040    0.8613 H         1 COA        -0.0393
     68 HO1        -0.5280   11.9349   -1.1241 H         1 COA         0.2010
     69 HN8         0.0597   12.4131    1.8452 H         1 COA         0.0865
     70 H71        -2.5243   12.3902    3.2340 H         1 COA        -0.0393
     71 H72        -1.0723   13.2847    3.6861 H         1 COA        -0.0393
     72 H61        -2.8604   14.8346    2.8570 H         1 COA        -0.0393
     73 H62        -2.9169   13.9572    1.3225 H         1 COA        -0.0393
     74 HN4        -2.6901   16.3781    0.9475 H         1 COA         0.0865
     75 H31         0.0492   16.7686    0.0220 H         1 COA        -0.0393
     76 H32        -1.3850   17.6588   -0.5066 H         1 COA        -0.0393
     77 H21         0.1100   17.9929    2.1765 H         1 COA        -0.0393
     78 H22         0.1410   19.1278    0.8166 H         1 COA        -0.0393
     79 HS1        -2.4824   18.1704    2.5718 H         1 COA         0.1718
@<TRIPOS>BOND
     1    1    2 ar
     2    1    6 ar
     3    2    3 ar
     4    2   49 1
     5    3    4 ar
     6    4    5 ar
     7    4   10 ar
     8    5    6 ar
     9    5    8 ar
    10    6    7 1
    11    7   50 1
    12    7   51 1
    13    8    9 ar
    14    9   10 ar
    15    9   52 1
    16   10   11 1
    17   11   12 1
    18   11   21 1
    19   11   53 1
    20   12   13 1
    21   12   14 1
    22   12   54 1
    23   14   15 1
    24   14   20 1
    25   14   55 1
    26   15   16 1
    27   16   17 2
    28   16   18 1
    29   16   19 1
    30   20   21 1
    31   20   22 1
    32   20   56 1
    33   22   23 1
    34   22   57 1
    35   22   58 1
    36   23   24 1
    37   24   25 2
    38   24   26 1
    39   24   27 1
    40   27   28 1
    41   28   29 2
    42   28   30 1
    43   28   31 1
    44   31   33 1
    45   32   33 1
    46   32   34 1
    47   32   35 1
    48   32   36 1
    49   33   59 1
    50   33   60 1
    51   34   61 1
    52   34   62 1
    53   34   63 1
    54   35   64 1
    55   35   65 1
    56   35   66 1
    57   36   37 1
    58   36   38 1
    59   36   67 1
    60   37   68 1
    61   38   39 2
    62   38   40 am
    63   40   41 1
    64   40   69 1
    65   41   42 1
    66   41   70 1
    67   41   71 1
    68   42   43 1
    69   42   72 1
    70   42   73 1
    71   43   44 2
    72   43   45 am
    73   45   46 1
    74   45   74 1
    75   46   47 1
    76   46   75 1
    77   46   76 1
    78   47   48 1
    79   47   77 1
    80   47   78 1
    81   48   79 1
@<TRIPOS>SUBSTRUCTURE
     1 COA         1 GROUP 0 A     ****
@<TRIPOS>MOLECULE
[5-(6-aminopurin-9-yl)-2-[[[[3-hydroxy-2,2-dimethyl-4-oxo-4-[[3-oxo-3-(2-sulfanylethylamino)propyl]amino]butoxy]-oxido-phosphoryl]oxy-oxido-phosphoryl]oxymethyl]-4-oxido-tetrahydrofuran-3-yl] phosphate
   79    81     1     0     0
SMALL
USER_CHARGES

@<TRIPOS>ATOM
      1 N1A         4.6908    0.9263    0.5284 N.ar      1 COA        -0.5260
      2 C2A         3.4193    1.3931    0.4919 C.ar      1 COA         0.6629
      3 N3A         2.4653    1.1803   -0.4405 N.ar      1 COA        -0.5260
      4 C4A         2.9338    0.3916   -1.4192 C.ar      1 COA         0.5212
      5 C5A         4.2020   -0.1580   -1.5185 C.ar      1 COA         0.0088
      6 C6A         5.0963    0.1348   -0.4937 C.ar      1 COA         0.5212
      7 N6A         6.4038   -0.3801   -0.5131 N.pl3     1 COA        -0.6025
      8 N7A         4.3170   -0.9111   -2.6598 N.2       1 COA        -0.4271
      9 C8A         3.1403   -0.8212   -3.2436 C.ar      1 COA         0.5691
     10 N9A         2.2683   -0.0422   -2.5302 N.pl3     1 COA        -0.5033
     11 C1B         0.8363    0.2748   -2.9142 C.3       1 COA         0.2693
     12 C2B        -0.3043   -0.1391   -1.9549 C.3       1 COA         0.2008
     13 O2B        -0.6991   -1.3747   -2.2004 O.co2     1 COA        -0.1615
     14 C3B        -1.3853    0.8773   -2.3558 C.3       1 COA         0.1111
     15 O3B        -2.0094    0.5576   -3.6033 O.3       1 COA         0.1618
     16 P3B        -3.4806    1.2180   -3.9334 P.3       1 COA        -1.1921
     17 O7A        -4.3962    0.7100   -2.8235 O.co2     1 COA         0.3195
     18 O8A        -3.8112    0.6588   -5.3140 O.co2     1 COA         0.3195
     19 O9A        -3.2466    2.7257   -3.9151 O.co2     1 COA         0.3195
     20 C4B        -0.5713    2.1464   -2.5855 C.3       1 COA         0.1111
     21 O4B         0.7211    1.7136   -3.0526 O.3       1 COA        -0.1436
     22 C5B        -0.3655    2.9745   -1.3239 C.3       1 COA         0.1504
     23 O5B         0.3986    4.1249   -1.6460 O.3       1 COA         0.1618
     24 P1A         0.7670    5.1936   -0.4641 P.3       1 COA        -1.1062
     25 O1A         1.1289    6.5260   -1.0837 O.co2     1 COA         0.3195
     26 O2A         1.6876    4.5161    0.5275 O.co2     1 COA         0.3195
     27 O3A        -0.6886    5.3125    0.2679 O.3       1 COA         0.4672
     28 P2A        -1.1429    6.2040    1.5594 P.3       1 COA        -1.1062
     29 O4A        -2.6377    6.0612    1.7476 O.co2     1 COA         0.3195
     30 O5A        -0.1888    5.9134    2.6974 O.co2     1 COA         0.3195
     31 O6A        -0.8065    7.6957    0.9792 O.3       1 COA         0.1618
     32 CBP        -1.0090    9.5771   -0.5793 C.3       1 COA         0.0000
     33 CCP        -1.4652    8.1470   -0.1994 C.3       1 COA         0.1504
     34 CDP         0.5182    9.5632   -0.8289 C.3       1 COA         0.1179
     35 CEP        -1.6888   10.0085   -1.8940 C.3       1 COA         0.1179
     36 CAP        -1.3149   10.5877    0.5658 C.3       1 COA         0.0611
     37 OAP        -0.8841   11.8921    0.1862 O.3       1 COA        -0.2728
     38 C9P        -2.7940   10.7032    0.9282 C.2       1 COA         0.3561
     39 O9P        -3.5640    9.7470    0.8589 O.2       1 COA        -0.2391
     40 N8P        -3.1433   11.9737    1.3570 N.am      1 COA        -0.1909
     41 C7P        -4.4804   12.3219    1.7791 C.3       1 COA         0.1160
     42 C6P        -5.2854   12.8090    0.5830 C.3       1 COA         0.0286
     43 C5P        -4.6698   14.0337   -0.0696 C.2       1 COA         0.3561
     44 O5P        -3.6380   14.5633    0.3339 O.2       1 COA        -0.2391
     45 N4P        -5.4171   14.4623   -1.1568 N.am      1 COA        -0.1909
     46 C3P        -5.0548   15.6099   -1.9564 C.3       1 COA         0.1160
     47 C2P        -5.6614   16.9036   -1.4379 C.3       1 COA         0.2607
     48 S1P        -5.1971   18.3391   -2.4535 S.3       1 COA        -0.3539
     49 H2A         3.1287    2.0232    1.3259 H         1 COA        -0.1369
     50 H61A        7.0472   -0.1189    0.2098 H         1 COA         0.2048
     51 H62A        6.7069   -0.9256   -1.2976 H         1 COA         0.2048
     52 H8A         2.8628   -1.2932   -4.1762 H         1 COA        -0.1292
     53 H1B         0.7316   -0.1451   -3.9582 H         1 COA        -0.0393
     54 H2B         0.0098    0.1350   -0.9357 H         1 COA        -0.0393
     55 H3B        -2.1756    1.0002   -1.6070 H         1 COA        -0.0393
     56 H4B        -1.0101    2.7804   -3.3646 H         1 COA        -0.0393
     57 H51A        0.1721    2.3946   -0.5677 H         1 COA        -0.0393
     58 H52A       -1.3279    3.2941   -0.9132 H         1 COA        -0.0393
     59 H121       -1.2324    7.4355   -0.9984 H         1 COA        -0.0393
     60 H122       -2.5440    8.1138   -0.0133 H         1 COA        -0.0393
     61 H131        0.8796   10.5616   -1.1013 H         1 COA        -0.0393
     62 H132        0.7886    8.8842   -1.6454 H         1 COA        -0.0393
     63 H133        1.0681    9.2399    0.0618 H         1 COA        -0.0393
     64 H141       -1.3855   11.0192   -2.1904 H         1 COA        -0.0393
     65 H142       -2.7797   10.0132   -1.7903 H         1 COA        -0.0393
     66 H143       -1.4280    9.3402   -2.7211 H         1 COA        -0.0393
     67 H10        -0.7524   10.3112    1.4665 H         1 COA        -0.0393
     68 HO1        -1.3767   12.1229   -0.6167 H         1 COA         0.2010
     69 HN8        -2.4320   12.6966    1.4083 H         1 COA         0.0865
     70 H71        -4.9542   11.4454    2.2324 H         1 COA        -0.0393
     71 H72        -4.4240   13.0982    2.5487 H         1 COA        -0.0393
     72 H61        -6.3072   13.0602    0.8938 H         1 COA        -0.0393
     73 H62        -5.3576   12.0151   -0.1709 H         1 COA        -0.0393
     74 HN4        -6.2569   13.9461   -1.4019 H         1 COA         0.0865
     75 H31        -3.9641   15.6745   -1.9203 H         1 COA        -0.0393
     76 H32        -5.3471   15.3998   -2.9883 H         1 COA        -0.0393
     77 H21        -6.7539   16.8401   -1.4063 H         1 COA        -0.0393
     78 H22        -5.3031   17.0883   -0.4204 H         1 COA        -0.0393
     79 HS1        -3.8762   18.2206   -2.2653 H         1 COA         0.1718
@<TRIPOS>BOND
     1    1    2 ar
     2    1    6 ar
     3    2    3 ar
     4    2   49 1
     5    3    4 ar
     6    4    5 ar
     7    4   10 ar
     8    5    6 ar
     9    5    8 ar
    10    6    7 1
    11    7   50 1
    12    7   51 1
    13    8    9 ar
    14    9   10 ar
    15    9   52 1
    16   10   11 1
    17   11   12 1
    18   11   21 1
    19   11   53 1
    20   12   13 1
    21   12   14 1
    22   12   54 1
    23   14   15 1
    24   14   20 1
    25   14   55 1
    26   15   16 1
    27   16   17 2
    28   16   18 1
    29   16   19 1
    30   20   21 1
    31   20   22 1
    32   20   56 1
    33   22   23 1
    34   22   57 1
    35   22   58 1
    36   23   24 1
    37   24   25 2
    38   24   26 1
    39   24   27 1
    40   27   28 1
    41   28   29 2
    42   28   30 1
    43   28   31 1
    44   31   33 1
    45   32   33 1
    46   32   34 1
    47   32   35 1
    48   32   36 1
    49   33   59 1
    50   33   60 1
    51   34   61 1
    52   34   62 1
    53   34   63 1
    54   35   64 1
    55   35   65 1
    56   35   66 1
    57   36   37 1
    58   36   38 1
    59   36   67 1
    60   37   68 1
    61   38   39 2
    62   38   40 am
    63   40   41 1
    64   40   69 1
    65   41   42 1
    66   41   70 1
    67   41   71 1
    68   42   43 1
    69   42   72 1
    70   42   73 1
    71   43   44 2
    72   43   45 am
    73   45   46 1
    74   45   74 1
    75   46   47 1
    76   46   75 1
    77   46   76 1
    78   47   48 1
    79   47   77 1
    80   47   78 1
    81   48   79 1
@<TRIPOS>SUBSTRUCTURE
     1 COA         1 GROUP 0 A     ****
@<TRIPOS>MOLECULE
[5-(6-aminopurin-9-yl)-2-[[[[3-hydroxy-2,2-dimethyl-4-oxo-4-[[3-oxo-3-(2-sulfanylethylamino)propyl]amino]butoxy]-oxido-phosphoryl]oxy-oxido-phosphoryl]oxymethyl]-4-oxido-tetrahydrofuran-3-yl] phosphate
   79    81     1     0     0
SMALL
USER_CHARGES

@<TRIPOS>ATOM
      1 N1A         6.1093    3.4221   -2.1706 N.ar      1 COA        -0.5260
      2 C2A         4.9028    3.1932   -1.5982 C.ar      1 COA         0.6629
      3 N3A         3.8250    2.5648   -2.1163 N.ar      1 COA        -0.5260
      4 C4A         4.0802    2.1492   -3.3659 C.ar      1 COA         0.5212
      5 C5A         5.2577    2.3095   -4.0788 C.ar      1 COA         0.0088
      6 C6A         6.2970    2.9741   -3.4353 C.ar      1 COA         0.5212
      7 N6A         7.5267    3.1813   -4.0834 N.pl3     1 COA        -0.6025
      8 N7A         5.1483    1.7539   -5.3288 N.2       1 COA        -0.4271
      9 C8A         3.9267    1.2647   -5.3749 C.ar      1 COA         0.5691
     10 N9A         3.2402    1.4796   -4.2093 N.pl3     1 COA        -0.5033
     11 C1B         1.8139    1.0528   -3.9225 C.3       1 COA         0.2693
     12 C2B         1.5441    0.0924   -2.7404 C.3       1 COA         0.2008
     13 O2B         1.6560   -1.1661   -3.1231 O.co2     1 COA        -0.1615
     14 C3B         0.0825    0.4469   -2.4241 C.3       1 COA         0.1111
     15 O3B        -0.8371   -0.0985   -3.3754 O.3       1 COA         0.1618
     16 P3B        -2.4169   -0.2494   -2.9382 P.3       1 COA        -1.1921
     17 O7A        -2.4022   -1.1842   -1.7323 O.co2     1 COA         0.3195
     18 O8A        -3.0660   -0.8511   -4.1810 O.co2     1 COA         0.3195
     19 O9A        -2.8748    1.1724   -2.6264 O.co2     1 COA         0.3195
     20 C4B         0.0646    1.9600   -2.6151 C.3       1 COA         0.1111
     21 O4B         1.0421    2.2460   -3.6341 O.3       1 COA        -0.1436
     22 C5B         0.4465    2.7364   -1.3618 C.3       1 COA         0.1504
     23 O5B         0.3986    4.1249   -1.6460 O.3       1 COA         0.1618
     24 P1A         0.7670    5.1936   -0.4641 P.3       1 COA        -1.1062
     25 O1A         1.1289    6.5260   -1.0837 O.co2     1 COA         0.3195
     26 O2A         1.6876    4.5161    0.5275 O.co2     1 COA         0.3195
     27 O3A        -0.6886    5.3125    0.2679 O.3       1 COA         0.4672
     28 P2A        -1.1429    6.2040    1.5594 P.3       1 COA        -1.1062
     29 O4A        -2.6377    6.0612    1.7476 O.co2     1 COA         0.3195
     30 O5A        -0.1888    5.9134    2.6974 O.co2     1 COA         0.3195
     31 O6A        -0.8065    7.6957    0.9792 O.3       1 COA         0.1618
     32 CBP        -1.0090    9.5771   -0.5793 C.3       1 COA         0.0000
     33 CCP        -1.4652    8.1470   -0.1994 C.3       1 COA         0.1504
     34 CDP         0.5182    9.5632   -0.8289 C.3       1 COA         0.1179
     35 CEP        -1.6888   10.0085   -1.8940 C.3       1 COA         0.1179
     36 CAP        -1.3149   10.5877    0.5658 C.3       1 COA         0.0611
     37 OAP        -2.6150   11.1430    0.3849 O.3       1 COA        -0.2728
     38 C9P        -1.2888    9.9815    1.9673 C.2       1 COA         0.3561
     39 O9P        -2.2761    9.4494    2.4714 O.2       1 COA        -0.2391
     40 N8P        -0.0453   10.0792    2.5706 N.am      1 COA        -0.1909
     41 C7P         0.2338    9.5548    3.8876 C.3       1 COA         0.1160
     42 C6P        -0.0469   10.6226    4.9350 C.3       1 COA         0.0286
     43 C5P         0.2269   10.1355    6.3466 C.2       1 COA         0.3561
     44 O5P         0.1049    8.9623    6.6884 O.2       1 COA        -0.2391
     45 N4P         0.6221   11.1740    7.1769 N.am      1 COA        -0.1909
     46 C3P         0.9426   10.9858    8.5731 C.3       1 COA         0.1160
     47 C2P         2.3696   11.3873    8.9088 C.3       1 COA         0.2607
     48 S1P         3.5958   10.4254    7.9714 S.3       1 COA        -0.3539
     49 H2A         4.7878    3.5651   -0.5856 H         1 COA        -0.1369
     50 H61A        8.2460    3.7037   -3.6204 H         1 COA         0.2048
     51 H62A        7.6376    2.8871   -5.0353 H         1 COA         0.2048
     52 H8A         3.4866    0.7495   -6.2177 H         1 COA        -0.1292
     53 H1B         1.4348    0.6728   -4.9170 H         1 COA        -0.0393
     54 H2B         2.1376    0.4515   -1.8851 H         1 COA        -0.0393
     55 H3B        -0.2421    0.1333   -1.4258 H         1 COA        -0.0393
     56 H4B        -0.9063    2.3168   -2.9777 H         1 COA        -0.0393
     57 H51A        1.4605    2.4765   -1.0434 H         1 COA        -0.0393
     58 H52A       -0.2515    2.5189   -0.5478 H         1 COA        -0.0393
     59 H121       -1.2324    7.4355   -0.9984 H         1 COA        -0.0393
     60 H122       -2.5440    8.1138   -0.0133 H         1 COA        -0.0393
     61 H131        0.8796   10.5616   -1.1013 H         1 COA        -0.0393
     62 H132        0.7886    8.8842   -1.6454 H         1 COA        -0.0393
     63 H133        1.0681    9.2399    0.0618 H         1 COA        -0.0393
     64 H141       -1.3855   11.0192   -2.1904 H         1 COA        -0.0393
     65 H142       -2.7797   10.0132   -1.7903 H         1 COA        -0.0393
     66 H143       -1.4280    9.3402   -2.7211 H         1 COA        -0.0393
     67 H10        -0.6003   11.4196    0.5288 H         1 COA        -0.0393
     68 HO1        -3.2380   10.4002    0.4064 H         1 COA         0.2010
     69 HN8         0.7221   10.5122    2.0658 H         1 COA         0.0865
     70 H71        -0.3872    8.6704    4.0616 H         1 COA        -0.0393
     71 H72         1.2796    9.2346    3.9331 H         1 COA        -0.0393
     72 H61        -1.0952   10.9409    4.8767 H         1 COA        -0.0393
     73 H62         0.5754   11.5067    4.7477 H         1 COA        -0.0393
     74 HN4         0.6892   12.1091    6.7857 H         1 COA         0.0865
     75 H31         0.2428   11.6112    9.1335 H         1 COA        -0.0393
     76 H32         0.7367    9.9416    8.8219 H         1 COA        -0.0393
     77 H21         2.5360   12.4506    8.7078 H         1 COA        -0.0393
     78 H22         2.5537   11.2108    9.9731 H         1 COA        -0.0393
     79 HS1         3.1734   10.8066    6.7587 H         1 COA         0.1718
@<TRIPOS>BOND
     1    1    2 ar
     2    1    6 ar
     3    2    3 ar
     4    2   49 1
     5    3    4 ar
     6    4    5 ar
     7    4   10 ar
     8    5    6 ar
     9    5    8 ar
    10    6    7 1
    11    7   50 1
    12    7   51 1
    13    8    9 ar
    14    9   10 ar
    15    9   52 1
    16   10   11 1
    17   11   12 1
    18   11   21 1
    19   11   53 1
    20   12   13 1
    21   12   14 1
    22   12   54 1
    23   14   15 1
    24   14   20 1
    25   14   55 1
    26   15   16 1
    27   16   17 2
    28   16   18 1
    29   16   19 1
    30   20   21 1
    31   20   22 1
    32   20   56 1
    33   22   23 1
    34   22   57 1
    35   22   58 1
    36   23   24 1
    37   24   25 2
    38   24   26 1
    39   24   27 1
    40   27   28 1
    41   28   29 2
    42   28   30 1
    43   28   31 1
    44   31   33 1
    45   32   33 1
    46   32   34 1
    47   32   35 1
    48   32   36 1
    49   33   59 1
    50   33   60 1
    51   34   61 1
    52   34   62 1
    53   34   63 1
    54   35   64 1
    55   35   65 1
    56   35   66 1
    57   36   37 1
    58   36   38 1
    59   36   67 1
    60   37   68 1
    61   38   39 2
    62   38   40 am
    63   40   41 1
    64   40   69 1
    65   41   42 1
    66   41   70 1
    67   41   71 1
    68   42   43 1
    69   42   72 1
    70   42   73 1
    71   43   44 2
    72   43   45 am
    73   45   46 1
    74   45   74 1
    75   46   47 1
    76   46   75 1
    77   46   76 1
    78   47   48 1
    79   47   77 1
    80   47   78 1
    81   48   79 1
@<TRIPOS>SUBSTRUCTURE
     1 COA         1 GROUP 0 A     ****
@<TRIPOS>MOLECULE
[5-(6-aminopurin-9-yl)-2-[[[[3-hydroxy-2,2-dimethyl-4-oxo-4-[[3-oxo-3-(2-sulfanylethylamino)propyl]amino]butoxy]-oxido-phosphoryl]oxy-oxido-phosphoryl]oxymethyl]-4-oxido-tetrahydrofuran-3-yl] phosphate
   79    81     1     0     0
SMALL
USER_CHARGES

@<TRIPOS>ATOM
      1 N1A         6.3197    3.3711    0.1967 N.ar      1 COA        -0.5260
      2 C2A         5.0033    3.3256    0.5141 C.ar      1 COA         0.6629
      3 N3A         4.0730    2.4196    0.1418 N.ar      1 COA        -0.5260
      4 C4A         4.6208    1.4811   -0.6447 C.ar      1 COA         0.5212
      5 C5A         5.9423    1.3962   -1.0530 C.ar      1 COA         0.0088
      6 C6A         6.8050    2.3902   -0.6021 C.ar      1 COA         0.5212
      7 N6A         8.1621    2.3826   -0.9671 N.pl3     1 COA        -0.6025
      8 N7A         6.1335    0.2987   -1.8543 N.2       1 COA        -0.4271
      9 C8A         4.9500   -0.2731   -1.9316 C.ar      1 COA         0.5691
     10 N9A         4.0006    0.4065   -1.2155 N.pl3     1 COA        -0.5033
     11 C1B         2.5376    0.0288   -1.0907 C.3       1 COA         0.2693
     12 C2B         1.9579   -0.2640    0.3131 C.3       1 COA         0.2008
     13 O2B         2.1299   -1.5323    0.6368 O.co2     1 COA        -0.1615
     14 C3B         0.4729    0.0487    0.0699 C.3       1 COA         0.1111
     15 O3B        -0.1943   -0.9780   -0.6709 O.3       1 COA         0.1618
     16 P3B        -1.8364   -1.0586   -0.5907 P.3       1 COA        -1.1921
     17 O7A        -2.1459   -1.2889    0.8856 O.co2     1 COA         0.3195
     18 O8A        -2.1706   -2.2476   -1.4866 O.co2     1 COA         0.3195
     19 O9A        -2.3217    0.2823   -1.1335 O.co2     1 COA         0.3195
     20 C4B         0.5412    1.2713   -0.8394 C.3       1 COA         0.1111
     21 O4B         1.7485    1.1278   -1.6124 O.3       1 COA        -0.1436
     22 C5B         0.6184    2.5901   -0.0816 C.3       1 COA         0.1504
     23 O5B         0.6777    3.6562   -1.0149 O.3       1 COA         0.1618
     24 P1A         0.7670    5.1936   -0.4641 P.3       1 COA        -1.1062
     25 O1A         0.8194    6.1476   -1.6376 O.co2     1 COA         0.3195
     26 O2A         1.8029    5.2507    0.6375 O.co2     1 COA         0.3195
     27 O3A        -0.6886    5.3125    0.2679 O.3       1 COA         0.4672
     28 P2A        -1.1429    6.2040    1.5594 P.3       1 COA        -1.1062
     29 O4A        -2.6377    6.0612    1.7476 O.co2     1 COA         0.3195
     30 O5A        -0.1888    5.9134    2.6974 O.co2     1 COA         0.3195
     31 O6A        -0.8065    7.6957    0.9792 O.3       1 COA         0.1618
     32 CBP        -1.0090    9.5771   -0.5793 C.3       1 COA         0.0000
     33 CCP        -1.4652    8.1470   -0.1994 C.3       1 COA         0.1504
     34 CDP         0.5182    9.5632   -0.8289 C.3       1 COA         0.1179
     35 CEP        -1.6888   10.0085   -1.8940 C.3       1 COA         0.1179
     36 CAP        -1.3149   10.5877    0.5658 C.3       1 COA         0.0611
     37 OAP        -1.2622    9.9213    1.8245 O.3       1 COA        -0.2728
     38 C9P        -0.3407   11.7608    0.6502 C.2       1 COA         0.3561
     39 O9P         0.7104   11.6974    1.2852 O.2       1 COA        -0.2391
     40 N8P        -0.7630   12.8619   -0.0771 N.am      1 COA        -0.1909
     41 C7P         0.0024   14.0836   -0.1712 C.3       1 COA         0.1160
     42 C6P        -0.8128   15.2436    0.3816 C.3       1 COA         0.0286
     43 C5P        -0.0642   16.5626    0.3124 C.2       1 COA         0.3561
     44 O5P         1.1588   16.6459    0.3847 O.2       1 COA        -0.2391
     45 N4P        -0.9319   17.6343    0.1622 N.am      1 COA        -0.1909
     46 C3P        -0.4811   19.0040    0.0717 C.3       1 COA         0.1160
     47 C2P        -0.2069   19.4401   -1.3583 C.3       1 COA         0.2607
     48 S1P        -1.6846   19.3205   -2.4117 S.3       1 COA        -0.3539
     49 H2A         4.6492    4.1260    1.1552 H         1 COA        -0.1369
     50 H61A        8.7564    3.1335   -0.6708 H         1 COA         0.2048
     51 H62A        8.4991    1.6788   -1.5963 H         1 COA         0.2048
     52 H8A         4.7208   -1.1726   -2.4865 H         1 COA        -0.1292
     53 H1B         2.4085   -0.8200   -1.8256 H         1 COA        -0.0393
     54 H2B         2.3286    0.5212    0.9904 H         1 COA        -0.0393
     55 H3B        -0.0977    0.2245    0.9885 H         1 COA        -0.0393
     56 H4B        -0.2996    1.3083   -1.5416 H         1 COA        -0.0393
     57 H51A        1.5144    2.6204    0.5455 H         1 COA        -0.0393
     58 H52A       -0.2654    2.7227    0.5494 H         1 COA        -0.0393
     59 H121       -1.2324    7.4355   -0.9984 H         1 COA        -0.0393
     60 H122       -2.5440    8.1138   -0.0133 H         1 COA        -0.0393
     61 H131        0.8796   10.5616   -1.1013 H         1 COA        -0.0393
     62 H132        0.7886    8.8842   -1.6454 H         1 COA        -0.0393
     63 H133        1.0681    9.2399    0.0618 H         1 COA        -0.0393
     64 H141       -1.3855   11.0192   -2.1904 H         1 COA        -0.0393
     65 H142       -2.7797   10.0132   -1.7903 H         1 COA        -0.0393
     66 H143       -1.4280    9.3402   -2.7211 H         1 COA        -0.0393
     67 H10        -2.3323   10.9827    0.4518 H         1 COA        -0.0393
     68 HO1        -0.3644    9.5651    1.9111 H         1 COA         0.2010
     69 HN8        -1.6351   12.8136   -0.5951 H         1 COA         0.0865
     70 H71         0.9363   13.9669    0.3877 H         1 COA        -0.0393
     71 H72         0.2677   14.2621   -1.2181 H         1 COA        -0.0393
     72 H61        -1.0786   15.0519    1.4287 H         1 COA        -0.0393
     73 H62        -1.7491   15.3478   -0.1809 H         1 COA        -0.0393
     74 HN4        -1.9293   17.4478    0.1137 H         1 COA         0.0865
     75 H31        -1.2806   19.6167    0.4963 H         1 COA        -0.0393
     76 H32         0.3990   19.1057    0.7117 H         1 COA        -0.0393
     77 H21         0.1596   20.4712   -1.3911 H         1 COA        -0.0393
     78 H22         0.5620   18.7933   -1.7921 H         1 COA        -0.0393
     79 HS1        -1.8647   18.0031   -2.2487 H         1 COA         0.1718
@<TRIPOS>BOND
     1    1    2 ar
     2    1    6 ar
     3    2    3 ar
     4    2   49 1
     5    3    4 ar
     6    4    5 ar
     7    4   10 ar
     8    5    6 ar
     9    5    8 ar
    10    6    7 1
    11    7   50 1
    12    7   51 1
    13    8    9 ar
    14    9   10 ar
    15    9   52 1
    16   10   11 1
    17   11   12 1
    18   11   21 1
    19   11   53 1
    20   12   13 1
    21   12   14 1
    22   12   54 1
    23   14   15 1
    24   14   20 1
    25   14   55 1
    26   15   16 1
    27   16   17 2
    28   16   18 1
    29   16   19 1
    30   20   21 1
    31   20   22 1
    32   20   56 1
    33   22   23 1
    34   22   57 1
    35   22   58 1
    36   23   24 1
    37   24   25 2
    38   24   26 1
    39   24   27 1
    40   27   28 1
    41   28   29 2
    42   28   30 1
    43   28   31 1
    44   31   33 1
    45   32   33 1
    46   32   34 1
    47   32   35 1
    48   32   36 1
    49   33   59 1
    50   33   60 1
    51   34   61 1
    52   34   62 1
    53   34   63 1
    54   35   64 1
    55   35   65 1
    56   35   66 1
    57   36   37 1
    58   36   38 1
    59   36   67 1
    60   37   68 1
    61   38   39 2
    62   38   40 am
    63   40   41 1
    64   40   69 1
    65   41   42 1
    66   41   70 1
    67   41   71 1
    68   42   43 1
    69   42   72 1
    70   42   73 1
    71   43   44 2
    72   43   45 am
    73   45   46 1
    74   45   74 1
    75   46   47 1
    76   46   75 1
    77   46   76 1
    78   47   48 1
    79   47   77 1
    80   47   78 1
    81   48   79 1
@<TRIPOS>SUBSTRUCTURE
     1 COA         1 GROUP 0 A     ****
@<TRIPOS>MOLECULE
[5-(6-aminopurin-9-yl)-2-[[[[3-hydroxy-2,2-dimethyl-4-oxo-4-[[3-oxo-3-(2-sulfanylethylamino)propyl]amino]butoxy]-oxido-phosphoryl]oxy-oxido-phosphoryl]oxymethyl]-4-oxido-tetrahydrofuran-3-yl] phosphate
   79    81     1     0     0
SMALL
USER_CHARGES

@<TRIPOS>ATOM
      1 N1A         4.6908    0.9263    0.5284 N.ar      1 COA        -0.5260
      2 C2A         3.4193    1.3931    0.4919 C.ar      1 COA         0.6629
      3 N3A         2.4653    1.1803   -0.4405 N.ar      1 COA        -0.5260
      4 C4A         2.9338    0.3916   -1.4192 C.ar      1 COA         0.5212
      5 C5A         4.2020   -0.1580   -1.5185 C.ar      1 COA         0.0088
      6 C6A         5.0963    0.1348   -0.4937 C.ar      1 COA         0.5212
      7 N6A         6.4038   -0.3801   -0.5131 N.pl3     1 COA        -0.6025
      8 N7A         4.3170   -0.9111   -2.6598 N.2       1 COA        -0.4271
      9 C8A         3.1403   -0.8212   -3.2436 C.ar      1 COA         0.5691
     10 N9A         2.2683   -0.0422   -2.5302 N.pl3     1 COA        -0.5033
     11 C1B         0.8363    0.2748   -2.9142 C.3       1 COA         0.2693
     12 C2B        -0.3043   -0.1391   -1.9549 C.3       1 COA         0.2008
     13 O2B        -0.6991   -1.3747   -2.2004 O.co2     1 COA        -0.1615
     14 C3B        -1.3853    0.8773   -2.3558 C.3       1 COA         0.1111
     15 O3B        -2.0094    0.5576   -3.6033 O.3       1 COA         0.1618
     16 P3B        -3.4806    1.2180   -3.9334 P.3       1 COA        -1.1921
     17 O7A        -4.3962    0.7100   -2.8235 O.co2     1 COA         0.3195
     18 O8A        -3.8112    0.6588   -5.3140 O.co2     1 COA         0.3195
     19 O9A        -3.2466    2.7257   -3.9151 O.co2     1 COA         0.3195
     20 C4B        -0.5713    2.1464   -2.5855 C.3       1 COA         0.1111
     21 O4B         0.7211    1.7136   -3.0526 O.3       1 COA        -0.1436
     22 C5B        -0.3655    2.9745   -1.3239 C.3       1 COA         0.1504
     23 O5B         0.3986    4.1249   -1.6460 O.3       1 COA         0.1618
     24 P1A         0.7670    5.1936   -0.4641 P.3       1 COA        -1.1062
     25 O1A         1.1289    6.5260   -1.0837 O.co2     1 COA         0.3195
     26 O2A         1.6876    4.5161    0.5275 O.co2     1 COA         0.3195
     27 O3A        -0.6886    5.3125    0.2679 O.3       1 COA         0.4672
     28 P2A        -1.1429    6.2040    1.5594 P.3       1 COA        -1.1062
     29 O4A        -2.6377    6.0612    1.7476 O.co2     1 COA         0.3195
     30 O5A        -0.1888    5.9134    2.6974 O.co2     1 COA         0.3195
     31 O6A        -0.8065    7.6957    0.9792 O.3       1 COA         0.1618
     32 CBP        -1.0090    9.5771   -0.5793 C.3       1 COA         0.0000
     33 CCP        -1.4652    8.1470   -0.1994 C.3       1 COA         0.1504
     34 CDP         0.5182    9.5632   -0.8289 C.3       1 COA         0.1179
     35 CEP        -1.6888   10.0085   -1.8940 C.3       1 COA         0.1179
     36 CAP        -1.3149   10.5877    0.5658 C.3       1 COA         0.0611
     37 OAP        -2.6150   11.1430    0.3849 O.3       1 COA        -0.2728
     38 C9P        -1.2888    9.9815    1.9673 C.2       1 COA         0.3561
     39 O9P        -2.2761    9.4494    2.4714 O.2       1 COA        -0.2391
     40 N8P        -0.0453   10.0792    2.5706 N.am      1 COA        -0.1909
     41 C7P         0.2338    9.5548    3.8876 C.3       1 COA         0.1160
     42 C6P        -0.0469   10.6226    4.9350 C.3       1 COA         0.0286
     43 C5P         0.2269   10.1355    6.3466 C.2       1 COA         0.3561
     44 O5P         0.1049    8.9623    6.6884 O.2       1 COA        -0.2391
     45 N4P         0.6221   11.1740    7.1769 N.am      1 COA        -0.1909
     46 C3P         0.9426   10.9858    8.5731 C.3       1 COA         0.1160
     47 C2P         2.4118   10.6710    8.8025 C.3       1 COA         0.2607
     48 S1P         2.8006   10.4366   10.5636 S.3       1 COA        -0.3539
     49 H2A         3.1287    2.0232    1.3259 H         1 COA        -0.1369
     50 H61A        7.0472   -0.1189    0.2098 H         1 COA         0.2048
     51 H62A        6.7069   -0.9256   -1.2976 H         1 COA         0.2048
     52 H8A         2.8628   -1.2932   -4.1762 H         1 COA        -0.1292
     53 H1B         0.7316   -0.1451   -3.9582 H         1 COA        -0.0393
     54 H2B         0.0098    0.1350   -0.9357 H         1 COA        -0.0393
     55 H3B        -2.1756    1.0002   -1.6070 H         1 COA        -0.0393
     56 H4B        -1.0101    2.7804   -3.3646 H         1 COA        -0.0393
     57 H51A        0.1721    2.3946   -0.5677 H         1 COA        -0.0393
     58 H52A       -1.3279    3.2941   -0.9132 H         1 COA        -0.0393
     59 H121       -1.2324    7.4355   -0.9984 H         1 COA        -0.0393
     60 H122       -2.5440    8.1138   -0.0133 H         1 COA        -0.0393
     61 H131        0.8796   10.5616   -1.1013 H         1 COA        -0.0393
     62 H132        0.7886    8.8842   -1.6454 H         1 COA        -0.0393
     63 H133        1.0681    9.2399    0.0618 H         1 COA        -0.0393
     64 H141       -1.3855   11.0192   -2.1904 H         1 COA        -0.0393
     65 H142       -2.7797   10.0132   -1.7903 H         1 COA        -0.0393
     66 H143       -1.4280    9.3402   -2.7211 H         1 COA        -0.0393
     67 H10        -0.6003   11.4196    0.5288 H         1 COA        -0.0393
     68 HO1        -3.2380   10.4002    0.4064 H         1 COA         0.2010
     69 HN8         0.7221   10.5122    2.0658 H         1 COA         0.0865
     70 H71        -0.3872    8.6704    4.0616 H         1 COA        -0.0393
     71 H72         1.2796    9.2346    3.9331 H         1 COA        -0.0393
     72 H61        -1.0952   10.9409    4.8767 H         1 COA        -0.0393
     73 H62         0.5754   11.5067    4.7477 H         1 COA        -0.0393
     74 HN4         0.6892   12.1091    6.7857 H         1 COA         0.0865
     75 H31         0.6843   11.9224    9.0741 H         1 COA        -0.0393
     76 H32         0.2858   10.2028    8.9606 H         1 COA        -0.0393
     77 H21         2.7097    9.7687    8.2586 H         1 COA        -0.0393
     78 H22         3.0210   11.5035    8.4370 H         1 COA        -0.0393
     79 HS1         1.9668    9.4055   10.7535 H         1 COA         0.1718
@<TRIPOS>BOND
     1    1    2 ar
     2    1    6 ar
     3    2    3 ar
     4    2   49 1
     5    3    4 ar
     6    4    5 ar
     7    4   10 ar
     8    5    6 ar
     9    5    8 ar
    10    6    7 1
    11    7   50 1
    12    7   51 1
    13    8    9 ar
    14    9   10 ar
    15    9   52 1
    16   10   11 1
    17   11   12 1
    18   11   21 1
    19   11   53 1
    20   12   13 1
    21   12   14 1
    22   12   54 1
    23   14   15 1
    24   14   20 1
    25   14   55 1
    26   15   16 1
    27   16   17 2
    28   16   18 1
    29   16   19 1
    30   20   21 1
    31   20   22 1
    32   20   56 1
    33   22   23 1
    34   22   57 1
    35   22   58 1
    36   23   24 1
    37   24   25 2
    38   24   26 1
    39   24   27 1
    40   27   28 1
    41   28   29 2
    42   28   30 1
    43   28   31 1
    44   31   33 1
    45   32   33 1
    46   32   34 1
    47   32   35 1
    48   32   36 1
    49   33   59 1
    50   33   60 1
    51   34   61 1
    52   34   62 1
    53   34   63 1
    54   35   64 1
    55   35   65 1
    56   35   66 1
    57   36   37 1
    58   36   38 1
    59   36   67 1
    60   37   68 1
    61   38   39 2
    62   38   40 am
    63   40   41 1
    64   40   69 1
    65   41   42 1
    66   41   70 1
    67   41   71 1
    68   42   43 1
    69   42   72 1
    70   42   73 1
    71   43   44 2
    72   43   45 am
    73   45   46 1
    74   45   74 1
    75   46   47 1
    76   46   75 1
    77   46   76 1
    78   47   48 1
    79   47   77 1
    80   47   78 1
    81   48   79 1
@<TRIPOS>SUBSTRUCTURE
     1 COA         1 GROUP 0 A     ****
@<TRIPOS>MOLECULE
[5-(6-aminopurin-9-yl)-2-[[[[3-hydroxy-2,2-dimethyl-4-oxo-4-[[3-oxo-3-(2-sulfanylethylamino)propyl]amino]butoxy]-oxido-phosphoryl]oxy-oxido-phosphoryl]oxymethyl]-4-oxido-tetrahydrofuran-3-yl] phosphate
   79    81     1     0     0
SMALL
USER_CHARGES

@<TRIPOS>ATOM
      1 N1A         6.3197    3.3711    0.1967 N.ar      1 COA        -0.5260
      2 C2A         5.0033    3.3256    0.5141 C.ar      1 COA         0.6629
      3 N3A         4.0730    2.4196    0.1418 N.ar      1 COA        -0.5260
      4 C4A         4.6208    1.4811   -0.6447 C.ar      1 COA         0.5212
      5 C5A         5.9423    1.3962   -1.0530 C.ar      1 COA         0.0088
      6 C6A         6.8050    2.3902   -0.6021 C.ar      1 COA         0.5212
      7 N6A         8.1621    2.3826   -0.9671 N.pl3     1 COA        -0.6025
      8 N7A         6.1335    0.2987   -1.8543 N.2       1 COA        -0.4271
      9 C8A         4.9500   -0.2731   -1.9316 C.ar      1 COA         0.5691
     10 N9A         4.0006    0.4065   -1.2155 N.pl3     1 COA        -0.5033
     11 C1B         2.5376    0.0288   -1.0907 C.3       1 COA         0.2693
     12 C2B         1.9579   -0.2640    0.3131 C.3       1 COA         0.2008
     13 O2B         2.1299   -1.5323    0.6368 O.co2     1 COA        -0.1615
     14 C3B         0.4729    0.0487    0.0699 C.3       1 COA         0.1111
     15 O3B        -0.1943   -0.9780   -0.6709 O.3       1 COA         0.1618
     16 P3B        -1.8364   -1.0586   -0.5907 P.3       1 COA        -1.1921
     17 O7A        -2.1459   -1.2889    0.8856 O.co2     1 COA         0.3195
     18 O8A        -2.1706   -2.2476   -1.4866 O.co2     1 COA         0.3195
     19 O9A        -2.3217    0.2823   -1.1335 O.co2     1 COA         0.3195
     20 C4B         0.5412    1.2713   -0.8394 C.3       1 COA         0.1111
     21 O4B         1.7485    1.1278   -1.6124 O.3       1 COA        -0.1436
     22 C5B         0.6184    2.5901   -0.0816 C.3       1 COA         0.1504
     23 O5B         0.6777    3.6562   -1.0149 O.3       1 COA         0.1618
     24 P1A         0.7670    5.1936   -0.4641 P.3       1 COA        -1.1062
     25 O1A         0.8194    6.1476   -1.6376 O.co2     1 COA         0.3195
     26 O2A         1.8029    5.2507    0.6375 O.co2     1 COA         0.3195
     27 O3A        -0.6886    5.3125    0.2679 O.3       1 COA         0.4672
     28 P2A        -1.1429    6.2040    1.5594 P.3       1 COA        -1.1062
     29 O4A        -2.6377    6.0612    1.7476 O.co2     1 COA         0.3195
     30 O5A        -0.1888    5.9134    2.6974 O.co2     1 COA         0.3195
     31 O6A        -0.8065    7.6957    0.9792 O.3       1 COA         0.1618
     32 CBP        -1.0090    9.5771   -0.5793 C.3       1 COA         0.0000
     33 CCP        -1.4652    8.1470   -0.1994 C.3       1 COA         0.1504
     34 CDP         0.5182    9.5632   -0.8289 C.3       1 COA         0.1179
     35 CEP        -1.6888   10.0085   -1.8940 C.3       1 COA         0.1179
     36 CAP        -1.3149   10.5877    0.5658 C.3       1 COA         0.0611
     37 OAP        -1.2622    9.9213    1.8245 O.3       1 COA        -0.2728
     38 C9P        -0.3407   11.7608    0.6502 C.2       1 COA         0.3561
     39 O9P         0.7104   11.6974    1.2852 O.2       1 COA        -0.2391
     40 N8P        -0.7630   12.8619   -0.0771 N.am      1 COA        -0.1909
     41 C7P         0.0024   14.0836   -0.1712 C.3       1 COA         0.1160
     42 C6P         0.9441   14.0084   -1.3643 C.3       1 COA         0.0286
     43 C5P         1.7814   15.2650   -1.5216 C.2       1 COA         0.3561
     44 O5P         2.1210   15.9692   -0.5747 O.2       1 COA        -0.2391
     45 N4P         2.0998   15.5027   -2.8506 N.am      1 COA        -0.1909
     46 C3P         2.8875   16.6353   -3.2797 C.3       1 COA         0.1160
     47 C2P         2.2514   17.9667   -2.9146 C.3       1 COA         0.2607
     48 S1P         0.6085   18.1758   -3.6661 S.3       1 COA        -0.3539
     49 H2A         4.6492    4.1260    1.1552 H         1 COA        -0.1369
     50 H61A        8.7564    3.1335   -0.6708 H         1 COA         0.2048
     51 H62A        8.4991    1.6788   -1.5963 H         1 COA         0.2048
     52 H8A         4.7208   -1.1726   -2.4865 H         1 COA        -0.1292
     53 H1B         2.4085   -0.8200   -1.8256 H         1 COA        -0.0393
     54 H2B         2.3286    0.5212    0.9904 H         1 COA        -0.0393
     55 H3B        -0.0977    0.2245    0.9885 H         1 COA        -0.0393
     56 H4B        -0.2996    1.3083   -1.5416 H         1 COA        -0.0393
     57 H51A        1.5144    2.6204    0.5455 H         1 COA        -0.0393
     58 H52A       -0.2654    2.7227    0.5494 H         1 COA        -0.0393
     59 H121       -1.2324    7.4355   -0.9984 H         1 COA        -0.0393
     60 H122       -2.5440    8.1138   -0.0133 H         1 COA        -0.0393
     61 H131        0.8796   10.5616   -1.1013 H         1 COA        -0.0393
     62 H132        0.7886    8.8842   -1.6454 H         1 COA        -0.0393
     63 H133        1.0681    9.2399    0.0618 H         1 COA        -0.0393
     64 H141       -1.3855   11.0192   -2.1904 H         1 COA        -0.0393
     65 H142       -2.7797   10.0132   -1.7903 H         1 COA        -0.0393
     66 H143       -1.4280    9.3402   -2.7211 H         1 COA        -0.0393
     67 H10        -2.3323   10.9827    0.4518 H         1 COA        -0.0393
     68 HO1        -0.3644    9.5651    1.9111 H         1 COA         0.2010
     69 HN8        -1.6351   12.8136   -0.5951 H         1 COA         0.0865
     70 H71        -0.6833   14.9308   -0.2732 H         1 COA        -0.0393
     71 H72         0.5651   14.2279    0.7566 H         1 COA        -0.0393
     72 H61         0.3709   13.8575   -2.2875 H         1 COA        -0.0393
     73 H62         1.6222   13.1526   -1.2555 H         1 COA        -0.0393
     74 HN4         1.7642   14.8510   -3.5538 H         1 COA         0.0865
     75 H31         3.8551   16.5405   -2.7802 H         1 COA        -0.0393
     76 H32         3.0512   16.5358   -4.3557 H         1 COA        -0.0393
     77 H21         2.1518   18.0698   -1.8292 H         1 COA        -0.0393
     78 H22         2.8867   18.7816   -3.2755 H         1 COA        -0.0393
     79 HS1         0.0520   17.1062   -3.0824 H         1 COA         0.1718
@<TRIPOS>BOND
     1    1    2 ar
     2    1    6 ar
     3    2    3 ar
     4    2   49 1
     5    3    4 ar
     6    4    5 ar
     7    4   10 ar
     8    5    6 ar
     9    5    8 ar
    10    6    7 1
    11    7   50 1
    12    7   51 1
    13    8    9 ar
    14    9   10 ar
    15    9   52 1
    16   10   11 1
    17   11   12 1
    18   11   21 1
    19   11   53 1
    20   12   13 1
    21   12   14 1
    22   12   54 1
    23   14   15 1
    24   14   20 1
    25   14   55 1
    26   15   16 1
    27   16   17 2
    28   16   18 1
    29   16   19 1
    30   20   21 1
    31   20   22 1
    32   20   56 1
    33   22   23 1
    34   22   57 1
    35   22   58 1
    36   23   24 1
    37   24   25 2
    38   24   26 1
    39   24   27 1
    40   27   28 1
    41   28   29 2
    42   28   30 1
    43   28   31 1
    44   31   33 1
    45   32   33 1
    46   32   34 1
    47   32   35 1
    48   32   36 1
    49   33   59 1
    50   33   60 1
    51   34   61 1
    52   34   62 1
    53   34   63 1
    54   35   64 1
    55   35   65 1
    56   35   66 1
    57   36   37 1
    58   36   38 1
    59   36   67 1
    60   37   68 1
    61   38   39 2
    62   38   40 am
    63   40   41 1
    64   40   69 1
    65   41   42 1
    66   41   70 1
    67   41   71 1
    68   42   43 1
    69   42   72 1
    70   42   73 1
    71   43   44 2
    72   43   45 am
    73   45   46 1
    74   45   74 1
    75   46   47 1
    76   46   75 1
    77   46   76 1
    78   47   48 1
    79   47   77 1
    80   47   78 1
    81   48   79 1
@<TRIPOS>SUBSTRUCTURE
     1 COA         1 GROUP 0 A     ****
@<TRIPOS>MOLECULE
[5-(6-aminopurin-9-yl)-2-[[[[3-hydroxy-2,2-dimethyl-4-oxo-4-[[3-oxo-3-(2-sulfanylethylamino)propyl]amino]butoxy]-oxido-phosphoryl]oxy-oxido-phosphoryl]oxymethyl]-4-oxido-tetrahydrofuran-3-yl] phosphate
   79    81     1     0     0
SMALL
USER_CHARGES

@<TRIPOS>ATOM
      1 N1A         6.1093    3.4221   -2.1706 N.ar      1 COA        -0.5260
      2 C2A         4.9028    3.1932   -1.5982 C.ar      1 COA         0.6629
      3 N3A         3.8250    2.5648   -2.1163 N.ar      1 COA        -0.5260
      4 C4A         4.0802    2.1492   -3.3659 C.ar      1 COA         0.5212
      5 C5A         5.2577    2.3095   -4.0788 C.ar      1 COA         0.0088
      6 C6A         6.2970    2.9741   -3.4353 C.ar      1 COA         0.5212
      7 N6A         7.5267    3.1813   -4.0834 N.pl3     1 COA        -0.6025
      8 N7A         5.1483    1.7539   -5.3288 N.2       1 COA        -0.4271
      9 C8A         3.9267    1.2647   -5.3749 C.ar      1 COA         0.5691
     10 N9A         3.2402    1.4796   -4.2093 N.pl3     1 COA        -0.5033
     11 C1B         1.8139    1.0528   -3.9225 C.3       1 COA         0.2693
     12 C2B         1.5441    0.0924   -2.7404 C.3       1 COA         0.2008
     13 O2B         1.6560   -1.1661   -3.1231 O.co2     1 COA        -0.1615
     14 C3B         0.0825    0.4469   -2.4241 C.3       1 COA         0.1111
     15 O3B        -0.8371   -0.0985   -3.3754 O.3       1 COA         0.1618
     16 P3B        -2.4169   -0.2494   -2.9382 P.3       1 COA        -1.1921
     17 O7A        -2.4022   -1.1842   -1.7323 O.co2     1 COA         0.3195
     18 O8A        -3.0660   -0.8511   -4.1810 O.co2     1 COA         0.3195
     19 O9A        -2.8748    1.1724   -2.6264 O.co2     1 COA         0.3195
     20 C4B         0.0646    1.9600   -2.6151 C.3       1 COA         0.1111
     21 O4B         1.0421    2.2460   -3.6341 O.3       1 COA        -0.1436
     22 C5B         0.4465    2.7364   -1.3618 C.3       1 COA         0.1504
     23 O5B         0.3986    4.1249   -1.6460 O.3       1 COA         0.1618
     24 P1A         0.7670    5.1936   -0.4641 P.3       1 COA        -1.1062
     25 O1A         1.1289    6.5260   -1.0837 O.co2     1 COA         0.3195
     26 O2A         1.6876    4.5161    0.5275 O.co2     1 COA         0.3195
     27 O3A        -0.6886    5.3125    0.2679 O.3       1 COA         0.4672
     28 P2A        -1.1429    6.2040    1.5594 P.3       1 COA        -1.1062
     29 O4A        -2.6377    6.0612    1.7476 O.co2     1 COA         0.3195
     30 O5A        -0.1888    5.9134    2.6974 O.co2     1 COA         0.3195
     31 O6A        -0.8065    7.6957    0.9792 O.3       1 COA         0.1618
     32 CBP        -1.0090    9.5771   -0.5793 C.3       1 COA         0.0000
     33 CCP        -1.4652    8.1470   -0.1994 C.3       1 COA         0.1504
     34 CDP         0.5182    9.5632   -0.8289 C.3       1 COA         0.1179
     35 CEP        -1.6888   10.0085   -1.8940 C.3       1 COA         0.1179
     36 CAP        -1.3149   10.5877    0.5658 C.3       1 COA         0.0611
     37 OAP        -1.2622    9.9213    1.8245 O.3       1 COA        -0.2728
     38 C9P        -0.3407   11.7608    0.6502 C.2       1 COA         0.3561
     39 O9P         0.7104   11.6974    1.2852 O.2       1 COA        -0.2391
     40 N8P        -0.7630   12.8619   -0.0771 N.am      1 COA        -0.1909
     41 C7P         0.0024   14.0836   -0.1712 C.3       1 COA         0.1160
     42 C6P        -0.8128   15.2436    0.3816 C.3       1 COA         0.0286
     43 C5P        -0.0642   16.5626    0.3124 C.2       1 COA         0.3561
     44 O5P         1.0727   16.6673   -0.1398 O.2       1 COA        -0.2391
     45 N4P        -0.8228   17.6069    0.8204 N.am      1 COA        -0.1909
     46 C3P        -0.3470   18.9700    0.8752 C.3       1 COA         0.1160
     47 C2P         0.3762   19.2892    2.1734 C.3       1 COA         0.2607
     48 S1P        -0.6889   19.0635    3.6303 S.3       1 COA        -0.3539
     49 H2A         4.7878    3.5651   -0.5856 H         1 COA        -0.1369
     50 H61A        8.2460    3.7037   -3.6204 H         1 COA         0.2048
     51 H62A        7.6376    2.8871   -5.0353 H         1 COA         0.2048
     52 H8A         3.4866    0.7495   -6.2177 H         1 COA        -0.1292
     53 H1B         1.4348    0.6728   -4.9170 H         1 COA        -0.0393
     54 H2B         2.1376    0.4515   -1.8851 H         1 COA        -0.0393
     55 H3B        -0.2421    0.1333   -1.4258 H         1 COA        -0.0393
     56 H4B        -0.9063    2.3168   -2.9777 H         1 COA        -0.0393
     57 H51A        1.4605    2.4765   -1.0434 H         1 COA        -0.0393
     58 H52A       -0.2515    2.5189   -0.5478 H         1 COA        -0.0393
     59 H121       -1.2324    7.4355   -0.9984 H         1 COA        -0.0393
     60 H122       -2.5440    8.1138   -0.0133 H         1 COA        -0.0393
     61 H131        0.8796   10.5616   -1.1013 H         1 COA        -0.0393
     62 H132        0.7886    8.8842   -1.6454 H         1 COA        -0.0393
     63 H133        1.0681    9.2399    0.0618 H         1 COA        -0.0393
     64 H141       -1.3855   11.0192   -2.1904 H         1 COA        -0.0393
     65 H142       -2.7797   10.0132   -1.7903 H         1 COA        -0.0393
     66 H143       -1.4280    9.3402   -2.7211 H         1 COA        -0.0393
     67 H10        -2.3323   10.9827    0.4518 H         1 COA        -0.0393
     68 HO1        -0.3644    9.5651    1.9111 H         1 COA         0.2010
     69 HN8        -1.6351   12.8136   -0.5951 H         1 COA         0.0865
     70 H71         0.9363   13.9669    0.3877 H         1 COA        -0.0393
     71 H72         0.2677   14.2621   -1.2181 H         1 COA        -0.0393
     72 H61        -1.0786   15.0519    1.4287 H         1 COA        -0.0393
     73 H62        -1.7491   15.3478   -0.1809 H         1 COA        -0.0393
     74 HN4        -1.7549   17.4042    1.1696 H         1 COA         0.0865
     75 H31         0.3399   19.0872    0.0330 H         1 COA        -0.0393
     76 H32        -1.2041   19.6267    0.7063 H         1 COA        -0.0393
     77 H21         1.2647   18.6607    2.2929 H         1 COA        -0.0393
     78 H22         0.7001   20.3345    2.1590 H         1 COA        -0.0393
     79 HS1        -0.9306   17.7621    3.4249 H         1 COA         0.1718
@<TRIPOS>BOND
     1    1    2 ar
     2    1    6 ar
     3    2    3 ar
     4    2   49 1
     5    3    4 ar
     6    4    5 ar
     7    4   10 ar
     8    5    6 ar
     9    5    8 ar
    10    6    7 1
    11    7   50 1
    12    7   51 1
    13    8    9 ar
    14    9   10 ar
    15    9   52 1
    16   10   11 1
    17   11   12 1
    18   11   21 1
    19   11   53 1
    20   12   13 1
    21   12   14 1
    22   12   54 1
    23   14   15 1
    24   14   20 1
    25   14   55 1
    26   15   16 1
    27   16   17 2
    28   16   18 1
    29   16   19 1
    30   20   21 1
    31   20   22 1
    32   20   56 1
    33   22   23 1
    34   22   57 1
    35   22   58 1
    36   23   24 1
    37   24   25 2
    38   24   26 1
    39   24   27 1
    40   27   28 1
    41   28   29 2
    42   28   30 1
    43   28   31 1
    44   31   33 1
    45   32   33 1
    46   32   34 1
    47   32   35 1
    48   32   36 1
    49   33   59 1
    50   33   60 1
    51   34   61 1
    52   34   62 1
    53   34   63 1
    54   35   64 1
    55   35   65 1
    56   35   66 1
    57   36   37 1
    58   36   38 1
    59   36   67 1
    60   37   68 1
    61   38   39 2
    62   38   40 am
    63   40   41 1
    64   40   69 1
    65   41   42 1
    66   41   70 1
    67   41   71 1
    68   42   43 1
    69   42   72 1
    70   42   73 1
    71   43   44 2
    72   43   45 am
    73   45   46 1
    74   45   74 1
    75   46   47 1
    76   46   75 1
    77   46   76 1
    78   47   48 1
    79   47   77 1
    80   47   78 1
    81   48   79 1
@<TRIPOS>SUBSTRUCTURE
     1 COA         1 GROUP 0 A     ****
@<TRIPOS>MOLECULE
[5-(6-aminopurin-9-yl)-2-[[[[3-hydroxy-2,2-dimethyl-4-oxo-4-[[3-oxo-3-(2-sulfanylethylamino)propyl]amino]butoxy]-oxido-phosphoryl]oxy-oxido-phosphoryl]oxymethyl]-4-oxido-tetrahydrofuran-3-yl] phosphate
   79    81     1     0     0
SMALL
USER_CHARGES

@<TRIPOS>ATOM
      1 N1A         6.3197    3.3711    0.1967 N.ar      1 COA        -0.5260
      2 C2A         5.0033    3.3256    0.5141 C.ar      1 COA         0.6629
      3 N3A         4.0730    2.4196    0.1418 N.ar      1 COA        -0.5260
      4 C4A         4.6208    1.4811   -0.6447 C.ar      1 COA         0.5212
      5 C5A         5.9423    1.3962   -1.0530 C.ar      1 COA         0.0088
      6 C6A         6.8050    2.3902   -0.6021 C.ar      1 COA         0.5212
      7 N6A         8.1621    2.3826   -0.9671 N.pl3     1 COA        -0.6025
      8 N7A         6.1335    0.2987   -1.8543 N.2       1 COA        -0.4271
      9 C8A         4.9500   -0.2731   -1.9316 C.ar      1 COA         0.5691
     10 N9A         4.0006    0.4065   -1.2155 N.pl3     1 COA        -0.5033
     11 C1B         2.5376    0.0288   -1.0907 C.3       1 COA         0.2693
     12 C2B         1.9579   -0.2640    0.3131 C.3       1 COA         0.2008
     13 O2B         2.1299   -1.5323    0.6368 O.co2     1 COA        -0.1615
     14 C3B         0.4729    0.0487    0.0699 C.3       1 COA         0.1111
     15 O3B        -0.1943   -0.9780   -0.6709 O.3       1 COA         0.1618
     16 P3B        -1.8364   -1.0586   -0.5907 P.3       1 COA        -1.1921
     17 O7A        -2.1459   -1.2889    0.8856 O.co2     1 COA         0.3195
     18 O8A        -2.1706   -2.2476   -1.4866 O.co2     1 COA         0.3195
     19 O9A        -2.3217    0.2823   -1.1335 O.co2     1 COA         0.3195
     20 C4B         0.5412    1.2713   -0.8394 C.3       1 COA         0.1111
     21 O4B         1.7485    1.1278   -1.6124 O.3       1 COA        -0.1436
     22 C5B         0.6184    2.5901   -0.0816 C.3       1 COA         0.1504
     23 O5B         0.6777    3.6562   -1.0149 O.3       1 COA         0.1618
     24 P1A         0.7670    5.1936   -0.4641 P.3       1 COA        -1.1062
     25 O1A         0.8194    6.1476   -1.6376 O.co2     1 COA         0.3195
     26 O2A         1.8029    5.2507    0.6375 O.co2     1 COA         0.3195
     27 O3A        -0.6886    5.3125    0.2679 O.3       1 COA         0.4672
     28 P2A        -1.1429    6.2040    1.5594 P.3       1 COA        -1.1062
     29 O4A        -2.6377    6.0612    1.7476 O.co2     1 COA         0.3195
     30 O5A        -0.1888    5.9134    2.6974 O.co2     1 COA         0.3195
     31 O6A        -0.8065    7.6957    0.9792 O.3       1 COA         0.1618
     32 CBP        -1.0463    9.4480   -0.7182 C.3       1 COA         0.0000
     33 CCP        -1.7297    8.3208    0.0940 C.3       1 COA         0.1504
     34 CDP         0.1097    8.8359   -1.5452 C.3       1 COA         0.1179
     35 CEP        -2.0542   10.0578   -1.7127 C.3       1 COA         0.1179
     36 CAP        -0.4581   10.5415    0.2222 C.3       1 COA         0.0611
     37 OAP         0.6848   11.1373   -0.3860 O.3       1 COA        -0.2728
     38 C9P        -1.4230   11.6791    0.5495 C.2       1 COA         0.3561
     39 O9P        -1.5373   12.6707   -0.1687 O.2       1 COA        -0.2391
     40 N8P        -2.1501   11.4494    1.7065 N.am      1 COA        -0.1909
     41 C7P        -3.1444   12.3703    2.2070 C.3       1 COA         0.1160
     42 C6P        -4.5049   12.0261    1.6183 C.3       1 COA         0.0286
     43 C5P        -5.5994   12.9588    2.1050 C.2       1 COA         0.3561
     44 O5P        -5.3963   13.8829    2.8877 O.2       1 COA        -0.2391
     45 N4P        -6.8309   12.6293    1.5579 N.am      1 COA        -0.1909
     46 C3P        -8.0434   13.3561    1.8564 C.3       1 COA         0.1160
     47 C2P        -8.7866   12.7932    3.0568 C.3       1 COA         0.2607
     48 S1P       -10.3101   13.7174    3.4208 S.3       1 COA        -0.3539
     49 H2A         4.6492    4.1260    1.1552 H         1 COA        -0.1369
     50 H61A        8.7564    3.1335   -0.6708 H         1 COA         0.2048
     51 H62A        8.4991    1.6788   -1.5963 H         1 COA         0.2048
     52 H8A         4.7208   -1.1726   -2.4865 H         1 COA        -0.1292
     53 H1B         2.4085   -0.8200   -1.8256 H         1 COA        -0.0393
     54 H2B         2.3286    0.5212    0.9904 H         1 COA        -0.0393
     55 H3B        -0.0977    0.2245    0.9885 H         1 COA        -0.0393
     56 H4B        -0.2996    1.3083   -1.5416 H         1 COA        -0.0393
     57 H51A        1.5144    2.6204    0.5455 H         1 COA        -0.0393
     58 H52A       -0.2654    2.7227    0.5494 H         1 COA        -0.0393
     59 H121       -2.1262    7.5446   -0.5686 H         1 COA        -0.0393
     60 H122       -2.5562    8.7139    0.6956 H         1 COA        -0.0393
     61 H131        0.6194    9.6060   -2.1356 H         1 COA        -0.0393
     62 H132       -0.2524    8.0744   -2.2449 H         1 COA        -0.0393
     63 H133        0.8566    8.3597   -0.9005 H         1 COA        -0.0393
     64 H141       -1.5995   10.8607   -2.3043 H         1 COA        -0.0393
     65 H142       -2.9149   10.4873   -1.1878 H         1 COA        -0.0393
     66 H143       -2.4255    9.3094   -2.4205 H         1 COA        -0.0393
     67 H10        -0.1225   10.0836    1.1613 H         1 COA        -0.0393
     68 HO1         0.3816   11.5281   -1.2201 H         1 COA         0.2010
     69 HN8        -2.0082   10.5863    2.2223 H         1 COA         0.0865
     70 H71        -3.1706   12.3125    3.2998 H         1 COA        -0.0393
     71 H72        -2.8553   13.3918    1.9401 H         1 COA        -0.0393
     72 H61        -4.7821   10.9989    1.8862 H         1 COA        -0.0393
     73 H62        -4.4661   12.0805    0.5231 H         1 COA        -0.0393
     74 HN4        -6.8825   11.8416    0.9187 H         1 COA         0.0865
     75 H31        -7.7388   14.3857    2.0619 H         1 COA        -0.0393
     76 H32        -8.6582   13.3593    0.9528 H         1 COA        -0.0393
     77 H21        -9.0483   11.7418    2.8991 H         1 COA        -0.0393
     78 H22        -8.1438   12.8534    3.9406 H         1 COA        -0.0393
     79 HS1       -10.8959   13.4903    2.2377 H         1 COA         0.1718
@<TRIPOS>BOND
     1    1    2 ar
     2    1    6 ar
     3    2    3 ar
     4    2   49 1
     5    3    4 ar
     6    4    5 ar
     7    4   10 ar
     8    5    6 ar
     9    5    8 ar
    10    6    7 1
    11    7   50 1
    12    7   51 1
    13    8    9 ar
    14    9   10 ar
    15    9   52 1
    16   10   11 1
    17   11   12 1
    18   11   21 1
    19   11   53 1
    20   12   13 1
    21   12   14 1
    22   12   54 1
    23   14   15 1
    24   14   20 1
    25   14   55 1
    26   15   16 1
    27   16   17 2
    28   16   18 1
    29   16   19 1
    30   20   21 1
    31   20   22 1
    32   20   56 1
    33   22   23 1
    34   22   57 1
    35   22   58 1
    36   23   24 1
    37   24   25 2
    38   24   26 1
    39   24   27 1
    40   27   28 1
    41   28   29 2
    42   28   30 1
    43   28   31 1
    44   31   33 1
    45   32   33 1
    46   32   34 1
    47   32   35 1
    48   32   36 1
    49   33   59 1
    50   33   60 1
    51   34   61 1
    52   34   62 1
    53   34   63 1
    54   35   64 1
    55   35   65 1
    56   35   66 1
    57   36   37 1
    58   36   38 1
    59   36   67 1
    60   37   68 1
    61   38   39 2
    62   38   40 am
    63   40   41 1
    64   40   69 1
    65   41   42 1
    66   41   70 1
    67   41   71 1
    68   42   43 1
    69   42   72 1
    70   42   73 1
    71   43   44 2
    72   43   45 am
    73   45   46 1
    74   45   74 1
    75   46   47 1
    76   46   75 1
    77   46   76 1
    78   47   48 1
    79   47   77 1
    80   47   78 1
    81   48   79 1
@<TRIPOS>SUBSTRUCTURE
     1 COA         1 GROUP 0 A     ****
@<TRIPOS>MOLECULE
[5-(6-aminopurin-9-yl)-2-[[[[3-hydroxy-2,2-dimethyl-4-oxo-4-[[3-oxo-3-(2-sulfanylethylamino)propyl]amino]butoxy]-oxido-phosphoryl]oxy-oxido-phosphoryl]oxymethyl]-4-oxido-tetrahydrofuran-3-yl] phosphate
   79    81     1     0     0
SMALL
USER_CHARGES

@<TRIPOS>ATOM
      1 N1A         6.3197    3.3711    0.1967 N.ar      1 COA        -0.5260
      2 C2A         5.0033    3.3256    0.5141 C.ar      1 COA         0.6629
      3 N3A         4.0730    2.4196    0.1418 N.ar      1 COA        -0.5260
      4 C4A         4.6208    1.4811   -0.6447 C.ar      1 COA         0.5212
      5 C5A         5.9423    1.3962   -1.0530 C.ar      1 COA         0.0088
      6 C6A         6.8050    2.3902   -0.6021 C.ar      1 COA         0.5212
      7 N6A         8.1621    2.3826   -0.9671 N.pl3     1 COA        -0.6025
      8 N7A         6.1335    0.2987   -1.8543 N.2       1 COA        -0.4271
      9 C8A         4.9500   -0.2731   -1.9316 C.ar      1 COA         0.5691
     10 N9A         4.0006    0.4065   -1.2155 N.pl3     1 COA        -0.5033
     11 C1B         2.5376    0.0288   -1.0907 C.3       1 COA         0.2693
     12 C2B         1.9579   -0.2640    0.3131 C.3       1 COA         0.2008
     13 O2B         2.1299   -1.5323    0.6368 O.co2     1 COA        -0.1615
     14 C3B         0.4729    0.0487    0.0699 C.3       1 COA         0.1111
     15 O3B        -0.1943   -0.9780   -0.6709 O.3       1 COA         0.1618
     16 P3B        -1.8364   -1.0586   -0.5907 P.3       1 COA        -1.1921
     17 O7A        -2.1459   -1.2889    0.8856 O.co2     1 COA         0.3195
     18 O8A        -2.1706   -2.2476   -1.4866 O.co2     1 COA         0.3195
     19 O9A        -2.3217    0.2823   -1.1335 O.co2     1 COA         0.3195
     20 C4B         0.5412    1.2713   -0.8394 C.3       1 COA         0.1111
     21 O4B         1.7485    1.1278   -1.6124 O.3       1 COA        -0.1436
     22 C5B         0.6184    2.5901   -0.0816 C.3       1 COA         0.1504
     23 O5B         0.6777    3.6562   -1.0149 O.3       1 COA         0.1618
     24 P1A         0.7670    5.1936   -0.4641 P.3       1 COA        -1.1062
     25 O1A         0.8194    6.1476   -1.6376 O.co2     1 COA         0.3195
     26 O2A         1.8029    5.2507    0.6375 O.co2     1 COA         0.3195
     27 O3A        -0.6886    5.3125    0.2679 O.3       1 COA         0.4672
     28 P2A        -1.1429    6.2040    1.5594 P.3       1 COA        -1.1062
     29 O4A        -2.6377    6.0612    1.7476 O.co2     1 COA         0.3195
     30 O5A        -0.1888    5.9134    2.6974 O.co2     1 COA         0.3195
     31 O6A        -0.8065    7.6957    0.9792 O.3       1 COA         0.1618
     32 CBP        -1.0463    9.4480   -0.7182 C.3       1 COA         0.0000
     33 CCP        -1.7297    8.3208    0.0940 C.3       1 COA         0.1504
     34 CDP         0.1097    8.8359   -1.5452 C.3       1 COA         0.1179
     35 CEP        -2.0542   10.0578   -1.7127 C.3       1 COA         0.1179
     36 CAP        -0.4581   10.5415    0.2222 C.3       1 COA         0.0611
     37 OAP         0.1628   11.5628   -0.5541 O.3       1 COA        -0.2728
     38 C9P        -1.4903   11.2331    1.1103 C.2       1 COA         0.3561
     39 O9P        -2.6736   11.3294    0.7898 O.2       1 COA        -0.2391
     40 N8P        -0.9493   11.7003    2.2973 N.am      1 COA        -0.1909
     41 C7P        -1.7337   12.3668    3.3111 C.3       1 COA         0.1160
     42 C6P        -1.7413   13.8661    3.0506 C.3       1 COA         0.0286
     43 C5P        -2.5510   14.6294    4.0834 C.2       1 COA         0.3561
     44 O5P        -3.1315   14.0851    5.0186 O.2       1 COA        -0.2391
     45 N4P        -2.5460   15.9931    3.8292 N.am      1 COA        -0.1909
     46 C3P        -3.2418   16.9498    4.6587 C.3       1 COA         0.1160
     47 C2P        -2.3800   17.4835    5.7913 C.3       1 COA         0.2607
     48 S1P        -3.2683   18.6862    6.8267 S.3       1 COA        -0.3539
     49 H2A         4.6492    4.1260    1.1552 H         1 COA        -0.1369
     50 H61A        8.7564    3.1335   -0.6708 H         1 COA         0.2048
     51 H62A        8.4991    1.6788   -1.5963 H         1 COA         0.2048
     52 H8A         4.7208   -1.1726   -2.4865 H         1 COA        -0.1292
     53 H1B         2.4085   -0.8200   -1.8256 H         1 COA        -0.0393
     54 H2B         2.3286    0.5212    0.9904 H         1 COA        -0.0393
     55 H3B        -0.0977    0.2245    0.9885 H         1 COA        -0.0393
     56 H4B        -0.2996    1.3083   -1.5416 H         1 COA        -0.0393
     57 H51A        1.5144    2.6204    0.5455 H         1 COA        -0.0393
     58 H52A       -0.2654    2.7227    0.5494 H         1 COA        -0.0393
     59 H121       -2.1262    7.5446   -0.5686 H         1 COA        -0.0393
     60 H122       -2.5562    8.7139    0.6956 H         1 COA        -0.0393
     61 H131        0.6194    9.6060   -2.1356 H         1 COA        -0.0393
     62 H132       -0.2524    8.0744   -2.2449 H         1 COA        -0.0393
     63 H133        0.8566    8.3597   -0.9005 H         1 COA        -0.0393
     64 H141       -1.5995   10.8607   -2.3043 H         1 COA        -0.0393
     65 H142       -2.9149   10.4873   -1.1878 H         1 COA        -0.0393
     66 H143       -2.4255    9.3094   -2.4205 H         1 COA        -0.0393
     67 H10         0.3192   10.1040    0.8613 H         1 COA        -0.0393
     68 HO1        -0.5280   11.9349   -1.1241 H         1 COA         0.2010
     69 HN8         0.0365   11.5508    2.4898 H         1 COA         0.0865
     70 H71        -2.7528   11.9673    3.2979 H         1 COA        -0.0393
     71 H72        -1.3092   12.1480    4.2960 H         1 COA        -0.0393
     72 H61        -2.1626   14.0739    2.0591 H         1 COA        -0.0393
     73 H62        -0.7154   14.2551    3.0594 H         1 COA        -0.0393
     74 HN4        -2.0298   16.3344    3.0236 H         1 COA         0.0865
     75 H31        -3.5320   17.7714    3.9985 H         1 COA        -0.0393
     76 H32        -4.1539   16.4704    5.0228 H         1 COA        -0.0393
     77 H21        -2.0254   16.6696    6.4320 H         1 COA        -0.0393
     78 H22        -1.5053   17.9901    5.3718 H         1 COA        -0.0393
     79 HS1        -4.2430   17.8492    7.2060 H         1 COA         0.1718
@<TRIPOS>BOND
     1    1    2 ar
     2    1    6 ar
     3    2    3 ar
     4    2   49 1
     5    3    4 ar
     6    4    5 ar
     7    4   10 ar
     8    5    6 ar
     9    5    8 ar
    10    6    7 1
    11    7   50 1
    12    7   51 1
    13    8    9 ar
    14    9   10 ar
    15    9   52 1
    16   10   11 1
    17   11   12 1
    18   11   21 1
    19   11   53 1
    20   12   13 1
    21   12   14 1
    22   12   54 1
    23   14   15 1
    24   14   20 1
    25   14   55 1
    26   15   16 1
    27   16   17 2
    28   16   18 1
    29   16   19 1
    30   20   21 1
    31   20   22 1
    32   20   56 1
    33   22   23 1
    34   22   57 1
    35   22   58 1
    36   23   24 1
    37   24   25 2
    38   24   26 1
    39   24   27 1
    40   27   28 1
    41   28   29 2
    42   28   30 1
    43   28   31 1
    44   31   33 1
    45   32   33 1
    46   32   34 1
    47   32   35 1
    48   32   36 1
    49   33   59 1
    50   33   60 1
    51   34   61 1
    52   34   62 1
    53   34   63 1
    54   35   64 1
    55   35   65 1
    56   35   66 1
    57   36   37 1
    58   36   38 1
    59   36   67 1
    60   37   68 1
    61   38   39 2
    62   38   40 am
    63   40   41 1
    64   40   69 1
    65   41   42 1
    66   41   70 1
    67   41   71 1
    68   42   43 1
    69   42   72 1
    70   42   73 1
    71   43   44 2
    72   43   45 am
    73   45   46 1
    74   45   74 1
    75   46   47 1
    76   46   75 1
    77   46   76 1
    78   47   48 1
    79   47   77 1
    80   47   78 1
    81   48   79 1
@<TRIPOS>SUBSTRUCTURE
     1 COA         1 GROUP 0 A     ****
@<TRIPOS>MOLECULE
[5-(6-aminopurin-9-yl)-2-[[[[3-hydroxy-2,2-dimethyl-4-oxo-4-[[3-oxo-3-(2-sulfanylethylamino)propyl]amino]butoxy]-oxido-phosphoryl]oxy-oxido-phosphoryl]oxymethyl]-4-oxido-tetrahydrofuran-3-yl] phosphate
   79    81     1     0     0
SMALL
USER_CHARGES

@<TRIPOS>ATOM
      1 N1A        -3.9039    2.4517    1.8283 N.ar      1 COA        -0.5260
      2 C2A        -3.3295    3.2614    0.9063 C.ar      1 COA         0.6629
      3 N3A        -2.9870    2.9823   -0.3704 N.ar      1 COA        -0.5260
      4 C4A        -3.2951    1.7119   -0.6714 C.ar      1 COA         0.5212
      5 C5A        -3.8810    0.7714    0.1608 C.ar      1 COA         0.0088
      6 C6A        -4.1878    1.1807    1.4546 C.ar      1 COA         0.5212
      7 N6A        -4.7836    0.2924    2.3662 N.pl3     1 COA        -0.6025
      8 N7A        -4.0438   -0.4230   -0.4949 N.2       1 COA        -0.4271
      9 C8A        -3.5659   -0.2124   -1.7036 C.ar      1 COA         0.5691
     10 N9A        -3.1003    1.0663   -1.8591 N.pl3     1 COA        -0.5033
     11 C1B        -2.4828    1.6438   -3.1175 C.3       1 COA         0.2693
     12 C2B        -3.1527    2.8675   -3.7856 C.3       1 COA         0.2008
     13 O2B        -4.0894    2.4850   -4.6336 O.co2     1 COA        -0.1615
     14 C3B        -1.9491    3.4718   -4.5260 C.3       1 COA         0.1111
     15 O3B        -1.5961    2.7353   -5.7012 O.3       1 COA         0.1618
     16 P3B        -0.6948    3.4882   -6.8546 P.3       1 COA        -1.1921
     17 O7A        -1.5419    4.6766   -7.3000 O.co2     1 COA         0.3195
     18 O8A        -0.5270    2.4117   -7.9228 O.co2     1 COA         0.3195
     19 O9A         0.6037    3.8701   -6.1501 O.co2     1 COA         0.3195
     20 C4B        -0.8155    3.2705   -3.5257 C.3       1 COA         0.1111
     21 O4B        -1.1344    2.0698   -2.7962 O.3       1 COA        -0.1436
     22 C5B        -0.6774    4.4099   -2.5246 C.3       1 COA         0.1504
     23 O5B         0.3986    4.1249   -1.6460 O.3       1 COA         0.1618
     24 P1A         0.7670    5.1936   -0.4641 P.3       1 COA        -1.1062
     25 O1A         1.1289    6.5260   -1.0837 O.co2     1 COA         0.3195
     26 O2A         1.6876    4.5161    0.5275 O.co2     1 COA         0.3195
     27 O3A        -0.6886    5.3125    0.2679 O.3       1 COA         0.4672
     28 P2A        -1.1429    6.2040    1.5594 P.3       1 COA        -1.1062
     29 O4A        -2.6377    6.0612    1.7476 O.co2     1 COA         0.3195
     30 O5A        -0.1888    5.9134    2.6974 O.co2     1 COA         0.3195
     31 O6A        -0.8065    7.6957    0.9792 O.3       1 COA         0.1618
     32 CBP        -1.0090    9.5771   -0.5793 C.3       1 COA         0.0000
     33 CCP        -1.4652    8.1470   -0.1994 C.3       1 COA         0.1504
     34 CDP         0.5182    9.5632   -0.8289 C.3       1 COA         0.1179
     35 CEP        -1.6888   10.0085   -1.8940 C.3       1 COA         0.1179
     36 CAP        -1.3149   10.5877    0.5658 C.3       1 COA         0.0611
     37 OAP        -0.8841   11.8921    0.1862 O.3       1 COA        -0.2728
     38 C9P        -2.7940   10.7032    0.9282 C.2       1 COA         0.3561
     39 O9P        -3.5554   11.4723    0.3443 O.2       1 COA        -0.2391
     40 N8P        -3.1652    9.8410    1.9474 N.am      1 COA        -0.1909
     41 C7P        -4.5178    9.7490    2.4468 C.3       1 COA         0.1160
     42 C6P        -4.7105   10.7345    3.5903 C.3       1 COA         0.0286
     43 C5P        -6.1157   10.6894    4.1633 C.2       1 COA         0.3561
     44 O5P        -6.9901    9.9381    3.7406 O.2       1 COA        -0.2391
     45 N4P        -6.2717   11.5939    5.2034 N.am      1 COA        -0.1909
     46 C3P        -7.5133   11.7565    5.9240 C.3       1 COA         0.1160
     47 C2P        -8.4212   12.8054    5.3029 C.3       1 COA         0.2607
     48 S1P        -7.6436   14.4487    5.2523 S.3       1 COA        -0.3539
     49 H2A        -3.1164    4.2717    1.2395 H         1 COA        -0.1369
     50 H61A       -4.9530    0.5922    3.3076 H         1 COA         0.2048
     51 H62A       -4.9456   -0.6585    2.0932 H         1 COA         0.2048
     52 H8A        -3.5298   -0.9412   -2.5018 H         1 COA        -0.1292
     53 H1B        -2.3698    0.7525   -3.8030 H         1 COA        -0.0393
     54 H2B        -3.4073    3.5789   -2.9846 H         1 COA        -0.0393
     55 H3B        -2.0891    4.5191   -4.8158 H         1 COA        -0.0393
     56 H4B         0.1478    3.1100   -4.0235 H         1 COA        -0.0393
     57 H51A       -1.5937    4.5171   -1.9365 H         1 COA        -0.0393
     58 H52A       -0.4707    5.3519   -3.0411 H         1 COA        -0.0393
     59 H121       -1.2324    7.4355   -0.9984 H         1 COA        -0.0393
     60 H122       -2.5440    8.1138   -0.0133 H         1 COA        -0.0393
     61 H131        0.8796   10.5616   -1.1013 H         1 COA        -0.0393
     62 H132        0.7886    8.8842   -1.6454 H         1 COA        -0.0393
     63 H133        1.0681    9.2399    0.0618 H         1 COA        -0.0393
     64 H141       -1.3855   11.0192   -2.1904 H         1 COA        -0.0393
     65 H142       -2.7797   10.0132   -1.7903 H         1 COA        -0.0393
     66 H143       -1.4280    9.3402   -2.7211 H         1 COA        -0.0393
     67 H10        -0.7524   10.3112    1.4665 H         1 COA        -0.0393
     68 HO1        -1.3767   12.1229   -0.6167 H         1 COA         0.2010
     69 HN8        -2.4720    9.2197    2.3532 H         1 COA         0.0865
     70 H71        -5.2173    9.9612    1.6320 H         1 COA        -0.0393
     71 H72        -4.7082    8.7249    2.7833 H         1 COA        -0.0393
     72 H61        -4.5113   11.7565    3.2443 H         1 COA        -0.0393
     73 H62        -4.0007   10.5174    4.3983 H         1 COA        -0.0393
     74 HN4        -5.4771   12.1676    5.4705 H         1 COA         0.0865
     75 H31        -8.0082   10.7821    5.9024 H         1 COA        -0.0393
     76 H32        -7.2650   11.9867    6.9632 H         1 COA        -0.0393
     77 H21        -8.7054   12.5249    4.2835 H         1 COA        -0.0393
     78 H22        -9.3356   12.8901    5.8984 H         1 COA        -0.0393
     79 HS1        -6.6009   14.0853    4.4941 H         1 COA         0.1718
@<TRIPOS>BOND
     1    1    2 ar
     2    1    6 ar
     3    2    3 ar
     4    2   49 1
     5    3    4 ar
     6    4    5 ar
     7    4   10 ar
     8    5    6 ar
     9    5    8 ar
    10    6    7 1
    11    7   50 1
    12    7   51 1
    13    8    9 ar
    14    9   10 ar
    15    9   52 1
    16   10   11 1
    17   11   12 1
    18   11   21 1
    19   11   53 1
    20   12   13 1
    21   12   14 1
    22   12   54 1
    23   14   15 1
    24   14   20 1
    25   14   55 1
    26   15   16 1
    27   16   17 2
    28   16   18 1
    29   16   19 1
    30   20   21 1
    31   20   22 1
    32   20   56 1
    33   22   23 1
    34   22   57 1
    35   22   58 1
    36   23   24 1
    37   24   25 2
    38   24   26 1
    39   24   27 1
    40   27   28 1
    41   28   29 2
    42   28   30 1
    43   28   31 1
    44   31   33 1
    45   32   33 1
    46   32   34 1
    47   32   35 1
    48   32   36 1
    49   33   59 1
    50   33   60 1
    51   34   61 1
    52   34   62 1
    53   34   63 1
    54   35   64 1
    55   35   65 1
    56   35   66 1
    57   36   37 1
    58   36   38 1
    59   36   67 1
    60   37   68 1
    61   38   39 2
    62   38   40 am
    63   40   41 1
    64   40   69 1
    65   41   42 1
    66   41   70 1
    67   41   71 1
    68   42   43 1
    69   42   72 1
    70   42   73 1
    71   43   44 2
    72   43   45 am
    73   45   46 1
    74   45   74 1
    75   46   47 1
    76   46   75 1
    77   46   76 1
    78   47   48 1
    79   47   77 1
    80   47   78 1
    81   48   79 1
@<TRIPOS>SUBSTRUCTURE
     1 COA         1 GROUP 0 A     ****
@<TRIPOS>MOLECULE
[5-(6-aminopurin-9-yl)-2-[[[[3-hydroxy-2,2-dimethyl-4-oxo-4-[[3-oxo-3-(2-sulfanylethylamino)propyl]amino]butoxy]-oxido-phosphoryl]oxy-oxido-phosphoryl]oxymethyl]-4-oxido-tetrahydrofuran-3-yl] phosphate
   79    81     1     0     0
SMALL
USER_CHARGES

@<TRIPOS>ATOM
      1 N1A         4.6908    0.9263    0.5284 N.ar      1 COA        -0.5260
      2 C2A         3.4193    1.3931    0.4919 C.ar      1 COA         0.6629
      3 N3A         2.4653    1.1803   -0.4405 N.ar      1 COA        -0.5260
      4 C4A         2.9338    0.3916   -1.4192 C.ar      1 COA         0.5212
      5 C5A         4.2020   -0.1580   -1.5185 C.ar      1 COA         0.0088
      6 C6A         5.0963    0.1348   -0.4937 C.ar      1 COA         0.5212
      7 N6A         6.4038   -0.3801   -0.5131 N.pl3     1 COA        -0.6025
      8 N7A         4.3170   -0.9111   -2.6598 N.2       1 COA        -0.4271
      9 C8A         3.1403   -0.8212   -3.2436 C.ar      1 COA         0.5691
     10 N9A         2.2683   -0.0422   -2.5302 N.pl3     1 COA        -0.5033
     11 C1B         0.8363    0.2748   -2.9142 C.3       1 COA         0.2693
     12 C2B        -0.3043   -0.1391   -1.9549 C.3       1 COA         0.2008
     13 O2B        -0.6991   -1.3747   -2.2004 O.co2     1 COA        -0.1615
     14 C3B        -1.3853    0.8773   -2.3558 C.3       1 COA         0.1111
     15 O3B        -2.0094    0.5576   -3.6033 O.3       1 COA         0.1618
     16 P3B        -3.4806    1.2180   -3.9334 P.3       1 COA        -1.1921
     17 O7A        -4.3962    0.7100   -2.8235 O.co2     1 COA         0.3195
     18 O8A        -3.8112    0.6588   -5.3140 O.co2     1 COA         0.3195
     19 O9A        -3.2466    2.7257   -3.9151 O.co2     1 COA         0.3195
     20 C4B        -0.5713    2.1464   -2.5855 C.3       1 COA         0.1111
     21 O4B         0.7211    1.7136   -3.0526 O.3       1 COA        -0.1436
     22 C5B        -0.3655    2.9745   -1.3239 C.3       1 COA         0.1504
     23 O5B         0.3986    4.1249   -1.6460 O.3       1 COA         0.1618
     24 P1A         0.7670    5.1936   -0.4641 P.3       1 COA        -1.1062
     25 O1A         1.1289    6.5260   -1.0837 O.co2     1 COA         0.3195
     26 O2A         1.6876    4.5161    0.5275 O.co2     1 COA         0.3195
     27 O3A        -0.6886    5.3125    0.2679 O.3       1 COA         0.4672
     28 P2A        -1.1429    6.2040    1.5594 P.3       1 COA        -1.1062
     29 O4A        -2.6377    6.0612    1.7476 O.co2     1 COA         0.3195
     30 O5A        -0.1888    5.9134    2.6974 O.co2     1 COA         0.3195
     31 O6A        -0.8065    7.6957    0.9792 O.3       1 COA         0.1618
     32 CBP        -1.0090    9.5771   -0.5793 C.3       1 COA         0.0000
     33 CCP        -1.4652    8.1470   -0.1994 C.3       1 COA         0.1504
     34 CDP         0.5182    9.5632   -0.8289 C.3       1 COA         0.1179
     35 CEP        -1.6888   10.0085   -1.8940 C.3       1 COA         0.1179
     36 CAP        -1.3149   10.5877    0.5658 C.3       1 COA         0.0611
     37 OAP        -1.2622    9.9213    1.8245 O.3       1 COA        -0.2728
     38 C9P        -0.3407   11.7608    0.6502 C.2       1 COA         0.3561
     39 O9P         0.7104   11.6974    1.2852 O.2       1 COA        -0.2391
     40 N8P        -0.7630   12.8619   -0.0771 N.am      1 COA        -0.1909
     41 C7P         0.0024   14.0836   -0.1712 C.3       1 COA         0.1160
     42 C6P        -0.3956   15.0264    0.9551 C.3       1 COA         0.0286
     43 C5P         0.3740   16.3344    0.9148 C.2       1 COA         0.3561
     44 O5P         1.5171   16.4285    0.4761 O.2       1 COA        -0.2391
     45 N4P        -0.3737   17.3823    1.4316 N.am      1 COA        -0.1909
     46 C3P         0.1226   18.7368    1.5132 C.3       1 COA         0.1160
     47 C2P        -0.1872   19.5531    0.2690 C.3       1 COA         0.2607
     48 S1P        -1.9741   19.6843   -0.0431 S.3       1 COA        -0.3539
     49 H2A         3.1287    2.0232    1.3259 H         1 COA        -0.1369
     50 H61A        7.0472   -0.1189    0.2098 H         1 COA         0.2048
     51 H62A        6.7069   -0.9256   -1.2976 H         1 COA         0.2048
     52 H8A         2.8628   -1.2932   -4.1762 H         1 COA        -0.1292
     53 H1B         0.7316   -0.1451   -3.9582 H         1 COA        -0.0393
     54 H2B         0.0098    0.1350   -0.9357 H         1 COA        -0.0393
     55 H3B        -2.1756    1.0002   -1.6070 H         1 COA        -0.0393
     56 H4B        -1.0101    2.7804   -3.3646 H         1 COA        -0.0393
     57 H51A        0.1721    2.3946   -0.5677 H         1 COA        -0.0393
     58 H52A       -1.3279    3.2941   -0.9132 H         1 COA        -0.0393
     59 H121       -1.2324    7.4355   -0.9984 H         1 COA        -0.0393
     60 H122       -2.5440    8.1138   -0.0133 H         1 COA        -0.0393
     61 H131        0.8796   10.5616   -1.1013 H         1 COA        -0.0393
     62 H132        0.7886    8.8842   -1.6454 H         1 COA        -0.0393
     63 H133        1.0681    9.2399    0.0618 H         1 COA        -0.0393
     64 H141       -1.3855   11.0192   -2.1904 H         1 COA        -0.0393
     65 H142       -2.7797   10.0132   -1.7903 H         1 COA        -0.0393
     66 H143       -1.4280    9.3402   -2.7211 H         1 COA        -0.0393
     67 H10        -2.3323   10.9827    0.4518 H         1 COA        -0.0393
     68 HO1        -0.3644    9.5651    1.9111 H         1 COA         0.2010
     69 HN8        -1.6351   12.8136   -0.5951 H         1 COA         0.0865
     70 H71         1.0693   13.8448   -0.1161 H         1 COA        -0.0393
     71 H72        -0.1791   14.5477   -1.1458 H         1 COA        -0.0393
     72 H61        -0.2157   14.5497    1.9267 H         1 COA        -0.0393
     73 H62        -1.4673   15.2540    0.8946 H         1 COA        -0.0393
     74 HN4        -1.3125   17.1887    1.7677 H         1 COA         0.0865
     75 H31        -0.3655   19.1885    2.3807 H         1 COA        -0.0393
     76 H32         1.1949   18.6844    1.7178 H         1 COA        -0.0393
     77 H21         0.2257   20.5638    0.3495 H         1 COA        -0.0393
     78 H22         0.2663   19.0702   -0.6022 H         1 COA        -0.0393
     79 HS1        -2.2732   20.2867    1.1154 H         1 COA         0.1718
@<TRIPOS>BOND
     1    1    2 ar
     2    1    6 ar
     3    2    3 ar
     4    2   49 1
     5    3    4 ar
     6    4    5 ar
     7    4   10 ar
     8    5    6 ar
     9    5    8 ar
    10    6    7 1
    11    7   50 1
    12    7   51 1
    13    8    9 ar
    14    9   10 ar
    15    9   52 1
    16   10   11 1
    17   11   12 1
    18   11   21 1
    19   11   53 1
    20   12   13 1
    21   12   14 1
    22   12   54 1
    23   14   15 1
    24   14   20 1
    25   14   55 1
    26   15   16 1
    27   16   17 2
    28   16   18 1
    29   16   19 1
    30   20   21 1
    31   20   22 1
    32   20   56 1
    33   22   23 1
    34   22   57 1
    35   22   58 1
    36   23   24 1
    37   24   25 2
    38   24   26 1
    39   24   27 1
    40   27   28 1
    41   28   29 2
    42   28   30 1
    43   28   31 1
    44   31   33 1
    45   32   33 1
    46   32   34 1
    47   32   35 1
    48   32   36 1
    49   33   59 1
    50   33   60 1
    51   34   61 1
    52   34   62 1
    53   34   63 1
    54   35   64 1
    55   35   65 1
    56   35   66 1
    57   36   37 1
    58   36   38 1
    59   36   67 1
    60   37   68 1
    61   38   39 2
    62   38   40 am
    63   40   41 1
    64   40   69 1
    65   41   42 1
    66   41   70 1
    67   41   71 1
    68   42   43 1
    69   42   72 1
    70   42   73 1
    71   43   44 2
    72   43   45 am
    73   45   46 1
    74   45   74 1
    75   46   47 1
    76   46   75 1
    77   46   76 1
    78   47   48 1
    79   47   77 1
    80   47   78 1
    81   48   79 1
@<TRIPOS>SUBSTRUCTURE
     1 COA         1 GROUP 0 A     ****
@<TRIPOS>MOLECULE
[5-(6-aminopurin-9-yl)-2-[[[[3-hydroxy-2,2-dimethyl-4-oxo-4-[[3-oxo-3-(2-sulfanylethylamino)propyl]amino]butoxy]-oxido-phosphoryl]oxy-oxido-phosphoryl]oxymethyl]-4-oxido-tetrahydrofuran-3-yl] phosphate
   79    81     1     0     0
SMALL
USER_CHARGES

@<TRIPOS>ATOM
      1 N1A        -3.9039    2.4517    1.8283 N.ar      1 COA        -0.5260
      2 C2A        -3.3295    3.2614    0.9063 C.ar      1 COA         0.6629
      3 N3A        -2.9870    2.9823   -0.3704 N.ar      1 COA        -0.5260
      4 C4A        -3.2951    1.7119   -0.6714 C.ar      1 COA         0.5212
      5 C5A        -3.8810    0.7714    0.1608 C.ar      1 COA         0.0088
      6 C6A        -4.1878    1.1807    1.4546 C.ar      1 COA         0.5212
      7 N6A        -4.7836    0.2924    2.3662 N.pl3     1 COA        -0.6025
      8 N7A        -4.0438   -0.4230   -0.4949 N.2       1 COA        -0.4271
      9 C8A        -3.5659   -0.2124   -1.7036 C.ar      1 COA         0.5691
     10 N9A        -3.1003    1.0663   -1.8591 N.pl3     1 COA        -0.5033
     11 C1B        -2.4828    1.6438   -3.1175 C.3       1 COA         0.2693
     12 C2B        -3.1527    2.8675   -3.7856 C.3       1 COA         0.2008
     13 O2B        -4.0894    2.4850   -4.6336 O.co2     1 COA        -0.1615
     14 C3B        -1.9491    3.4718   -4.5260 C.3       1 COA         0.1111
     15 O3B        -1.5961    2.7353   -5.7012 O.3       1 COA         0.1618
     16 P3B        -0.6948    3.4882   -6.8546 P.3       1 COA        -1.1921
     17 O7A        -1.5419    4.6766   -7.3000 O.co2     1 COA         0.3195
     18 O8A        -0.5270    2.4117   -7.9228 O.co2     1 COA         0.3195
     19 O9A         0.6037    3.8701   -6.1501 O.co2     1 COA         0.3195
     20 C4B        -0.8155    3.2705   -3.5257 C.3       1 COA         0.1111
     21 O4B        -1.1344    2.0698   -2.7962 O.3       1 COA        -0.1436
     22 C5B        -0.6774    4.4099   -2.5246 C.3       1 COA         0.1504
     23 O5B         0.3986    4.1249   -1.6460 O.3       1 COA         0.1618
     24 P1A         0.7670    5.1936   -0.4641 P.3       1 COA        -1.1062
     25 O1A         1.1289    6.5260   -1.0837 O.co2     1 COA         0.3195
     26 O2A         1.6876    4.5161    0.5275 O.co2     1 COA         0.3195
     27 O3A        -0.6886    5.3125    0.2679 O.3       1 COA         0.4672
     28 P2A        -1.1429    6.2040    1.5594 P.3       1 COA        -1.1062
     29 O4A        -2.6377    6.0612    1.7476 O.co2     1 COA         0.3195
     30 O5A        -0.1888    5.9134    2.6974 O.co2     1 COA         0.3195
     31 O6A        -0.8065    7.6957    0.9792 O.3       1 COA         0.1618
     32 CBP        -1.0090    9.5771   -0.5793 C.3       1 COA         0.0000
     33 CCP        -1.4652    8.1470   -0.1994 C.3       1 COA         0.1504
     34 CDP         0.5182    9.5632   -0.8289 C.3       1 COA         0.1179
     35 CEP        -1.6888   10.0085   -1.8940 C.3       1 COA         0.1179
     36 CAP        -1.3149   10.5877    0.5658 C.3       1 COA         0.0611
     37 OAP        -0.8841   11.8921    0.1862 O.3       1 COA        -0.2728
     38 C9P        -2.7940   10.7032    0.9282 C.2       1 COA         0.3561
     39 O9P        -3.5554   11.4723    0.3443 O.2       1 COA        -0.2391
     40 N8P        -3.1652    9.8410    1.9474 N.am      1 COA        -0.1909
     41 C7P        -4.5178    9.7490    2.4468 C.3       1 COA         0.1160
     42 C6P        -4.7105   10.7345    3.5903 C.3       1 COA         0.0286
     43 C5P        -3.7673   10.4683    4.7497 C.2       1 COA         0.3561
     44 O5P        -3.3490    9.3490    5.0325 O.2       1 COA        -0.2391
     45 N4P        -3.4529   11.6357    5.4299 N.am      1 COA        -0.1909
     46 C3P        -2.5751   11.6649    6.5771 C.3       1 COA         0.1160
     47 C2P        -1.1181   11.8738    6.1982 C.3       1 COA         0.2607
     48 S1P        -0.8527   13.4413    5.3148 S.3       1 COA        -0.3539
     49 H2A        -3.1164    4.2717    1.2395 H         1 COA        -0.1369
     50 H61A       -4.9530    0.5922    3.3076 H         1 COA         0.2048
     51 H62A       -4.9456   -0.6585    2.0932 H         1 COA         0.2048
     52 H8A        -3.5298   -0.9412   -2.5018 H         1 COA        -0.1292
     53 H1B        -2.3698    0.7525   -3.8030 H         1 COA        -0.0393
     54 H2B        -3.4073    3.5789   -2.9846 H         1 COA        -0.0393
     55 H3B        -2.0891    4.5191   -4.8158 H         1 COA        -0.0393
     56 H4B         0.1478    3.1100   -4.0235 H         1 COA        -0.0393
     57 H51A       -1.5937    4.5171   -1.9365 H         1 COA        -0.0393
     58 H52A       -0.4707    5.3519   -3.0411 H         1 COA        -0.0393
     59 H121       -1.2324    7.4355   -0.9984 H         1 COA        -0.0393
     60 H122       -2.5440    8.1138   -0.0133 H         1 COA        -0.0393
     61 H131        0.8796   10.5616   -1.1013 H         1 COA        -0.0393
     62 H132        0.7886    8.8842   -1.6454 H         1 COA        -0.0393
     63 H133        1.0681    9.2399    0.0618 H         1 COA        -0.0393
     64 H141       -1.3855   11.0192   -2.1904 H         1 COA        -0.0393
     65 H142       -2.7797   10.0132   -1.7903 H         1 COA        -0.0393
     66 H143       -1.4280    9.3402   -2.7211 H         1 COA        -0.0393
     67 H10        -0.7524   10.3112    1.4665 H         1 COA        -0.0393
     68 HO1        -1.3767   12.1229   -0.6167 H         1 COA         0.2010
     69 HN8        -2.4720    9.2197    2.3532 H         1 COA         0.0865
     70 H71        -5.2173    9.9612    1.6320 H         1 COA        -0.0393
     71 H72        -4.7082    8.7249    2.7833 H         1 COA        -0.0393
     72 H61        -5.7407   10.6811    3.9639 H         1 COA        -0.0393
     73 H62        -4.5426   11.7595    3.2365 H         1 COA        -0.0393
     74 HN4        -3.8581   12.5093    5.1069 H         1 COA         0.0865
     75 H31        -2.9160   12.4955    7.2006 H         1 COA        -0.0393
     76 H32        -2.7291   10.7378    7.1352 H         1 COA        -0.0393
     77 H21        -0.4761   11.8627    7.0849 H         1 COA        -0.0393
     78 H22        -0.7968   11.0628    5.5371 H         1 COA        -0.0393
     79 HS1        -1.6675   13.1619    4.2890 H         1 COA         0.1718
@<TRIPOS>BOND
     1    1    2 ar
     2    1    6 ar
     3    2    3 ar
     4    2   49 1
     5    3    4 ar
     6    4    5 ar
     7    4   10 ar
     8    5    6 ar
     9    5    8 ar
    10    6    7 1
    11    7   50 1
    12    7   51 1
    13    8    9 ar
    14    9   10 ar
    15    9   52 1
    16   10   11 1
    17   11   12 1
    18   11   21 1
    19   11   53 1
    20   12   13 1
    21   12   14 1
    22   12   54 1
    23   14   15 1
    24   14   20 1
    25   14   55 1
    26   15   16 1
    27   16   17 2
    28   16   18 1
    29   16   19 1
    30   20   21 1
    31   20   22 1
    32   20   56 1
    33   22   23 1
    34   22   57 1
    35   22   58 1
    36   23   24 1
    37   24   25 2
    38   24   26 1
    39   24   27 1
    40   27   28 1
    41   28   29 2
    42   28   30 1
    43   28   31 1
    44   31   33 1
    45   32   33 1
    46   32   34 1
    47   32   35 1
    48   32   36 1
    49   33   59 1
    50   33   60 1
    51   34   61 1
    52   34   62 1
    53   34   63 1
    54   35   64 1
    55   35   65 1
    56   35   66 1
    57   36   37 1
    58   36   38 1
    59   36   67 1
    60   37   68 1
    61   38   39 2
    62   38   40 am
    63   40   41 1
    64   40   69 1
    65   41   42 1
    66   41   70 1
    67   41   71 1
    68   42   43 1
    69   42   72 1
    70   42   73 1
    71   43   44 2
    72   43   45 am
    73   45   46 1
    74   45   74 1
    75   46   47 1
    76   46   75 1
    77   46   76 1
    78   47   48 1
    79   47   77 1
    80   47   78 1
    81   48   79 1
@<TRIPOS>SUBSTRUCTURE
     1 COA         1 GROUP 0 A     ****
@<TRIPOS>MOLECULE
[5-(6-aminopurin-9-yl)-2-[[[[3-hydroxy-2,2-dimethyl-4-oxo-4-[[3-oxo-3-(2-sulfanylethylamino)propyl]amino]butoxy]-oxido-phosphoryl]oxy-oxido-phosphoryl]oxymethyl]-4-oxido-tetrahydrofuran-3-yl] phosphate
   79    81     1     0     0
SMALL
USER_CHARGES

@<TRIPOS>ATOM
      1 N1A         6.3197    3.3711    0.1967 N.ar      1 COA        -0.5260
      2 C2A         5.0033    3.3256    0.5141 C.ar      1 COA         0.6629
      3 N3A         4.0730    2.4196    0.1418 N.ar      1 COA        -0.5260
      4 C4A         4.6208    1.4811   -0.6447 C.ar      1 COA         0.5212
      5 C5A         5.9423    1.3962   -1.0530 C.ar      1 COA         0.0088
      6 C6A         6.8050    2.3902   -0.6021 C.ar      1 COA         0.5212
      7 N6A         8.1621    2.3826   -0.9671 N.pl3     1 COA        -0.6025
      8 N7A         6.1335    0.2987   -1.8543 N.2       1 COA        -0.4271
      9 C8A         4.9500   -0.2731   -1.9316 C.ar      1 COA         0.5691
     10 N9A         4.0006    0.4065   -1.2155 N.pl3     1 COA        -0.5033
     11 C1B         2.5376    0.0288   -1.0907 C.3       1 COA         0.2693
     12 C2B         1.9579   -0.2640    0.3131 C.3       1 COA         0.2008
     13 O2B         2.1299   -1.5323    0.6368 O.co2     1 COA        -0.1615
     14 C3B         0.4729    0.0487    0.0699 C.3       1 COA         0.1111
     15 O3B        -0.1943   -0.9780   -0.6709 O.3       1 COA         0.1618
     16 P3B        -1.8364   -1.0586   -0.5907 P.3       1 COA        -1.1921
     17 O7A        -2.1459   -1.2889    0.8856 O.co2     1 COA         0.3195
     18 O8A        -2.1706   -2.2476   -1.4866 O.co2     1 COA         0.3195
     19 O9A        -2.3217    0.2823   -1.1335 O.co2     1 COA         0.3195
     20 C4B         0.5412    1.2713   -0.8394 C.3       1 COA         0.1111
     21 O4B         1.7485    1.1278   -1.6124 O.3       1 COA        -0.1436
     22 C5B         0.6184    2.5901   -0.0816 C.3       1 COA         0.1504
     23 O5B         0.6777    3.6562   -1.0149 O.3       1 COA         0.1618
     24 P1A         0.7670    5.1936   -0.4641 P.3       1 COA        -1.1062
     25 O1A         0.8194    6.1476   -1.6376 O.co2     1 COA         0.3195
     26 O2A         1.8029    5.2507    0.6375 O.co2     1 COA         0.3195
     27 O3A        -0.6886    5.3125    0.2679 O.3       1 COA         0.4672
     28 P2A        -1.1429    6.2040    1.5594 P.3       1 COA        -1.1062
     29 O4A        -2.6377    6.0612    1.7476 O.co2     1 COA         0.3195
     30 O5A        -0.1888    5.9134    2.6974 O.co2     1 COA         0.3195
     31 O6A        -0.8065    7.6957    0.9792 O.3       1 COA         0.1618
     32 CBP        -1.0463    9.4480   -0.7182 C.3       1 COA         0.0000
     33 CCP        -1.7297    8.3208    0.0940 C.3       1 COA         0.1504
     34 CDP         0.1097    8.8359   -1.5452 C.3       1 COA         0.1179
     35 CEP        -2.0542   10.0578   -1.7127 C.3       1 COA         0.1179
     36 CAP        -0.4581   10.5415    0.2222 C.3       1 COA         0.0611
     37 OAP         0.1628   11.5628   -0.5541 O.3       1 COA        -0.2728
     38 C9P        -1.4903   11.2331    1.1103 C.2       1 COA         0.3561
     39 O9P        -2.6736   11.3294    0.7898 O.2       1 COA        -0.2391
     40 N8P        -0.9493   11.7003    2.2973 N.am      1 COA        -0.1909
     41 C7P        -1.7337   12.3668    3.3111 C.3       1 COA         0.1160
     42 C6P        -1.7413   13.8661    3.0506 C.3       1 COA         0.0286
     43 C5P        -0.3465   14.4650    3.0730 C.2       1 COA         0.3561
     44 O5P         0.5674   14.0150    3.7587 O.2       1 COA        -0.2391
     45 N4P        -0.2503   15.5654    2.2338 N.am      1 COA        -0.1909
     46 C3P         0.9681   16.3242    2.0691 C.3       1 COA         0.1160
     47 C2P         1.8440   15.7945    0.9455 C.3       1 COA         0.2607
     48 S1P         3.3736   16.7587    0.7496 S.3       1 COA        -0.3539
     49 H2A         4.6492    4.1260    1.1552 H         1 COA        -0.1369
     50 H61A        8.7564    3.1335   -0.6708 H         1 COA         0.2048
     51 H62A        8.4991    1.6788   -1.5963 H         1 COA         0.2048
     52 H8A         4.7208   -1.1726   -2.4865 H         1 COA        -0.1292
     53 H1B         2.4085   -0.8200   -1.8256 H         1 COA        -0.0393
     54 H2B         2.3286    0.5212    0.9904 H         1 COA        -0.0393
     55 H3B        -0.0977    0.2245    0.9885 H         1 COA        -0.0393
     56 H4B        -0.2996    1.3083   -1.5416 H         1 COA        -0.0393
     57 H51A        1.5144    2.6204    0.5455 H         1 COA        -0.0393
     58 H52A       -0.2654    2.7227    0.5494 H         1 COA        -0.0393
     59 H121       -2.1262    7.5446   -0.5686 H         1 COA        -0.0393
     60 H122       -2.5562    8.7139    0.6956 H         1 COA        -0.0393
     61 H131        0.6194    9.6060   -2.1356 H         1 COA        -0.0393
     62 H132       -0.2524    8.0744   -2.2449 H         1 COA        -0.0393
     63 H133        0.8566    8.3597   -0.9005 H         1 COA        -0.0393
     64 H141       -1.5995   10.8607   -2.3043 H         1 COA        -0.0393
     65 H142       -2.9149   10.4873   -1.1878 H         1 COA        -0.0393
     66 H143       -2.4255    9.3094   -2.4205 H         1 COA        -0.0393
     67 H10         0.3192   10.1040    0.8613 H         1 COA        -0.0393
     68 HO1        -0.5280   11.9349   -1.1241 H         1 COA         0.2010
     69 HN8         0.0365   11.5508    2.4898 H         1 COA         0.0865
     70 H71        -2.7528   11.9673    3.2979 H         1 COA        -0.0393
     71 H72        -1.3092   12.1480    4.2960 H         1 COA        -0.0393
     72 H61        -2.3487   14.3769    3.8082 H         1 COA        -0.0393
     73 H62        -2.1920   14.0761    2.0725 H         1 COA        -0.0393
     74 HN4        -1.0736   15.8505    1.7116 H         1 COA         0.0865
     75 H31         0.6609   17.3489    1.8443 H         1 COA        -0.0393
     76 H32         1.4869   16.3300    3.0310 H         1 COA        -0.0393
     77 H21         2.1140   14.7476    1.1182 H         1 COA        -0.0393
     78 H22         1.2938   15.8511    0.0011 H         1 COA        -0.0393
     79 HS1         3.8405   16.5301    1.9842 H         1 COA         0.1718
@<TRIPOS>BOND
     1    1    2 ar
     2    1    6 ar
     3    2    3 ar
     4    2   49 1
     5    3    4 ar
     6    4    5 ar
     7    4   10 ar
     8    5    6 ar
     9    5    8 ar
    10    6    7 1
    11    7   50 1
    12    7   51 1
    13    8    9 ar
    14    9   10 ar
    15    9   52 1
    16   10   11 1
    17   11   12 1
    18   11   21 1
    19   11   53 1
    20   12   13 1
    21   12   14 1
    22   12   54 1
    23   14   15 1
    24   14   20 1
    25   14   55 1
    26   15   16 1
    27   16   17 2
    28   16   18 1
    29   16   19 1
    30   20   21 1
    31   20   22 1
    32   20   56 1
    33   22   23 1
    34   22   57 1
    35   22   58 1
    36   23   24 1
    37   24   25 2
    38   24   26 1
    39   24   27 1
    40   27   28 1
    41   28   29 2
    42   28   30 1
    43   28   31 1
    44   31   33 1
    45   32   33 1
    46   32   34 1
    47   32   35 1
    48   32   36 1
    49   33   59 1
    50   33   60 1
    51   34   61 1
    52   34   62 1
    53   34   63 1
    54   35   64 1
    55   35   65 1
    56   35   66 1
    57   36   37 1
    58   36   38 1
    59   36   67 1
    60   37   68 1
    61   38   39 2
    62   38   40 am
    63   40   41 1
    64   40   69 1
    65   41   42 1
    66   41   70 1
    67   41   71 1
    68   42   43 1
    69   42   72 1
    70   42   73 1
    71   43   44 2
    72   43   45 am
    73   45   46 1
    74   45   74 1
    75   46   47 1
    76   46   75 1
    77   46   76 1
    78   47   48 1
    79   47   77 1
    80   47   78 1
    81   48   79 1
@<TRIPOS>SUBSTRUCTURE
     1 COA         1 GROUP 0 A     ****
@<TRIPOS>MOLECULE
[5-(6-aminopurin-9-yl)-2-[[[[3-hydroxy-2,2-dimethyl-4-oxo-4-[[3-oxo-3-(2-sulfanylethylamino)propyl]amino]butoxy]-oxido-phosphoryl]oxy-oxido-phosphoryl]oxymethyl]-4-oxido-tetrahydrofuran-3-yl] phosphate
   79    81     1     0     0
SMALL
USER_CHARGES

@<TRIPOS>ATOM
      1 N1A        -3.9039    2.4517    1.8283 N.ar      1 COA        -0.5260
      2 C2A        -3.3295    3.2614    0.9063 C.ar      1 COA         0.6629
      3 N3A        -2.9870    2.9823   -0.3704 N.ar      1 COA        -0.5260
      4 C4A        -3.2951    1.7119   -0.6714 C.ar      1 COA         0.5212
      5 C5A        -3.8810    0.7714    0.1608 C.ar      1 COA         0.0088
      6 C6A        -4.1878    1.1807    1.4546 C.ar      1 COA         0.5212
      7 N6A        -4.7836    0.2924    2.3662 N.pl3     1 COA        -0.6025
      8 N7A        -4.0438   -0.4230   -0.4949 N.2       1 COA        -0.4271
      9 C8A        -3.5659   -0.2124   -1.7036 C.ar      1 COA         0.5691
     10 N9A        -3.1003    1.0663   -1.8591 N.pl3     1 COA        -0.5033
     11 C1B        -2.4828    1.6438   -3.1175 C.3       1 COA         0.2693
     12 C2B        -3.1527    2.8675   -3.7856 C.3       1 COA         0.2008
     13 O2B        -4.0894    2.4850   -4.6336 O.co2     1 COA        -0.1615
     14 C3B        -1.9491    3.4718   -4.5260 C.3       1 COA         0.1111
     15 O3B        -1.5961    2.7353   -5.7012 O.3       1 COA         0.1618
     16 P3B        -0.6948    3.4882   -6.8546 P.3       1 COA        -1.1921
     17 O7A        -1.5419    4.6766   -7.3000 O.co2     1 COA         0.3195
     18 O8A        -0.5270    2.4117   -7.9228 O.co2     1 COA         0.3195
     19 O9A         0.6037    3.8701   -6.1501 O.co2     1 COA         0.3195
     20 C4B        -0.8155    3.2705   -3.5257 C.3       1 COA         0.1111
     21 O4B        -1.1344    2.0698   -2.7962 O.3       1 COA        -0.1436
     22 C5B        -0.6774    4.4099   -2.5246 C.3       1 COA         0.1504
     23 O5B         0.3986    4.1249   -1.6460 O.3       1 COA         0.1618
     24 P1A         0.7670    5.1936   -0.4641 P.3       1 COA        -1.1062
     25 O1A         1.1289    6.5260   -1.0837 O.co2     1 COA         0.3195
     26 O2A         1.6876    4.5161    0.5275 O.co2     1 COA         0.3195
     27 O3A        -0.6886    5.3125    0.2679 O.3       1 COA         0.4672
     28 P2A        -1.1429    6.2040    1.5594 P.3       1 COA        -1.1062
     29 O4A        -2.6377    6.0612    1.7476 O.co2     1 COA         0.3195
     30 O5A        -0.1888    5.9134    2.6974 O.co2     1 COA         0.3195
     31 O6A        -0.8065    7.6957    0.9792 O.3       1 COA         0.1618
     32 CBP        -1.0090    9.5771   -0.5793 C.3       1 COA         0.0000
     33 CCP        -1.4652    8.1470   -0.1994 C.3       1 COA         0.1504
     34 CDP         0.5182    9.5632   -0.8289 C.3       1 COA         0.1179
     35 CEP        -1.6888   10.0085   -1.8940 C.3       1 COA         0.1179
     36 CAP        -1.3149   10.5877    0.5658 C.3       1 COA         0.0611
     37 OAP        -0.8841   11.8921    0.1862 O.3       1 COA        -0.2728
     38 C9P        -2.7940   10.7032    0.9282 C.2       1 COA         0.3561
     39 O9P        -3.5554   11.4723    0.3443 O.2       1 COA        -0.2391
     40 N8P        -3.1652    9.8410    1.9474 N.am      1 COA        -0.1909
     41 C7P        -4.5178    9.7490    2.4468 C.3       1 COA         0.1160
     42 C6P        -5.2856    8.6982    1.6581 C.3       1 COA         0.0286
     43 C5P        -6.7198    8.5504    2.1335 C.2       1 COA         0.3561
     44 O5P        -7.1941    9.2100    3.0543 O.2       1 COA        -0.2391
     45 N4P        -7.4027    7.5889    1.4032 N.am      1 COA        -0.1909
     46 C3P        -8.7846    7.2479    1.6513 C.3       1 COA         0.1160
     47 C2P        -9.6760    7.4881    0.4439 C.3       1 COA         0.2607
     48 S1P        -9.6687    9.2284   -0.0840 S.3       1 COA        -0.3539
     49 H2A        -3.1164    4.2717    1.2395 H         1 COA        -0.1369
     50 H61A       -4.9530    0.5922    3.3076 H         1 COA         0.2048
     51 H62A       -4.9456   -0.6585    2.0932 H         1 COA         0.2048
     52 H8A        -3.5298   -0.9412   -2.5018 H         1 COA        -0.1292
     53 H1B        -2.3698    0.7525   -3.8030 H         1 COA        -0.0393
     54 H2B        -3.4073    3.5789   -2.9846 H         1 COA        -0.0393
     55 H3B        -2.0891    4.5191   -4.8158 H         1 COA        -0.0393
     56 H4B         0.1478    3.1100   -4.0235 H         1 COA        -0.0393
     57 H51A       -1.5937    4.5171   -1.9365 H         1 COA        -0.0393
     58 H52A       -0.4707    5.3519   -3.0411 H         1 COA        -0.0393
     59 H121       -1.2324    7.4355   -0.9984 H         1 COA        -0.0393
     60 H122       -2.5440    8.1138   -0.0133 H         1 COA        -0.0393
     61 H131        0.8796   10.5616   -1.1013 H         1 COA        -0.0393
     62 H132        0.7886    8.8842   -1.6454 H         1 COA        -0.0393
     63 H133        1.0681    9.2399    0.0618 H         1 COA        -0.0393
     64 H141       -1.3855   11.0192   -2.1904 H         1 COA        -0.0393
     65 H142       -2.7797   10.0132   -1.7903 H         1 COA        -0.0393
     66 H143       -1.4280    9.3402   -2.7211 H         1 COA        -0.0393
     67 H10        -0.7524   10.3112    1.4665 H         1 COA        -0.0393
     68 HO1        -1.3767   12.1229   -0.6167 H         1 COA         0.2010
     69 HN8        -2.4720    9.2197    2.3532 H         1 COA         0.0865
     70 H71        -4.4918    9.4911    3.5103 H         1 COA        -0.0393
     71 H72        -5.0009   10.7274    2.3591 H         1 COA        -0.0393
     72 H61        -4.7899    7.7236    1.7475 H         1 COA        -0.0393
     73 H62        -5.3000    8.9626    0.5933 H         1 COA        -0.0393
     74 HN4        -6.9090    7.1027    0.6604 H         1 COA         0.0865
     75 H31        -8.7946    6.1860    1.9107 H         1 COA        -0.0393
     76 H32        -9.1127    7.8131    2.5274 H         1 COA        -0.0393
     77 H21        -9.3657    6.8676   -0.4031 H         1 COA        -0.0393
     78 H22       -10.7072    7.2236    0.6978 H         1 COA        -0.0393
     79 HS1       -10.1356    9.7250    1.0691 H         1 COA         0.1718
@<TRIPOS>BOND
     1    1    2 ar
     2    1    6 ar
     3    2    3 ar
     4    2   49 1
     5    3    4 ar
     6    4    5 ar
     7    4   10 ar
     8    5    6 ar
     9    5    8 ar
    10    6    7 1
    11    7   50 1
    12    7   51 1
    13    8    9 ar
    14    9   10 ar
    15    9   52 1
    16   10   11 1
    17   11   12 1
    18   11   21 1
    19   11   53 1
    20   12   13 1
    21   12   14 1
    22   12   54 1
    23   14   15 1
    24   14   20 1
    25   14   55 1
    26   15   16 1
    27   16   17 2
    28   16   18 1
    29   16   19 1
    30   20   21 1
    31   20   22 1
    32   20   56 1
    33   22   23 1
    34   22   57 1
    35   22   58 1
    36   23   24 1
    37   24   25 2
    38   24   26 1
    39   24   27 1
    40   27   28 1
    41   28   29 2
    42   28   30 1
    43   28   31 1
    44   31   33 1
    45   32   33 1
    46   32   34 1
    47   32   35 1
    48   32   36 1
    49   33   59 1
    50   33   60 1
    51   34   61 1
    52   34   62 1
    53   34   63 1
    54   35   64 1
    55   35   65 1
    56   35   66 1
    57   36   37 1
    58   36   38 1
    59   36   67 1
    60   37   68 1
    61   38   39 2
    62   38   40 am
    63   40   41 1
    64   40   69 1
    65   41   42 1
    66   41   70 1
    67   41   71 1
    68   42   43 1
    69   42   72 1
    70   42   73 1
    71   43   44 2
    72   43   45 am
    73   45   46 1
    74   45   74 1
    75   46   47 1
    76   46   75 1
    77   46   76 1
    78   47   48 1
    79   47   77 1
    80   47   78 1
    81   48   79 1
@<TRIPOS>SUBSTRUCTURE
     1 COA         1 GROUP 0 A     ****
@<TRIPOS>MOLECULE
[5-(6-aminopurin-9-yl)-2-[[[[3-hydroxy-2,2-dimethyl-4-oxo-4-[[3-oxo-3-(2-sulfanylethylamino)propyl]amino]butoxy]-oxido-phosphoryl]oxy-oxido-phosphoryl]oxymethyl]-4-oxido-tetrahydrofuran-3-yl] phosphate
   79    81     1     0     0
SMALL
USER_CHARGES

@<TRIPOS>ATOM
      1 N1A        -3.9039    2.4517    1.8283 N.ar      1 COA        -0.5260
      2 C2A        -3.3295    3.2614    0.9063 C.ar      1 COA         0.6629
      3 N3A        -2.9870    2.9823   -0.3704 N.ar      1 COA        -0.5260
      4 C4A        -3.2951    1.7119   -0.6714 C.ar      1 COA         0.5212
      5 C5A        -3.8810    0.7714    0.1608 C.ar      1 COA         0.0088
      6 C6A        -4.1878    1.1807    1.4546 C.ar      1 COA         0.5212
      7 N6A        -4.7836    0.2924    2.3662 N.pl3     1 COA        -0.6025
      8 N7A        -4.0438   -0.4230   -0.4949 N.2       1 COA        -0.4271
      9 C8A        -3.5659   -0.2124   -1.7036 C.ar      1 COA         0.5691
     10 N9A        -3.1003    1.0663   -1.8591 N.pl3     1 COA        -0.5033
     11 C1B        -2.4828    1.6438   -3.1175 C.3       1 COA         0.2693
     12 C2B        -3.1527    2.8675   -3.7856 C.3       1 COA         0.2008
     13 O2B        -4.0894    2.4850   -4.6336 O.co2     1 COA        -0.1615
     14 C3B        -1.9491    3.4718   -4.5260 C.3       1 COA         0.1111
     15 O3B        -1.5961    2.7353   -5.7012 O.3       1 COA         0.1618
     16 P3B        -0.6948    3.4882   -6.8546 P.3       1 COA        -1.1921
     17 O7A        -1.5419    4.6766   -7.3000 O.co2     1 COA         0.3195
     18 O8A        -0.5270    2.4117   -7.9228 O.co2     1 COA         0.3195
     19 O9A         0.6037    3.8701   -6.1501 O.co2     1 COA         0.3195
     20 C4B        -0.8155    3.2705   -3.5257 C.3       1 COA         0.1111
     21 O4B        -1.1344    2.0698   -2.7962 O.3       1 COA        -0.1436
     22 C5B        -0.6774    4.4099   -2.5246 C.3       1 COA         0.1504
     23 O5B         0.3986    4.1249   -1.6460 O.3       1 COA         0.1618
     24 P1A         0.7670    5.1936   -0.4641 P.3       1 COA        -1.1062
     25 O1A         1.1289    6.5260   -1.0837 O.co2     1 COA         0.3195
     26 O2A         1.6876    4.5161    0.5275 O.co2     1 COA         0.3195
     27 O3A        -0.6886    5.3125    0.2679 O.3       1 COA         0.4672
     28 P2A        -1.1429    6.2040    1.5594 P.3       1 COA        -1.1062
     29 O4A        -2.6377    6.0612    1.7476 O.co2     1 COA         0.3195
     30 O5A        -0.1888    5.9134    2.6974 O.co2     1 COA         0.3195
     31 O6A        -0.8065    7.6957    0.9792 O.3       1 COA         0.1618
     32 CBP        -1.0090    9.5771   -0.5793 C.3       1 COA         0.0000
     33 CCP        -1.4652    8.1470   -0.1994 C.3       1 COA         0.1504
     34 CDP         0.5182    9.5632   -0.8289 C.3       1 COA         0.1179
     35 CEP        -1.6888   10.0085   -1.8940 C.3       1 COA         0.1179
     36 CAP        -1.3149   10.5877    0.5658 C.3       1 COA         0.0611
     37 OAP        -0.3519   11.6382    0.5524 O.3       1 COA        -0.2728
     38 C9P        -2.6876   11.2507    0.4734 C.2       1 COA         0.3561
     39 O9P        -2.8806   12.2731   -0.1822 O.2       1 COA        -0.2391
     40 N8P        -3.6636   10.5632    1.1768 N.am      1 COA        -0.1909
     41 C7P        -5.0458   10.9816    1.2180 C.3       1 COA         0.1160
     42 C6P        -5.8119   10.3347    0.0732 C.3       1 COA         0.0286
     43 C5P        -5.7825    8.8183    0.1403 C.2       1 COA         0.3561
     44 O5P        -5.2001    8.1958    1.0242 O.2       1 COA        -0.2391
     45 N4P        -6.4855    8.2475   -0.9105 N.am      1 COA        -0.1909
     46 C3P        -6.6139    6.8191   -1.0863 C.3       1 COA         0.1160
     47 C2P        -5.2727    6.1236   -1.2523 C.3       1 COA         0.2607
     48 S1P        -4.3534    6.7333   -2.6983 S.3       1 COA        -0.3539
     49 H2A        -3.1164    4.2717    1.2395 H         1 COA        -0.1369
     50 H61A       -4.9530    0.5922    3.3076 H         1 COA         0.2048
     51 H62A       -4.9456   -0.6585    2.0932 H         1 COA         0.2048
     52 H8A        -3.5298   -0.9412   -2.5018 H         1 COA        -0.1292
     53 H1B        -2.3698    0.7525   -3.8030 H         1 COA        -0.0393
     54 H2B        -3.4073    3.5789   -2.9846 H         1 COA        -0.0393
     55 H3B        -2.0891    4.5191   -4.8158 H         1 COA        -0.0393
     56 H4B         0.1478    3.1100   -4.0235 H         1 COA        -0.0393
     57 H51A       -1.5937    4.5171   -1.9365 H         1 COA        -0.0393
     58 H52A       -0.4707    5.3519   -3.0411 H         1 COA        -0.0393
     59 H121       -1.2324    7.4355   -0.9984 H         1 COA        -0.0393
     60 H122       -2.5440    8.1138   -0.0133 H         1 COA        -0.0393
     61 H131        0.8796   10.5616   -1.1013 H         1 COA        -0.0393
     62 H132        0.7886    8.8842   -1.6454 H         1 COA        -0.0393
     63 H133        1.0681    9.2399    0.0618 H         1 COA        -0.0393
     64 H141       -1.3855   11.0192   -2.1904 H         1 COA        -0.0393
     65 H142       -2.7797   10.0132   -1.7903 H         1 COA        -0.0393
     66 H143       -1.4280    9.3402   -2.7211 H         1 COA        -0.0393
     67 H10        -1.2314   10.0854    1.5378 H         1 COA        -0.0393
     68 HO1        -0.4241   12.0681   -0.3139 H         1 COA         0.2010
     69 HN8        -3.4169    9.7096    1.6684 H         1 COA         0.0865
     70 H71        -5.4791   10.6972    2.1821 H         1 COA        -0.0393
     71 H72        -5.0936   12.0728    1.1469 H         1 COA        -0.0393
     72 H61        -5.3857   10.6461   -0.8886 H         1 COA        -0.0393
     73 H62        -6.8593   10.6611    0.0891 H         1 COA        -0.0393
     74 HN4        -6.9300    8.8613   -1.5868 H         1 COA         0.0865
     75 H31        -7.1137    6.4453   -0.1889 H         1 COA        -0.0393
     76 H32        -7.2770    6.6490   -1.9383 H         1 COA        -0.0393
     77 H21        -4.6482    6.2572   -0.3630 H         1 COA        -0.0393
     78 H22        -5.4370    5.0507   -1.3928 H         1 COA        -0.0393
     79 HS1        -4.2812    8.0069   -2.2897 H         1 COA         0.1718
@<TRIPOS>BOND
     1    1    2 ar
     2    1    6 ar
     3    2    3 ar
     4    2   49 1
     5    3    4 ar
     6    4    5 ar
     7    4   10 ar
     8    5    6 ar
     9    5    8 ar
    10    6    7 1
    11    7   50 1
    12    7   51 1
    13    8    9 ar
    14    9   10 ar
    15    9   52 1
    16   10   11 1
    17   11   12 1
    18   11   21 1
    19   11   53 1
    20   12   13 1
    21   12   14 1
    22   12   54 1
    23   14   15 1
    24   14   20 1
    25   14   55 1
    26   15   16 1
    27   16   17 2
    28   16   18 1
    29   16   19 1
    30   20   21 1
    31   20   22 1
    32   20   56 1
    33   22   23 1
    34   22   57 1
    35   22   58 1
    36   23   24 1
    37   24   25 2
    38   24   26 1
    39   24   27 1
    40   27   28 1
    41   28   29 2
    42   28   30 1
    43   28   31 1
    44   31   33 1
    45   32   33 1
    46   32   34 1
    47   32   35 1
    48   32   36 1
    49   33   59 1
    50   33   60 1
    51   34   61 1
    52   34   62 1
    53   34   63 1
    54   35   64 1
    55   35   65 1
    56   35   66 1
    57   36   37 1
    58   36   38 1
    59   36   67 1
    60   37   68 1
    61   38   39 2
    62   38   40 am
    63   40   41 1
    64   40   69 1
    65   41   42 1
    66   41   70 1
    67   41   71 1
    68   42   43 1
    69   42   72 1
    70   42   73 1
    71   43   44 2
    72   43   45 am
    73   45   46 1
    74   45   74 1
    75   46   47 1
    76   46   75 1
    77   46   76 1
    78   47   48 1
    79   47   77 1
    80   47   78 1
    81   48   79 1
@<TRIPOS>SUBSTRUCTURE
     1 COA         1 GROUP 0 A     ****
@<TRIPOS>MOLECULE
[5-(6-aminopurin-9-yl)-2-[[[[3-hydroxy-2,2-dimethyl-4-oxo-4-[[3-oxo-3-(2-sulfanylethylamino)propyl]amino]butoxy]-oxido-phosphoryl]oxy-oxido-phosphoryl]oxymethyl]-4-oxido-tetrahydrofuran-3-yl] phosphate
   79    81     1     0     0
SMALL
USER_CHARGES

@<TRIPOS>ATOM
      1 N1A        -3.9039    2.4517    1.8283 N.ar      1 COA        -0.5260
      2 C2A        -3.3295    3.2614    0.9063 C.ar      1 COA         0.6629
      3 N3A        -2.9870    2.9823   -0.3704 N.ar      1 COA        -0.5260
      4 C4A        -3.2951    1.7119   -0.6714 C.ar      1 COA         0.5212
      5 C5A        -3.8810    0.7714    0.1608 C.ar      1 COA         0.0088
      6 C6A        -4.1878    1.1807    1.4546 C.ar      1 COA         0.5212
      7 N6A        -4.7836    0.2924    2.3662 N.pl3     1 COA        -0.6025
      8 N7A        -4.0438   -0.4230   -0.4949 N.2       1 COA        -0.4271
      9 C8A        -3.5659   -0.2124   -1.7036 C.ar      1 COA         0.5691
     10 N9A        -3.1003    1.0663   -1.8591 N.pl3     1 COA        -0.5033
     11 C1B        -2.4828    1.6438   -3.1175 C.3       1 COA         0.2693
     12 C2B        -3.1527    2.8675   -3.7856 C.3       1 COA         0.2008
     13 O2B        -4.0894    2.4850   -4.6336 O.co2     1 COA        -0.1615
     14 C3B        -1.9491    3.4718   -4.5260 C.3       1 COA         0.1111
     15 O3B        -1.5961    2.7353   -5.7012 O.3       1 COA         0.1618
     16 P3B        -0.6948    3.4882   -6.8546 P.3       1 COA        -1.1921
     17 O7A        -1.5419    4.6766   -7.3000 O.co2     1 COA         0.3195
     18 O8A        -0.5270    2.4117   -7.9228 O.co2     1 COA         0.3195
     19 O9A         0.6037    3.8701   -6.1501 O.co2     1 COA         0.3195
     20 C4B        -0.8155    3.2705   -3.5257 C.3       1 COA         0.1111
     21 O4B        -1.1344    2.0698   -2.7962 O.3       1 COA        -0.1436
     22 C5B        -0.6774    4.4099   -2.5246 C.3       1 COA         0.1504
     23 O5B         0.3986    4.1249   -1.6460 O.3       1 COA         0.1618
     24 P1A         0.7670    5.1936   -0.4641 P.3       1 COA        -1.1062
     25 O1A         1.1289    6.5260   -1.0837 O.co2     1 COA         0.3195
     26 O2A         1.6876    4.5161    0.5275 O.co2     1 COA         0.3195
     27 O3A        -0.6886    5.3125    0.2679 O.3       1 COA         0.4672
     28 P2A        -1.1429    6.2040    1.5594 P.3       1 COA        -1.1062
     29 O4A        -2.6377    6.0612    1.7476 O.co2     1 COA         0.3195
     30 O5A        -0.1888    5.9134    2.6974 O.co2     1 COA         0.3195
     31 O6A        -0.8065    7.6957    0.9792 O.3       1 COA         0.1618
     32 CBP        -1.0090    9.5771   -0.5793 C.3       1 COA         0.0000
     33 CCP        -1.4652    8.1470   -0.1994 C.3       1 COA         0.1504
     34 CDP         0.5182    9.5632   -0.8289 C.3       1 COA         0.1179
     35 CEP        -1.6888   10.0085   -1.8940 C.3       1 COA         0.1179
     36 CAP        -1.3149   10.5877    0.5658 C.3       1 COA         0.0611
     37 OAP        -0.8841   11.8921    0.1862 O.3       1 COA        -0.2728
     38 C9P        -2.7940   10.7032    0.9282 C.2       1 COA         0.3561
     39 O9P        -3.5554   11.4723    0.3443 O.2       1 COA        -0.2391
     40 N8P        -3.1652    9.8410    1.9474 N.am      1 COA        -0.1909
     41 C7P        -4.5178    9.7490    2.4468 C.3       1 COA         0.1160
     42 C6P        -4.7105   10.7345    3.5903 C.3       1 COA         0.0286
     43 C5P        -3.7673   10.4683    4.7497 C.2       1 COA         0.3561
     44 O5P        -2.9464    9.5550    4.7523 O.2       1 COA        -0.2391
     45 N4P        -3.9580   11.3760    5.7812 N.am      1 COA        -0.1909
     46 C3P        -3.1916   11.3468    7.0056 C.3       1 COA         0.1160
     47 C2P        -3.8307   10.4816    8.0795 C.3       1 COA         0.2607
     48 S1P        -5.4935   11.0616    8.5340 S.3       1 COA        -0.3539
     49 H2A        -3.1164    4.2717    1.2395 H         1 COA        -0.1369
     50 H61A       -4.9530    0.5922    3.3076 H         1 COA         0.2048
     51 H62A       -4.9456   -0.6585    2.0932 H         1 COA         0.2048
     52 H8A        -3.5298   -0.9412   -2.5018 H         1 COA        -0.1292
     53 H1B        -2.3698    0.7525   -3.8030 H         1 COA        -0.0393
     54 H2B        -3.4073    3.5789   -2.9846 H         1 COA        -0.0393
     55 H3B        -2.0891    4.5191   -4.8158 H         1 COA        -0.0393
     56 H4B         0.1478    3.1100   -4.0235 H         1 COA        -0.0393
     57 H51A       -1.5937    4.5171   -1.9365 H         1 COA        -0.0393
     58 H52A       -0.4707    5.3519   -3.0411 H         1 COA        -0.0393
     59 H121       -1.2324    7.4355   -0.9984 H         1 COA        -0.0393
     60 H122       -2.5440    8.1138   -0.0133 H         1 COA        -0.0393
     61 H131        0.8796   10.5616   -1.1013 H         1 COA        -0.0393
     62 H132        0.7886    8.8842   -1.6454 H         1 COA        -0.0393
     63 H133        1.0681    9.2399    0.0618 H         1 COA        -0.0393
     64 H141       -1.3855   11.0192   -2.1904 H         1 COA        -0.0393
     65 H142       -2.7797   10.0132   -1.7903 H         1 COA        -0.0393
     66 H143       -1.4280    9.3402   -2.7211 H         1 COA        -0.0393
     67 H10        -0.7524   10.3112    1.4665 H         1 COA        -0.0393
     68 HO1        -1.3767   12.1229   -0.6167 H         1 COA         0.2010
     69 HN8        -2.4720    9.2197    2.3532 H         1 COA         0.0865
     70 H71        -5.2173    9.9612    1.6320 H         1 COA        -0.0393
     71 H72        -4.7082    8.7249    2.7833 H         1 COA        -0.0393
     72 H61        -5.7407   10.6811    3.9639 H         1 COA        -0.0393
     73 H62        -4.5426   11.7595    3.2365 H         1 COA        -0.0393
     74 HN4        -4.6684   12.0936    5.6706 H         1 COA         0.0865
     75 H31        -2.2111   10.9418    6.7420 H         1 COA        -0.0393
     76 H32        -3.0534   12.3800    7.3341 H         1 COA        -0.0393
     77 H21        -3.9046    9.4396    7.7519 H         1 COA        -0.0393
     78 H22        -3.2121   10.5100    8.9819 H         1 COA        -0.0393
     79 HS1        -6.0256   10.9283    7.3120 H         1 COA         0.1718
@<TRIPOS>BOND
     1    1    2 ar
     2    1    6 ar
     3    2    3 ar
     4    2   49 1
     5    3    4 ar
     6    4    5 ar
     7    4   10 ar
     8    5    6 ar
     9    5    8 ar
    10    6    7 1
    11    7   50 1
    12    7   51 1
    13    8    9 ar
    14    9   10 ar
    15    9   52 1
    16   10   11 1
    17   11   12 1
    18   11   21 1
    19   11   53 1
    20   12   13 1
    21   12   14 1
    22   12   54 1
    23   14   15 1
    24   14   20 1
    25   14   55 1
    26   15   16 1
    27   16   17 2
    28   16   18 1
    29   16   19 1
    30   20   21 1
    31   20   22 1
    32   20   56 1
    33   22   23 1
    34   22   57 1
    35   22   58 1
    36   23   24 1
    37   24   25 2
    38   24   26 1
    39   24   27 1
    40   27   28 1
    41   28   29 2
    42   28   30 1
    43   28   31 1
    44   31   33 1
    45   32   33 1
    46   32   34 1
    47   32   35 1
    48   32   36 1
    49   33   59 1
    50   33   60 1
    51   34   61 1
    52   34   62 1
    53   34   63 1
    54   35   64 1
    55   35   65 1
    56   35   66 1
    57   36   37 1
    58   36   38 1
    59   36   67 1
    60   37   68 1
    61   38   39 2
    62   38   40 am
    63   40   41 1
    64   40   69 1
    65   41   42 1
    66   41   70 1
    67   41   71 1
    68   42   43 1
    69   42   72 1
    70   42   73 1
    71   43   44 2
    72   43   45 am
    73   45   46 1
    74   45   74 1
    75   46   47 1
    76   46   75 1
    77   46   76 1
    78   47   48 1
    79   47   77 1
    80   47   78 1
    81   48   79 1
@<TRIPOS>SUBSTRUCTURE
     1 COA         1 GROUP 0 A     ****
@<TRIPOS>MOLECULE
[5-(6-aminopurin-9-yl)-2-[[[[3-hydroxy-2,2-dimethyl-4-oxo-4-[[3-oxo-3-(2-sulfanylethylamino)propyl]amino]butoxy]-oxido-phosphoryl]oxy-oxido-phosphoryl]oxymethyl]-4-oxido-tetrahydrofuran-3-yl] phosphate
   79    81     1     0     0
SMALL
USER_CHARGES

@<TRIPOS>ATOM
      1 N1A         6.3197    3.3711    0.1967 N.ar      1 COA        -0.5260
      2 C2A         5.0033    3.3256    0.5141 C.ar      1 COA         0.6629
      3 N3A         4.0730    2.4196    0.1418 N.ar      1 COA        -0.5260
      4 C4A         4.6208    1.4811   -0.6447 C.ar      1 COA         0.5212
      5 C5A         5.9423    1.3962   -1.0530 C.ar      1 COA         0.0088
      6 C6A         6.8050    2.3902   -0.6021 C.ar      1 COA         0.5212
      7 N6A         8.1621    2.3826   -0.9671 N.pl3     1 COA        -0.6025
      8 N7A         6.1335    0.2987   -1.8543 N.2       1 COA        -0.4271
      9 C8A         4.9500   -0.2731   -1.9316 C.ar      1 COA         0.5691
     10 N9A         4.0006    0.4065   -1.2155 N.pl3     1 COA        -0.5033
     11 C1B         2.5376    0.0288   -1.0907 C.3       1 COA         0.2693
     12 C2B         1.9579   -0.2640    0.3131 C.3       1 COA         0.2008
     13 O2B         2.1299   -1.5323    0.6368 O.co2     1 COA        -0.1615
     14 C3B         0.4729    0.0487    0.0699 C.3       1 COA         0.1111
     15 O3B        -0.1943   -0.9780   -0.6709 O.3       1 COA         0.1618
     16 P3B        -1.8364   -1.0586   -0.5907 P.3       1 COA        -1.1921
     17 O7A        -2.1459   -1.2889    0.8856 O.co2     1 COA         0.3195
     18 O8A        -2.1706   -2.2476   -1.4866 O.co2     1 COA         0.3195
     19 O9A        -2.3217    0.2823   -1.1335 O.co2     1 COA         0.3195
     20 C4B         0.5412    1.2713   -0.8394 C.3       1 COA         0.1111
     21 O4B         1.7485    1.1278   -1.6124 O.3       1 COA        -0.1436
     22 C5B         0.6184    2.5901   -0.0816 C.3       1 COA         0.1504
     23 O5B         0.6777    3.6562   -1.0149 O.3       1 COA         0.1618
     24 P1A         0.7670    5.1936   -0.4641 P.3       1 COA        -1.1062
     25 O1A         0.8194    6.1476   -1.6376 O.co2     1 COA         0.3195
     26 O2A         1.8029    5.2507    0.6375 O.co2     1 COA         0.3195
     27 O3A        -0.6886    5.3125    0.2679 O.3       1 COA         0.4672
     28 P2A        -1.1429    6.2040    1.5594 P.3       1 COA        -1.1062
     29 O4A        -2.6377    6.0612    1.7476 O.co2     1 COA         0.3195
     30 O5A        -0.1888    5.9134    2.6974 O.co2     1 COA         0.3195
     31 O6A        -0.8065    7.6957    0.9792 O.3       1 COA         0.1618
     32 CBP        -1.0463    9.4480   -0.7182 C.3       1 COA         0.0000
     33 CCP        -1.7297    8.3208    0.0940 C.3       1 COA         0.1504
     34 CDP         0.1097    8.8359   -1.5452 C.3       1 COA         0.1179
     35 CEP        -2.0542   10.0578   -1.7127 C.3       1 COA         0.1179
     36 CAP        -0.4581   10.5415    0.2222 C.3       1 COA         0.0611
     37 OAP         0.1628   11.5628   -0.5541 O.3       1 COA        -0.2728
     38 C9P        -1.4903   11.2331    1.1103 C.2       1 COA         0.3561
     39 O9P        -2.6751   10.9040    1.1192 O.2       1 COA        -0.2391
     40 N8P        -0.9374   12.2286    1.8997 N.am      1 COA        -0.1909
     41 C7P        -1.7097   13.0066    2.8407 C.3       1 COA         0.1160
     42 C6P        -1.7084   12.3186    4.1981 C.3       1 COA         0.0286
     43 C5P        -2.5051   13.0865    5.2375 C.2       1 COA         0.3561
     44 O5P        -2.6272   14.3083    5.2231 O.2       1 COA        -0.2391
     45 N4P        -3.0606   12.2378    6.1838 N.am      1 COA        -0.1909
     46 C3P        -3.8658   12.7098    7.2867 C.3       1 COA         0.1160
     47 C2P        -5.2728   12.1350    7.2764 C.3       1 COA         0.2607
     48 S1P        -6.1831   12.5651    5.7618 S.3       1 COA        -0.3539
     49 H2A         4.6492    4.1260    1.1552 H         1 COA        -0.1369
     50 H61A        8.7564    3.1335   -0.6708 H         1 COA         0.2048
     51 H62A        8.4991    1.6788   -1.5963 H         1 COA         0.2048
     52 H8A         4.7208   -1.1726   -2.4865 H         1 COA        -0.1292
     53 H1B         2.4085   -0.8200   -1.8256 H         1 COA        -0.0393
     54 H2B         2.3286    0.5212    0.9904 H         1 COA        -0.0393
     55 H3B        -0.0977    0.2245    0.9885 H         1 COA        -0.0393
     56 H4B        -0.2996    1.3083   -1.5416 H         1 COA        -0.0393
     57 H51A        1.5144    2.6204    0.5455 H         1 COA        -0.0393
     58 H52A       -0.2654    2.7227    0.5494 H         1 COA        -0.0393
     59 H121       -2.1262    7.5446   -0.5686 H         1 COA        -0.0393
     60 H122       -2.5562    8.7139    0.6956 H         1 COA        -0.0393
     61 H131        0.6194    9.6060   -2.1356 H         1 COA        -0.0393
     62 H132       -0.2524    8.0744   -2.2449 H         1 COA        -0.0393
     63 H133        0.8566    8.3597   -0.9005 H         1 COA        -0.0393
     64 H141       -1.5995   10.8607   -2.3043 H         1 COA        -0.0393
     65 H142       -2.9149   10.4873   -1.1878 H         1 COA        -0.0393
     66 H143       -2.4255    9.3094   -2.4205 H         1 COA        -0.0393
     67 H10         0.3192   10.1040    0.8613 H         1 COA        -0.0393
     68 HO1        -0.5280   11.9349   -1.1241 H         1 COA         0.2010
     69 HN8         0.0597   12.4131    1.8452 H         1 COA         0.0865
     70 H71        -1.2796   14.0104    2.9161 H         1 COA        -0.0393
     71 H72        -2.7316   13.1159    2.4640 H         1 COA        -0.0393
     72 H61        -0.6798   12.2084    4.5635 H         1 COA        -0.0393
     73 H62        -2.1351   11.3116    4.1103 H         1 COA        -0.0393
     74 HN4        -2.8937   11.2396    6.0974 H         1 COA         0.0865
     75 H31        -3.3477   12.3984    8.1975 H         1 COA        -0.0393
     76 H32        -3.8645   13.8022    7.2537 H         1 COA        -0.0393
     77 H21        -5.2523   11.0444    7.3706 H         1 COA        -0.0393
     78 H22        -5.8339   12.5378    8.1254 H         1 COA        -0.0393
     79 HS1        -5.3278   11.9775    4.9146 H         1 COA         0.1718
@<TRIPOS>BOND
     1    1    2 ar
     2    1    6 ar
     3    2    3 ar
     4    2   49 1
     5    3    4 ar
     6    4    5 ar
     7    4   10 ar
     8    5    6 ar
     9    5    8 ar
    10    6    7 1
    11    7   50 1
    12    7   51 1
    13    8    9 ar
    14    9   10 ar
    15    9   52 1
    16   10   11 1
    17   11   12 1
    18   11   21 1
    19   11   53 1
    20   12   13 1
    21   12   14 1
    22   12   54 1
    23   14   15 1
    24   14   20 1
    25   14   55 1
    26   15   16 1
    27   16   17 2
    28   16   18 1
    29   16   19 1
    30   20   21 1
    31   20   22 1
    32   20   56 1
    33   22   23 1
    34   22   57 1
    35   22   58 1
    36   23   24 1
    37   24   25 2
    38   24   26 1
    39   24   27 1
    40   27   28 1
    41   28   29 2
    42   28   30 1
    43   28   31 1
    44   31   33 1
    45   32   33 1
    46   32   34 1
    47   32   35 1
    48   32   36 1
    49   33   59 1
    50   33   60 1
    51   34   61 1
    52   34   62 1
    53   34   63 1
    54   35   64 1
    55   35   65 1
    56   35   66 1
    57   36   37 1
    58   36   38 1
    59   36   67 1
    60   37   68 1
    61   38   39 2
    62   38   40 am
    63   40   41 1
    64   40   69 1
    65   41   42 1
    66   41   70 1
    67   41   71 1
    68   42   43 1
    69   42   72 1
    70   42   73 1
    71   43   44 2
    72   43   45 am
    73   45   46 1
    74   45   74 1
    75   46   47 1
    76   46   75 1
    77   46   76 1
    78   47   48 1
    79   47   77 1
    80   47   78 1
    81   48   79 1
@<TRIPOS>SUBSTRUCTURE
     1 COA         1 GROUP 0 A     ****
@<TRIPOS>MOLECULE
[5-(6-aminopurin-9-yl)-2-[[[[3-hydroxy-2,2-dimethyl-4-oxo-4-[[3-oxo-3-(2-sulfanylethylamino)propyl]amino]butoxy]-oxido-phosphoryl]oxy-oxido-phosphoryl]oxymethyl]-4-oxido-tetrahydrofuran-3-yl] phosphate
   79    81     1     0     0
SMALL
USER_CHARGES

@<TRIPOS>ATOM
      1 N1A         6.3197    3.3711    0.1967 N.ar      1 COA        -0.5260
      2 C2A         5.0033    3.3256    0.5141 C.ar      1 COA         0.6629
      3 N3A         4.0730    2.4196    0.1418 N.ar      1 COA        -0.5260
      4 C4A         4.6208    1.4811   -0.6447 C.ar      1 COA         0.5212
      5 C5A         5.9423    1.3962   -1.0530 C.ar      1 COA         0.0088
      6 C6A         6.8050    2.3902   -0.6021 C.ar      1 COA         0.5212
      7 N6A         8.1621    2.3826   -0.9671 N.pl3     1 COA        -0.6025
      8 N7A         6.1335    0.2987   -1.8543 N.2       1 COA        -0.4271
      9 C8A         4.9500   -0.2731   -1.9316 C.ar      1 COA         0.5691
     10 N9A         4.0006    0.4065   -1.2155 N.pl3     1 COA        -0.5033
     11 C1B         2.5376    0.0288   -1.0907 C.3       1 COA         0.2693
     12 C2B         1.9579   -0.2640    0.3131 C.3       1 COA         0.2008
     13 O2B         2.1299   -1.5323    0.6368 O.co2     1 COA        -0.1615
     14 C3B         0.4729    0.0487    0.0699 C.3       1 COA         0.1111
     15 O3B        -0.1943   -0.9780   -0.6709 O.3       1 COA         0.1618
     16 P3B        -1.8364   -1.0586   -0.5907 P.3       1 COA        -1.1921
     17 O7A        -2.1459   -1.2889    0.8856 O.co2     1 COA         0.3195
     18 O8A        -2.1706   -2.2476   -1.4866 O.co2     1 COA         0.3195
     19 O9A        -2.3217    0.2823   -1.1335 O.co2     1 COA         0.3195
     20 C4B         0.5412    1.2713   -0.8394 C.3       1 COA         0.1111
     21 O4B         1.7485    1.1278   -1.6124 O.3       1 COA        -0.1436
     22 C5B         0.6184    2.5901   -0.0816 C.3       1 COA         0.1504
     23 O5B         0.6777    3.6562   -1.0149 O.3       1 COA         0.1618
     24 P1A         0.7670    5.1936   -0.4641 P.3       1 COA        -1.1062
     25 O1A         0.8194    6.1476   -1.6376 O.co2     1 COA         0.3195
     26 O2A         1.8029    5.2507    0.6375 O.co2     1 COA         0.3195
     27 O3A        -0.6886    5.3125    0.2679 O.3       1 COA         0.4672
     28 P2A        -1.1429    6.2040    1.5594 P.3       1 COA        -1.1062
     29 O4A        -2.6377    6.0612    1.7476 O.co2     1 COA         0.3195
     30 O5A        -0.1888    5.9134    2.6974 O.co2     1 COA         0.3195
     31 O6A        -0.8065    7.6957    0.9792 O.3       1 COA         0.1618
     32 CBP        -1.0463    9.4480   -0.7182 C.3       1 COA         0.0000
     33 CCP        -1.7297    8.3208    0.0940 C.3       1 COA         0.1504
     34 CDP         0.1097    8.8359   -1.5452 C.3       1 COA         0.1179
     35 CEP        -2.0542   10.0578   -1.7127 C.3       1 COA         0.1179
     36 CAP        -0.4581   10.5415    0.2222 C.3       1 COA         0.0611
     37 OAP         0.6848   11.1373   -0.3860 O.3       1 COA        -0.2728
     38 C9P        -1.4230   11.6791    0.5495 C.2       1 COA         0.3561
     39 O9P        -1.5373   12.6707   -0.1687 O.2       1 COA        -0.2391
     40 N8P        -2.1501   11.4494    1.7065 N.am      1 COA        -0.1909
     41 C7P        -3.1444   12.3703    2.2070 C.3       1 COA         0.1160
     42 C6P        -4.5049   12.0261    1.6183 C.3       1 COA         0.0286
     43 C5P        -5.5994   12.9588    2.1050 C.2       1 COA         0.3561
     44 O5P        -5.5808   13.4996    3.2072 O.2       1 COA        -0.2391
     45 N4P        -6.5999   13.1100    1.1561 N.am      1 COA        -0.1909
     46 C3P        -7.7620   13.9427    1.3649 C.3       1 COA         0.1160
     47 C2P        -8.3033   14.5326    0.0729 C.3       1 COA         0.2607
     48 S1P        -7.0780   15.5736   -0.7771 S.3       1 COA        -0.3539
     49 H2A         4.6492    4.1260    1.1552 H         1 COA        -0.1369
     50 H61A        8.7564    3.1335   -0.6708 H         1 COA         0.2048
     51 H62A        8.4991    1.6788   -1.5963 H         1 COA         0.2048
     52 H8A         4.7208   -1.1726   -2.4865 H         1 COA        -0.1292
     53 H1B         2.4085   -0.8200   -1.8256 H         1 COA        -0.0393
     54 H2B         2.3286    0.5212    0.9904 H         1 COA        -0.0393
     55 H3B        -0.0977    0.2245    0.9885 H         1 COA        -0.0393
     56 H4B        -0.2996    1.3083   -1.5416 H         1 COA        -0.0393
     57 H51A        1.5144    2.6204    0.5455 H         1 COA        -0.0393
     58 H52A       -0.2654    2.7227    0.5494 H         1 COA        -0.0393
     59 H121       -2.1262    7.5446   -0.5686 H         1 COA        -0.0393
     60 H122       -2.5562    8.7139    0.6956 H         1 COA        -0.0393
     61 H131        0.6194    9.6060   -2.1356 H         1 COA        -0.0393
     62 H132       -0.2524    8.0744   -2.2449 H         1 COA        -0.0393
     63 H133        0.8566    8.3597   -0.9005 H         1 COA        -0.0393
     64 H141       -1.5995   10.8607   -2.3043 H         1 COA        -0.0393
     65 H142       -2.9149   10.4873   -1.1878 H         1 COA        -0.0393
     66 H143       -2.4255    9.3094   -2.4205 H         1 COA        -0.0393
     67 H10        -0.1225   10.0836    1.1613 H         1 COA        -0.0393
     68 HO1         0.3816   11.5281   -1.2201 H         1 COA         0.2010
     69 HN8        -2.0082   10.5863    2.2223 H         1 COA         0.0865
     70 H71        -3.1706   12.3125    3.2998 H         1 COA        -0.0393
     71 H72        -2.8553   13.3918    1.9401 H         1 COA        -0.0393
     72 H61        -4.7821   10.9989    1.8862 H         1 COA        -0.0393
     73 H62        -4.4661   12.0805    0.5231 H         1 COA        -0.0393
     74 HN4        -6.5116   12.6129    0.2747 H         1 COA         0.0865
     75 H31        -8.5192   13.3002    1.8218 H         1 COA        -0.0393
     76 H32        -7.4905   14.7138    2.0904 H         1 COA        -0.0393
     77 H21        -8.6245   13.7436   -0.6148 H         1 COA        -0.0393
     78 H22        -9.1714   15.1599    0.2980 H         1 COA        -0.0393
     79 HS1        -6.1635   14.6080   -0.9378 H         1 COA         0.1718
@<TRIPOS>BOND
     1    1    2 ar
     2    1    6 ar
     3    2    3 ar
     4    2   49 1
     5    3    4 ar
     6    4    5 ar
     7    4   10 ar
     8    5    6 ar
     9    5    8 ar
    10    6    7 1
    11    7   50 1
    12    7   51 1
    13    8    9 ar
    14    9   10 ar
    15    9   52 1
    16   10   11 1
    17   11   12 1
    18   11   21 1
    19   11   53 1
    20   12   13 1
    21   12   14 1
    22   12   54 1
    23   14   15 1
    24   14   20 1
    25   14   55 1
    26   15   16 1
    27   16   17 2
    28   16   18 1
    29   16   19 1
    30   20   21 1
    31   20   22 1
    32   20   56 1
    33   22   23 1
    34   22   57 1
    35   22   58 1
    36   23   24 1
    37   24   25 2
    38   24   26 1
    39   24   27 1
    40   27   28 1
    41   28   29 2
    42   28   30 1
    43   28   31 1
    44   31   33 1
    45   32   33 1
    46   32   34 1
    47   32   35 1
    48   32   36 1
    49   33   59 1
    50   33   60 1
    51   34   61 1
    52   34   62 1
    53   34   63 1
    54   35   64 1
    55   35   65 1
    56   35   66 1
    57   36   37 1
    58   36   38 1
    59   36   67 1
    60   37   68 1
    61   38   39 2
    62   38   40 am
    63   40   41 1
    64   40   69 1
    65   41   42 1
    66   41   70 1
    67   41   71 1
    68   42   43 1
    69   42   72 1
    70   42   73 1
    71   43   44 2
    72   43   45 am
    73   45   46 1
    74   45   74 1
    75   46   47 1
    76   46   75 1
    77   46   76 1
    78   47   48 1
    79   47   77 1
    80   47   78 1
    81   48   79 1
@<TRIPOS>SUBSTRUCTURE
     1 COA         1 GROUP 0 A     ****
@<TRIPOS>MOLECULE
[5-(6-aminopurin-9-yl)-2-[[[[3-hydroxy-2,2-dimethyl-4-oxo-4-[[3-oxo-3-(2-sulfanylethylamino)propyl]amino]butoxy]-oxido-phosphoryl]oxy-oxido-phosphoryl]oxymethyl]-4-oxido-tetrahydrofuran-3-yl] phosphate
   79    81     1     0     0
SMALL
USER_CHARGES

@<TRIPOS>ATOM
      1 N1A         6.1093    3.4221   -2.1706 N.ar      1 COA        -0.5260
      2 C2A         4.9028    3.1932   -1.5982 C.ar      1 COA         0.6629
      3 N3A         3.8250    2.5648   -2.1163 N.ar      1 COA        -0.5260
      4 C4A         4.0802    2.1492   -3.3659 C.ar      1 COA         0.5212
      5 C5A         5.2577    2.3095   -4.0788 C.ar      1 COA         0.0088
      6 C6A         6.2970    2.9741   -3.4353 C.ar      1 COA         0.5212
      7 N6A         7.5267    3.1813   -4.0834 N.pl3     1 COA        -0.6025
      8 N7A         5.1483    1.7539   -5.3288 N.2       1 COA        -0.4271
      9 C8A         3.9267    1.2647   -5.3749 C.ar      1 COA         0.5691
     10 N9A         3.2402    1.4796   -4.2093 N.pl3     1 COA        -0.5033
     11 C1B         1.8139    1.0528   -3.9225 C.3       1 COA         0.2693
     12 C2B         1.5441    0.0924   -2.7404 C.3       1 COA         0.2008
     13 O2B         1.6560   -1.1661   -3.1231 O.co2     1 COA        -0.1615
     14 C3B         0.0825    0.4469   -2.4241 C.3       1 COA         0.1111
     15 O3B        -0.8371   -0.0985   -3.3754 O.3       1 COA         0.1618
     16 P3B        -2.4169   -0.2494   -2.9382 P.3       1 COA        -1.1921
     17 O7A        -2.4022   -1.1842   -1.7323 O.co2     1 COA         0.3195
     18 O8A        -3.0660   -0.8511   -4.1810 O.co2     1 COA         0.3195
     19 O9A        -2.8748    1.1724   -2.6264 O.co2     1 COA         0.3195
     20 C4B         0.0646    1.9600   -2.6151 C.3       1 COA         0.1111
     21 O4B         1.0421    2.2460   -3.6341 O.3       1 COA        -0.1436
     22 C5B         0.4465    2.7364   -1.3618 C.3       1 COA         0.1504
     23 O5B         0.3986    4.1249   -1.6460 O.3       1 COA         0.1618
     24 P1A         0.7670    5.1936   -0.4641 P.3       1 COA        -1.1062
     25 O1A         1.1289    6.5260   -1.0837 O.co2     1 COA         0.3195
     26 O2A         1.6876    4.5161    0.5275 O.co2     1 COA         0.3195
     27 O3A        -0.6886    5.3125    0.2679 O.3       1 COA         0.4672
     28 P2A        -1.1429    6.2040    1.5594 P.3       1 COA        -1.1062
     29 O4A        -2.6377    6.0612    1.7476 O.co2     1 COA         0.3195
     30 O5A        -0.1888    5.9134    2.6974 O.co2     1 COA         0.3195
     31 O6A        -0.8065    7.6957    0.9792 O.3       1 COA         0.1618
     32 CBP        -1.0090    9.5771   -0.5793 C.3       1 COA         0.0000
     33 CCP        -1.4652    8.1470   -0.1994 C.3       1 COA         0.1504
     34 CDP         0.5182    9.5632   -0.8289 C.3       1 COA         0.1179
     35 CEP        -1.6888   10.0085   -1.8940 C.3       1 COA         0.1179
     36 CAP        -1.3149   10.5877    0.5658 C.3       1 COA         0.0611
     37 OAP        -1.2622    9.9213    1.8245 O.3       1 COA        -0.2728
     38 C9P        -0.3407   11.7608    0.6502 C.2       1 COA         0.3561
     39 O9P         0.7104   11.6974    1.2852 O.2       1 COA        -0.2391
     40 N8P        -0.7630   12.8619   -0.0771 N.am      1 COA        -0.1909
     41 C7P         0.0024   14.0836   -0.1712 C.3       1 COA         0.1160
     42 C6P        -0.9386   15.2662   -0.3489 C.3       1 COA         0.0286
     43 C5P        -0.1964   16.5863   -0.4549 C.2       1 COA         0.3561
     44 O5P         1.0271   16.6759   -0.4000 O.2       1 COA        -0.2391
     45 N4P        -1.0704   17.6514   -0.6163 N.am      1 COA        -0.1909
     46 C3P        -0.6264   19.0206   -0.7410 C.3       1 COA         0.1160
     47 C2P        -1.0476   19.6586   -2.0547 C.3       1 COA         0.2607
     48 S1P        -0.3799   18.7743   -3.4968 S.3       1 COA        -0.3539
     49 H2A         4.7878    3.5651   -0.5856 H         1 COA        -0.1369
     50 H61A        8.2460    3.7037   -3.6204 H         1 COA         0.2048
     51 H62A        7.6376    2.8871   -5.0353 H         1 COA         0.2048
     52 H8A         3.4866    0.7495   -6.2177 H         1 COA        -0.1292
     53 H1B         1.4348    0.6728   -4.9170 H         1 COA        -0.0393
     54 H2B         2.1376    0.4515   -1.8851 H         1 COA        -0.0393
     55 H3B        -0.2421    0.1333   -1.4258 H         1 COA        -0.0393
     56 H4B        -0.9063    2.3168   -2.9777 H         1 COA        -0.0393
     57 H51A        1.4605    2.4765   -1.0434 H         1 COA        -0.0393
     58 H52A       -0.2515    2.5189   -0.5478 H         1 COA        -0.0393
     59 H121       -1.2324    7.4355   -0.9984 H         1 COA        -0.0393
     60 H122       -2.5440    8.1138   -0.0133 H         1 COA        -0.0393
     61 H131        0.8796   10.5616   -1.1013 H         1 COA        -0.0393
     62 H132        0.7886    8.8842   -1.6454 H         1 COA        -0.0393
     63 H133        1.0681    9.2399    0.0618 H         1 COA        -0.0393
     64 H141       -1.3855   11.0192   -2.1904 H         1 COA        -0.0393
     65 H142       -2.7797   10.0132   -1.7903 H         1 COA        -0.0393
     66 H143       -1.4280    9.3402   -2.7211 H         1 COA        -0.0393
     67 H10        -2.3323   10.9827    0.4518 H         1 COA        -0.0393
     68 HO1        -0.3644    9.5651    1.9111 H         1 COA         0.2010
     69 HN8        -1.6351   12.8136   -0.5951 H         1 COA         0.0865
     70 H71         0.6043   14.2017    0.7355 H         1 COA        -0.0393
     71 H72         0.6945   14.0103   -1.0161 H         1 COA        -0.0393
     72 H61        -1.6316   15.3269    0.4995 H         1 COA        -0.0393
     73 H62        -1.5415   15.1349   -1.2562 H         1 COA        -0.0393
     74 HN4        -2.0675   17.4600   -0.6483 H         1 COA         0.0865
     75 H31        -1.0771   19.5644    0.0933 H         1 COA        -0.0393
     76 H32         0.4580   19.0305   -0.6047 H         1 COA        -0.0393
     77 H21        -2.1384   19.6921   -2.1431 H         1 COA        -0.0393
     78 H22        -0.6728   20.6862   -2.0939 H         1 COA        -0.0393
     79 HS1         0.9100   18.9416   -3.1769 H         1 COA         0.1718
@<TRIPOS>BOND
     1    1    2 ar
     2    1    6 ar
     3    2    3 ar
     4    2   49 1
     5    3    4 ar
     6    4    5 ar
     7    4   10 ar
     8    5    6 ar
     9    5    8 ar
    10    6    7 1
    11    7   50 1
    12    7   51 1
    13    8    9 ar
    14    9   10 ar
    15    9   52 1
    16   10   11 1
    17   11   12 1
    18   11   21 1
    19   11   53 1
    20   12   13 1
    21   12   14 1
    22   12   54 1
    23   14   15 1
    24   14   20 1
    25   14   55 1
    26   15   16 1
    27   16   17 2
    28   16   18 1
    29   16   19 1
    30   20   21 1
    31   20   22 1
    32   20   56 1
    33   22   23 1
    34   22   57 1
    35   22   58 1
    36   23   24 1
    37   24   25 2
    38   24   26 1
    39   24   27 1
    40   27   28 1
    41   28   29 2
    42   28   30 1
    43   28   31 1
    44   31   33 1
    45   32   33 1
    46   32   34 1
    47   32   35 1
    48   32   36 1
    49   33   59 1
    50   33   60 1
    51   34   61 1
    52   34   62 1
    53   34   63 1
    54   35   64 1
    55   35   65 1
    56   35   66 1
    57   36   37 1
    58   36   38 1
    59   36   67 1
    60   37   68 1
    61   38   39 2
    62   38   40 am
    63   40   41 1
    64   40   69 1
    65   41   42 1
    66   41   70 1
    67   41   71 1
    68   42   43 1
    69   42   72 1
    70   42   73 1
    71   43   44 2
    72   43   45 am
    73   45   46 1
    74   45   74 1
    75   46   47 1
    76   46   75 1
    77   46   76 1
    78   47   48 1
    79   47   77 1
    80   47   78 1
    81   48   79 1
@<TRIPOS>SUBSTRUCTURE
     1 COA         1 GROUP 0 A     ****
@<TRIPOS>MOLECULE
[5-(6-aminopurin-9-yl)-2-[[[[3-hydroxy-2,2-dimethyl-4-oxo-4-[[3-oxo-3-(2-sulfanylethylamino)propyl]amino]butoxy]-oxido-phosphoryl]oxy-oxido-phosphoryl]oxymethyl]-4-oxido-tetrahydrofuran-3-yl] phosphate
   79    81     1     0     0
SMALL
USER_CHARGES

@<TRIPOS>ATOM
      1 N1A        -3.9039    2.4517    1.8283 N.ar      1 COA        -0.5260
      2 C2A        -3.3295    3.2614    0.9063 C.ar      1 COA         0.6629
      3 N3A        -2.9870    2.9823   -0.3704 N.ar      1 COA        -0.5260
      4 C4A        -3.2951    1.7119   -0.6714 C.ar      1 COA         0.5212
      5 C5A        -3.8810    0.7714    0.1608 C.ar      1 COA         0.0088
      6 C6A        -4.1878    1.1807    1.4546 C.ar      1 COA         0.5212
      7 N6A        -4.7836    0.2924    2.3662 N.pl3     1 COA        -0.6025
      8 N7A        -4.0438   -0.4230   -0.4949 N.2       1 COA        -0.4271
      9 C8A        -3.5659   -0.2124   -1.7036 C.ar      1 COA         0.5691
     10 N9A        -3.1003    1.0663   -1.8591 N.pl3     1 COA        -0.5033
     11 C1B        -2.4828    1.6438   -3.1175 C.3       1 COA         0.2693
     12 C2B        -3.1527    2.8675   -3.7856 C.3       1 COA         0.2008
     13 O2B        -4.0894    2.4850   -4.6336 O.co2     1 COA        -0.1615
     14 C3B        -1.9491    3.4718   -4.5260 C.3       1 COA         0.1111
     15 O3B        -1.5961    2.7353   -5.7012 O.3       1 COA         0.1618
     16 P3B        -0.6948    3.4882   -6.8546 P.3       1 COA        -1.1921
     17 O7A        -1.5419    4.6766   -7.3000 O.co2     1 COA         0.3195
     18 O8A        -0.5270    2.4117   -7.9228 O.co2     1 COA         0.3195
     19 O9A         0.6037    3.8701   -6.1501 O.co2     1 COA         0.3195
     20 C4B        -0.8155    3.2705   -3.5257 C.3       1 COA         0.1111
     21 O4B        -1.1344    2.0698   -2.7962 O.3       1 COA        -0.1436
     22 C5B        -0.6774    4.4099   -2.5246 C.3       1 COA         0.1504
     23 O5B         0.3986    4.1249   -1.6460 O.3       1 COA         0.1618
     24 P1A         0.7670    5.1936   -0.4641 P.3       1 COA        -1.1062
     25 O1A         1.1289    6.5260   -1.0837 O.co2     1 COA         0.3195
     26 O2A         1.6876    4.5161    0.5275 O.co2     1 COA         0.3195
     27 O3A        -0.6886    5.3125    0.2679 O.3       1 COA         0.4672
     28 P2A        -1.1429    6.2040    1.5594 P.3       1 COA        -1.1062
     29 O4A        -2.6377    6.0612    1.7476 O.co2     1 COA         0.3195
     30 O5A        -0.1888    5.9134    2.6974 O.co2     1 COA         0.3195
     31 O6A        -0.8065    7.6957    0.9792 O.3       1 COA         0.1618
     32 CBP        -1.0090    9.5771   -0.5793 C.3       1 COA         0.0000
     33 CCP        -1.4652    8.1470   -0.1994 C.3       1 COA         0.1504
     34 CDP         0.5182    9.5632   -0.8289 C.3       1 COA         0.1179
     35 CEP        -1.6888   10.0085   -1.8940 C.3       1 COA         0.1179
     36 CAP        -1.3149   10.5877    0.5658 C.3       1 COA         0.0611
     37 OAP        -0.8841   11.8921    0.1862 O.3       1 COA        -0.2728
     38 C9P        -2.7940   10.7032    0.9282 C.2       1 COA         0.3561
     39 O9P        -3.5554   11.4723    0.3443 O.2       1 COA        -0.2391
     40 N8P        -3.1652    9.8410    1.9474 N.am      1 COA        -0.1909
     41 C7P        -4.5178    9.7490    2.4468 C.3       1 COA         0.1160
     42 C6P        -4.4962    9.3561    3.9169 C.3       1 COA         0.0286
     43 C5P        -5.8906    9.2414    4.5063 C.2       1 COA         0.3561
     44 O5P        -6.9132    9.4473    3.8585 O.2       1 COA        -0.2391
     45 N4P        -5.8502    8.8828    5.8457 N.am      1 COA        -0.1909
     46 C3P        -7.0385    8.7070    6.6486 C.3       1 COA         0.1160
     47 C2P        -7.5663    7.2820    6.6145 C.3       1 COA         0.2607
     48 S1P        -6.3505    6.0807    7.2360 S.3       1 COA        -0.3539
     49 H2A        -3.1164    4.2717    1.2395 H         1 COA        -0.1369
     50 H61A       -4.9530    0.5922    3.3076 H         1 COA         0.2048
     51 H62A       -4.9456   -0.6585    2.0932 H         1 COA         0.2048
     52 H8A        -3.5298   -0.9412   -2.5018 H         1 COA        -0.1292
     53 H1B        -2.3698    0.7525   -3.8030 H         1 COA        -0.0393
     54 H2B        -3.4073    3.5789   -2.9846 H         1 COA        -0.0393
     55 H3B        -2.0891    4.5191   -4.8158 H         1 COA        -0.0393
     56 H4B         0.1478    3.1100   -4.0235 H         1 COA        -0.0393
     57 H51A       -1.5937    4.5171   -1.9365 H         1 COA        -0.0393
     58 H52A       -0.4707    5.3519   -3.0411 H         1 COA        -0.0393
     59 H121       -1.2324    7.4355   -0.9984 H         1 COA        -0.0393
     60 H122       -2.5440    8.1138   -0.0133 H         1 COA        -0.0393
     61 H131        0.8796   10.5616   -1.1013 H         1 COA        -0.0393
     62 H132        0.7886    8.8842   -1.6454 H         1 COA        -0.0393
     63 H133        1.0681    9.2399    0.0618 H         1 COA        -0.0393
     64 H141       -1.3855   11.0192   -2.1904 H         1 COA        -0.0393
     65 H142       -2.7797   10.0132   -1.7903 H         1 COA        -0.0393
     66 H143       -1.4280    9.3402   -2.7211 H         1 COA        -0.0393
     67 H10        -0.7524   10.3112    1.4665 H         1 COA        -0.0393
     68 HO1        -1.3767   12.1229   -0.6167 H         1 COA         0.2010
     69 HN8        -2.4720    9.2197    2.3532 H         1 COA         0.0865
     70 H71        -5.0173   10.7137    2.3122 H         1 COA        -0.0393
     71 H72        -5.0694    9.0098    1.8574 H         1 COA        -0.0393
     72 H61        -3.9360   10.0997    4.4973 H         1 COA        -0.0393
     73 H62        -3.9879    8.3918    4.0415 H         1 COA        -0.0393
     74 HN4        -4.9444    8.7372    6.2817 H         1 COA         0.0865
     75 H31        -6.7571    8.9709    7.6714 H         1 COA        -0.0393
     76 H32        -7.7805    9.4319    6.3044 H         1 COA        -0.0393
     77 H21        -8.4813    7.1879    7.2082 H         1 COA        -0.0393
     78 H22        -7.8031    7.0091    5.5815 H         1 COA        -0.0393
     79 HS1        -5.4072    6.3544    6.3252 H         1 COA         0.1718
@<TRIPOS>BOND
     1    1    2 ar
     2    1    6 ar
     3    2    3 ar
     4    2   49 1
     5    3    4 ar
     6    4    5 ar
     7    4   10 ar
     8    5    6 ar
     9    5    8 ar
    10    6    7 1
    11    7   50 1
    12    7   51 1
    13    8    9 ar
    14    9   10 ar
    15    9   52 1
    16   10   11 1
    17   11   12 1
    18   11   21 1
    19   11   53 1
    20   12   13 1
    21   12   14 1
    22   12   54 1
    23   14   15 1
    24   14   20 1
    25   14   55 1
    26   15   16 1
    27   16   17 2
    28   16   18 1
    29   16   19 1
    30   20   21 1
    31   20   22 1
    32   20   56 1
    33   22   23 1
    34   22   57 1
    35   22   58 1
    36   23   24 1
    37   24   25 2
    38   24   26 1
    39   24   27 1
    40   27   28 1
    41   28   29 2
    42   28   30 1
    43   28   31 1
    44   31   33 1
    45   32   33 1
    46   32   34 1
    47   32   35 1
    48   32   36 1
    49   33   59 1
    50   33   60 1
    51   34   61 1
    52   34   62 1
    53   34   63 1
    54   35   64 1
    55   35   65 1
    56   35   66 1
    57   36   37 1
    58   36   38 1
    59   36   67 1
    60   37   68 1
    61   38   39 2
    62   38   40 am
    63   40   41 1
    64   40   69 1
    65   41   42 1
    66   41   70 1
    67   41   71 1
    68   42   43 1
    69   42   72 1
    70   42   73 1
    71   43   44 2
    72   43   45 am
    73   45   46 1
    74   45   74 1
    75   46   47 1
    76   46   75 1
    77   46   76 1
    78   47   48 1
    79   47   77 1
    80   47   78 1
    81   48   79 1
@<TRIPOS>SUBSTRUCTURE
     1 COA         1 GROUP 0 A     ****
@<TRIPOS>MOLECULE
[5-(6-aminopurin-9-yl)-2-[[[[3-hydroxy-2,2-dimethyl-4-oxo-4-[[3-oxo-3-(2-sulfanylethylamino)propyl]amino]butoxy]-oxido-phosphoryl]oxy-oxido-phosphoryl]oxymethyl]-4-oxido-tetrahydrofuran-3-yl] phosphate
   79    81     1     0     0
SMALL
USER_CHARGES

@<TRIPOS>ATOM
      1 N1A         6.3197    3.3711    0.1967 N.ar      1 COA        -0.5260
      2 C2A         5.0033    3.3256    0.5141 C.ar      1 COA         0.6629
      3 N3A         4.0730    2.4196    0.1418 N.ar      1 COA        -0.5260
      4 C4A         4.6208    1.4811   -0.6447 C.ar      1 COA         0.5212
      5 C5A         5.9423    1.3962   -1.0530 C.ar      1 COA         0.0088
      6 C6A         6.8050    2.3902   -0.6021 C.ar      1 COA         0.5212
      7 N6A         8.1621    2.3826   -0.9671 N.pl3     1 COA        -0.6025
      8 N7A         6.1335    0.2987   -1.8543 N.2       1 COA        -0.4271
      9 C8A         4.9500   -0.2731   -1.9316 C.ar      1 COA         0.5691
     10 N9A         4.0006    0.4065   -1.2155 N.pl3     1 COA        -0.5033
     11 C1B         2.5376    0.0288   -1.0907 C.3       1 COA         0.2693
     12 C2B         1.9579   -0.2640    0.3131 C.3       1 COA         0.2008
     13 O2B         2.1299   -1.5323    0.6368 O.co2     1 COA        -0.1615
     14 C3B         0.4729    0.0487    0.0699 C.3       1 COA         0.1111
     15 O3B        -0.1943   -0.9780   -0.6709 O.3       1 COA         0.1618
     16 P3B        -1.8364   -1.0586   -0.5907 P.3       1 COA        -1.1921
     17 O7A        -2.1459   -1.2889    0.8856 O.co2     1 COA         0.3195
     18 O8A        -2.1706   -2.2476   -1.4866 O.co2     1 COA         0.3195
     19 O9A        -2.3217    0.2823   -1.1335 O.co2     1 COA         0.3195
     20 C4B         0.5412    1.2713   -0.8394 C.3       1 COA         0.1111
     21 O4B         1.7485    1.1278   -1.6124 O.3       1 COA        -0.1436
     22 C5B         0.6184    2.5901   -0.0816 C.3       1 COA         0.1504
     23 O5B         0.6777    3.6562   -1.0149 O.3       1 COA         0.1618
     24 P1A         0.7670    5.1936   -0.4641 P.3       1 COA        -1.1062
     25 O1A         0.8194    6.1476   -1.6376 O.co2     1 COA         0.3195
     26 O2A         1.8029    5.2507    0.6375 O.co2     1 COA         0.3195
     27 O3A        -0.6886    5.3125    0.2679 O.3       1 COA         0.4672
     28 P2A        -1.1429    6.2040    1.5594 P.3       1 COA        -1.1062
     29 O4A        -2.6377    6.0612    1.7476 O.co2     1 COA         0.3195
     30 O5A        -0.1888    5.9134    2.6974 O.co2     1 COA         0.3195
     31 O6A        -0.8065    7.6957    0.9792 O.3       1 COA         0.1618
     32 CBP        -1.0463    9.4480   -0.7182 C.3       1 COA         0.0000
     33 CCP        -1.7297    8.3208    0.0940 C.3       1 COA         0.1504
     34 CDP         0.1097    8.8359   -1.5452 C.3       1 COA         0.1179
     35 CEP        -2.0542   10.0578   -1.7127 C.3       1 COA         0.1179
     36 CAP        -0.4581   10.5415    0.2222 C.3       1 COA         0.0611
     37 OAP        -1.4375   11.5484    0.4635 O.3       1 COA        -0.2728
     38 C9P        -0.0136   10.0265    1.5895 C.2       1 COA         0.3561
     39 O9P        -0.7874    9.9367    2.5411 O.2       1 COA        -0.2391
     40 N8P         1.3222    9.6594    1.6159 N.am      1 COA        -0.1909
     41 C7P         1.9668    9.1189    2.7905 C.3       1 COA         0.1160
     42 C6P         3.0846    8.1743    2.3733 C.3       1 COA         0.0286
     43 C5P         3.8061    7.5689    3.5641 C.2       1 COA         0.3561
     44 O5P         3.5115    7.8232    4.7288 O.2       1 COA        -0.2391
     45 N4P         4.8205    6.7116    3.1640 N.am      1 COA        -0.1909
     46 C3P         5.6656    6.0038    4.0980 C.3       1 COA         0.1160
     47 C2P         6.9132    6.7869    4.4730 C.3       1 COA         0.2607
     48 S1P         7.9533    7.1610    3.0288 S.3       1 COA        -0.3539
     49 H2A         4.6492    4.1260    1.1552 H         1 COA        -0.1369
     50 H61A        8.7564    3.1335   -0.6708 H         1 COA         0.2048
     51 H62A        8.4991    1.6788   -1.5963 H         1 COA         0.2048
     52 H8A         4.7208   -1.1726   -2.4865 H         1 COA        -0.1292
     53 H1B         2.4085   -0.8200   -1.8256 H         1 COA        -0.0393
     54 H2B         2.3286    0.5212    0.9904 H         1 COA        -0.0393
     55 H3B        -0.0977    0.2245    0.9885 H         1 COA        -0.0393
     56 H4B        -0.2996    1.3083   -1.5416 H         1 COA        -0.0393
     57 H51A        1.5144    2.6204    0.5455 H         1 COA        -0.0393
     58 H52A       -0.2654    2.7227    0.5494 H         1 COA        -0.0393
     59 H121       -2.1262    7.5446   -0.5686 H         1 COA        -0.0393
     60 H122       -2.5562    8.7139    0.6956 H         1 COA        -0.0393
     61 H131        0.6194    9.6060   -2.1356 H         1 COA        -0.0393
     62 H132       -0.2524    8.0744   -2.2449 H         1 COA        -0.0393
     63 H133        0.8566    8.3597   -0.9005 H         1 COA        -0.0393
     64 H141       -1.5995   10.8607   -2.3043 H         1 COA        -0.0393
     65 H142       -2.9149   10.4873   -1.1878 H         1 COA        -0.0393
     66 H143       -2.4255    9.3094   -2.4205 H         1 COA        -0.0393
     67 H10         0.3953   11.0309   -0.2639 H         1 COA        -0.0393
     68 HO1        -2.1921   11.1053    0.8813 H         1 COA         0.2010
     69 HN8         1.8798    9.7428    0.7713 H         1 COA         0.0865
     70 H71         2.3618    9.9417    3.3948 H         1 COA        -0.0393
     71 H72         1.2239    8.5934    3.3988 H         1 COA        -0.0393
     72 H61         3.8200    8.7089    1.7593 H         1 COA        -0.0393
     73 H62         2.6794    7.3575    1.7630 H         1 COA        -0.0393
     74 HN4         4.9762    6.5752    2.1695 H         1 COA         0.0865
     75 H31         5.0571    5.8318    4.9897 H         1 COA        -0.0393
     76 H32         5.9033    5.0319    3.6582 H         1 COA        -0.0393
     77 H21         6.6522    7.7292    4.9656 H         1 COA        -0.0393
     78 H22         7.5150    6.1955    5.1701 H         1 COA        -0.0393
     79 HS1         8.1714    5.8859    2.6810 H         1 COA         0.1718
@<TRIPOS>BOND
     1    1    2 ar
     2    1    6 ar
     3    2    3 ar
     4    2   49 1
     5    3    4 ar
     6    4    5 ar
     7    4   10 ar
     8    5    6 ar
     9    5    8 ar
    10    6    7 1
    11    7   50 1
    12    7   51 1
    13    8    9 ar
    14    9   10 ar
    15    9   52 1
    16   10   11 1
    17   11   12 1
    18   11   21 1
    19   11   53 1
    20   12   13 1
    21   12   14 1
    22   12   54 1
    23   14   15 1
    24   14   20 1
    25   14   55 1
    26   15   16 1
    27   16   17 2
    28   16   18 1
    29   16   19 1
    30   20   21 1
    31   20   22 1
    32   20   56 1
    33   22   23 1
    34   22   57 1
    35   22   58 1
    36   23   24 1
    37   24   25 2
    38   24   26 1
    39   24   27 1
    40   27   28 1
    41   28   29 2
    42   28   30 1
    43   28   31 1
    44   31   33 1
    45   32   33 1
    46   32   34 1
    47   32   35 1
    48   32   36 1
    49   33   59 1
    50   33   60 1
    51   34   61 1
    52   34   62 1
    53   34   63 1
    54   35   64 1
    55   35   65 1
    56   35   66 1
    57   36   37 1
    58   36   38 1
    59   36   67 1
    60   37   68 1
    61   38   39 2
    62   38   40 am
    63   40   41 1
    64   40   69 1
    65   41   42 1
    66   41   70 1
    67   41   71 1
    68   42   43 1
    69   42   72 1
    70   42   73 1
    71   43   44 2
    72   43   45 am
    73   45   46 1
    74   45   74 1
    75   46   47 1
    76   46   75 1
    77   46   76 1
    78   47   48 1
    79   47   77 1
    80   47   78 1
    81   48   79 1
@<TRIPOS>SUBSTRUCTURE
     1 COA         1 GROUP 0 A     ****
@<TRIPOS>MOLECULE
[5-(6-aminopurin-9-yl)-2-[[[[3-hydroxy-2,2-dimethyl-4-oxo-4-[[3-oxo-3-(2-sulfanylethylamino)propyl]amino]butoxy]-oxido-phosphoryl]oxy-oxido-phosphoryl]oxymethyl]-4-oxido-tetrahydrofuran-3-yl] phosphate
   79    81     1     0     0
SMALL
USER_CHARGES

@<TRIPOS>ATOM
      1 N1A         6.3197    3.3711    0.1967 N.ar      1 COA        -0.5260
      2 C2A         5.0033    3.3256    0.5141 C.ar      1 COA         0.6629
      3 N3A         4.0730    2.4196    0.1418 N.ar      1 COA        -0.5260
      4 C4A         4.6208    1.4811   -0.6447 C.ar      1 COA         0.5212
      5 C5A         5.9423    1.3962   -1.0530 C.ar      1 COA         0.0088
      6 C6A         6.8050    2.3902   -0.6021 C.ar      1 COA         0.5212
      7 N6A         8.1621    2.3826   -0.9671 N.pl3     1 COA        -0.6025
      8 N7A         6.1335    0.2987   -1.8543 N.2       1 COA        -0.4271
      9 C8A         4.9500   -0.2731   -1.9316 C.ar      1 COA         0.5691
     10 N9A         4.0006    0.4065   -1.2155 N.pl3     1 COA        -0.5033
     11 C1B         2.5376    0.0288   -1.0907 C.3       1 COA         0.2693
     12 C2B         1.9579   -0.2640    0.3131 C.3       1 COA         0.2008
     13 O2B         2.1299   -1.5323    0.6368 O.co2     1 COA        -0.1615
     14 C3B         0.4729    0.0487    0.0699 C.3       1 COA         0.1111
     15 O3B        -0.1943   -0.9780   -0.6709 O.3       1 COA         0.1618
     16 P3B        -1.8364   -1.0586   -0.5907 P.3       1 COA        -1.1921
     17 O7A        -2.1459   -1.2889    0.8856 O.co2     1 COA         0.3195
     18 O8A        -2.1706   -2.2476   -1.4866 O.co2     1 COA         0.3195
     19 O9A        -2.3217    0.2823   -1.1335 O.co2     1 COA         0.3195
     20 C4B         0.5412    1.2713   -0.8394 C.3       1 COA         0.1111
     21 O4B         1.7485    1.1278   -1.6124 O.3       1 COA        -0.1436
     22 C5B         0.6184    2.5901   -0.0816 C.3       1 COA         0.1504
     23 O5B         0.6777    3.6562   -1.0149 O.3       1 COA         0.1618
     24 P1A         0.7670    5.1936   -0.4641 P.3       1 COA        -1.1062
     25 O1A         0.8194    6.1476   -1.6376 O.co2     1 COA         0.3195
     26 O2A         1.8029    5.2507    0.6375 O.co2     1 COA         0.3195
     27 O3A        -0.6886    5.3125    0.2679 O.3       1 COA         0.4672
     28 P2A        -1.1429    6.2040    1.5594 P.3       1 COA        -1.1062
     29 O4A        -2.6377    6.0612    1.7476 O.co2     1 COA         0.3195
     30 O5A        -0.1888    5.9134    2.6974 O.co2     1 COA         0.3195
     31 O6A        -0.8065    7.6957    0.9792 O.3       1 COA         0.1618
     32 CBP        -1.0463    9.4480   -0.7182 C.3       1 COA         0.0000
     33 CCP        -1.7297    8.3208    0.0940 C.3       1 COA         0.1504
     34 CDP         0.1097    8.8359   -1.5452 C.3       1 COA         0.1179
     35 CEP        -2.0542   10.0578   -1.7127 C.3       1 COA         0.1179
     36 CAP        -0.4581   10.5415    0.2222 C.3       1 COA         0.0611
     37 OAP        -1.5012   11.1177    1.0041 O.3       1 COA        -0.2728
     38 C9P         0.5942   10.0309    1.2042 C.2       1 COA         0.3561
     39 O9P         0.2963    9.5605    2.3006 O.2       1 COA        -0.2391
     40 N8P         1.8845   10.1361    0.7101 N.am      1 COA        -0.1909
     41 C7P         3.0471    9.6947    1.4453 C.3       1 COA         0.1160
     42 C6P         2.9350    8.2052    1.7366 C.3       1 COA         0.0286
     43 C5P         4.1289    7.6746    2.5098 C.2       1 COA         0.3561
     44 O5P         5.0738    8.3793    2.8540 O.2       1 COA        -0.2391
     45 N4P         4.0083    6.3166    2.7655 N.am      1 COA        -0.1909
     46 C3P         5.0078    5.5603    3.4842 C.3       1 COA         0.1160
     47 C2P         4.7627    5.5373    4.9841 C.3       1 COA         0.2607
     48 S1P         6.0278    4.5822    5.8756 S.3       1 COA        -0.3539
     49 H2A         4.6492    4.1260    1.1552 H         1 COA        -0.1369
     50 H61A        8.7564    3.1335   -0.6708 H         1 COA         0.2048
     51 H62A        8.4991    1.6788   -1.5963 H         1 COA         0.2048
     52 H8A         4.7208   -1.1726   -2.4865 H         1 COA        -0.1292
     53 H1B         2.4085   -0.8200   -1.8256 H         1 COA        -0.0393
     54 H2B         2.3286    0.5212    0.9904 H         1 COA        -0.0393
     55 H3B        -0.0977    0.2245    0.9885 H         1 COA        -0.0393
     56 H4B        -0.2996    1.3083   -1.5416 H         1 COA        -0.0393
     57 H51A        1.5144    2.6204    0.5455 H         1 COA        -0.0393
     58 H52A       -0.2654    2.7227    0.5494 H         1 COA        -0.0393
     59 H121       -2.1262    7.5446   -0.5686 H         1 COA        -0.0393
     60 H122       -2.5562    8.7139    0.6956 H         1 COA        -0.0393
     61 H131        0.6194    9.6060   -2.1356 H         1 COA        -0.0393
     62 H132       -0.2524    8.0744   -2.2449 H         1 COA        -0.0393
     63 H133        0.8566    8.3597   -0.9005 H         1 COA        -0.0393
     64 H141       -1.5995   10.8607   -2.3043 H         1 COA        -0.0393
     65 H142       -2.9149   10.4873   -1.1878 H         1 COA        -0.0393
     66 H143       -2.4255    9.3094   -2.4205 H         1 COA        -0.0393
     67 H10        -0.0186   11.3498   -0.3758 H         1 COA        -0.0393
     68 HO1        -1.8916   10.3949    1.5193 H         1 COA         0.2010
     69 HN8         2.0335   10.5134   -0.2208 H         1 COA         0.0865
     70 H71         3.9461    9.9067    0.8579 H         1 COA        -0.0393
     71 H72         3.1223   10.2657    2.3762 H         1 COA        -0.0393
     72 H61         2.8540    7.6430    0.7979 H         1 COA        -0.0393
     73 H62         2.0278    8.0027    2.3197 H         1 COA        -0.0393
     74 HN4         3.1801    5.8320    2.4323 H         1 COA         0.0865
     75 H31         4.9628    4.5423    3.0883 H         1 COA        -0.0393
     76 H32         5.9851    5.9788    3.2306 H         1 COA        -0.0393
     77 H21         4.7415    6.5522    5.3942 H         1 COA        -0.0393
     78 H22         3.7933    5.0706    5.1846 H         1 COA        -0.0393
     79 HS1         5.7934    3.4222    5.2482 H         1 COA         0.1718
@<TRIPOS>BOND
     1    1    2 ar
     2    1    6 ar
     3    2    3 ar
     4    2   49 1
     5    3    4 ar
     6    4    5 ar
     7    4   10 ar
     8    5    6 ar
     9    5    8 ar
    10    6    7 1
    11    7   50 1
    12    7   51 1
    13    8    9 ar
    14    9   10 ar
    15    9   52 1
    16   10   11 1
    17   11   12 1
    18   11   21 1
    19   11   53 1
    20   12   13 1
    21   12   14 1
    22   12   54 1
    23   14   15 1
    24   14   20 1
    25   14   55 1
    26   15   16 1
    27   16   17 2
    28   16   18 1
    29   16   19 1
    30   20   21 1
    31   20   22 1
    32   20   56 1
    33   22   23 1
    34   22   57 1
    35   22   58 1
    36   23   24 1
    37   24   25 2
    38   24   26 1
    39   24   27 1
    40   27   28 1
    41   28   29 2
    42   28   30 1
    43   28   31 1
    44   31   33 1
    45   32   33 1
    46   32   34 1
    47   32   35 1
    48   32   36 1
    49   33   59 1
    50   33   60 1
    51   34   61 1
    52   34   62 1
    53   34   63 1
    54   35   64 1
    55   35   65 1
    56   35   66 1
    57   36   37 1
    58   36   38 1
    59   36   67 1
    60   37   68 1
    61   38   39 2
    62   38   40 am
    63   40   41 1
    64   40   69 1
    65   41   42 1
    66   41   70 1
    67   41   71 1
    68   42   43 1
    69   42   72 1
    70   42   73 1
    71   43   44 2
    72   43   45 am
    73   45   46 1
    74   45   74 1
    75   46   47 1
    76   46   75 1
    77   46   76 1
    78   47   48 1
    79   47   77 1
    80   47   78 1
    81   48   79 1
@<TRIPOS>SUBSTRUCTURE
     1 COA         1 GROUP 0 A     ****
@<TRIPOS>MOLECULE
[5-(6-aminopurin-9-yl)-2-[[[[3-hydroxy-2,2-dimethyl-4-oxo-4-[[3-oxo-3-(2-sulfanylethylamino)propyl]amino]butoxy]-oxido-phosphoryl]oxy-oxido-phosphoryl]oxymethyl]-4-oxido-tetrahydrofuran-3-yl] phosphate
   79    81     1     0     0
SMALL
USER_CHARGES

@<TRIPOS>ATOM
      1 N1A         6.3197    3.3711    0.1967 N.ar      1 COA        -0.5260
      2 C2A         5.0033    3.3256    0.5141 C.ar      1 COA         0.6629
      3 N3A         4.0730    2.4196    0.1418 N.ar      1 COA        -0.5260
      4 C4A         4.6208    1.4811   -0.6447 C.ar      1 COA         0.5212
      5 C5A         5.9423    1.3962   -1.0530 C.ar      1 COA         0.0088
      6 C6A         6.8050    2.3902   -0.6021 C.ar      1 COA         0.5212
      7 N6A         8.1621    2.3826   -0.9671 N.pl3     1 COA        -0.6025
      8 N7A         6.1335    0.2987   -1.8543 N.2       1 COA        -0.4271
      9 C8A         4.9500   -0.2731   -1.9316 C.ar      1 COA         0.5691
     10 N9A         4.0006    0.4065   -1.2155 N.pl3     1 COA        -0.5033
     11 C1B         2.5376    0.0288   -1.0907 C.3       1 COA         0.2693
     12 C2B         1.9579   -0.2640    0.3131 C.3       1 COA         0.2008
     13 O2B         2.1299   -1.5323    0.6368 O.co2     1 COA        -0.1615
     14 C3B         0.4729    0.0487    0.0699 C.3       1 COA         0.1111
     15 O3B        -0.1943   -0.9780   -0.6709 O.3       1 COA         0.1618
     16 P3B        -1.8364   -1.0586   -0.5907 P.3       1 COA        -1.1921
     17 O7A        -2.1459   -1.2889    0.8856 O.co2     1 COA         0.3195
     18 O8A        -2.1706   -2.2476   -1.4866 O.co2     1 COA         0.3195
     19 O9A        -2.3217    0.2823   -1.1335 O.co2     1 COA         0.3195
     20 C4B         0.5412    1.2713   -0.8394 C.3       1 COA         0.1111
     21 O4B         1.7485    1.1278   -1.6124 O.3       1 COA        -0.1436
     22 C5B         0.6184    2.5901   -0.0816 C.3       1 COA         0.1504
     23 O5B         0.6777    3.6562   -1.0149 O.3       1 COA         0.1618
     24 P1A         0.7670    5.1936   -0.4641 P.3       1 COA        -1.1062
     25 O1A         0.8194    6.1476   -1.6376 O.co2     1 COA         0.3195
     26 O2A         1.8029    5.2507    0.6375 O.co2     1 COA         0.3195
     27 O3A        -0.6886    5.3125    0.2679 O.3       1 COA         0.4672
     28 P2A        -1.1429    6.2040    1.5594 P.3       1 COA        -1.1062
     29 O4A        -2.6377    6.0612    1.7476 O.co2     1 COA         0.3195
     30 O5A        -0.1888    5.9134    2.6974 O.co2     1 COA         0.3195
     31 O6A        -0.8065    7.6957    0.9792 O.3       1 COA         0.1618
     32 CBP        -1.0463    9.4480   -0.7182 C.3       1 COA         0.0000
     33 CCP        -1.7297    8.3208    0.0940 C.3       1 COA         0.1504
     34 CDP         0.1097    8.8359   -1.5452 C.3       1 COA         0.1179
     35 CEP        -2.0542   10.0578   -1.7127 C.3       1 COA         0.1179
     36 CAP        -0.4581   10.5415    0.2222 C.3       1 COA         0.0611
     37 OAP         0.6848   11.1373   -0.3860 O.3       1 COA        -0.2728
     38 C9P        -1.4230   11.6791    0.5495 C.2       1 COA         0.3561
     39 O9P        -1.5373   12.6707   -0.1687 O.2       1 COA        -0.2391
     40 N8P        -2.1501   11.4494    1.7065 N.am      1 COA        -0.1909
     41 C7P        -3.1444   12.3703    2.2070 C.3       1 COA         0.1160
     42 C6P        -2.4901   13.3686    3.1510 C.3       1 COA         0.0286
     43 C5P        -3.4830   14.3691    3.7150 C.2       1 COA         0.3561
     44 O5P        -4.4841   14.7382    3.1072 O.2       1 COA        -0.2391
     45 N4P        -3.1106   14.7996    4.9800 N.am      1 COA        -0.1909
     46 C3P        -3.8797   15.7554    5.7431 C.3       1 COA         0.1160
     47 C2P        -4.3625   15.1961    7.0714 C.3       1 COA         0.2607
     48 S1P        -5.4291   13.7383    6.8596 S.3       1 COA        -0.3539
     49 H2A         4.6492    4.1260    1.1552 H         1 COA        -0.1369
     50 H61A        8.7564    3.1335   -0.6708 H         1 COA         0.2048
     51 H62A        8.4991    1.6788   -1.5963 H         1 COA         0.2048
     52 H8A         4.7208   -1.1726   -2.4865 H         1 COA        -0.1292
     53 H1B         2.4085   -0.8200   -1.8256 H         1 COA        -0.0393
     54 H2B         2.3286    0.5212    0.9904 H         1 COA        -0.0393
     55 H3B        -0.0977    0.2245    0.9885 H         1 COA        -0.0393
     56 H4B        -0.2996    1.3083   -1.5416 H         1 COA        -0.0393
     57 H51A        1.5144    2.6204    0.5455 H         1 COA        -0.0393
     58 H52A       -0.2654    2.7227    0.5494 H         1 COA        -0.0393
     59 H121       -2.1262    7.5446   -0.5686 H         1 COA        -0.0393
     60 H122       -2.5562    8.7139    0.6956 H         1 COA        -0.0393
     61 H131        0.6194    9.6060   -2.1356 H         1 COA        -0.0393
     62 H132       -0.2524    8.0744   -2.2449 H         1 COA        -0.0393
     63 H133        0.8566    8.3597   -0.9005 H         1 COA        -0.0393
     64 H141       -1.5995   10.8607   -2.3043 H         1 COA        -0.0393
     65 H142       -2.9149   10.4873   -1.1878 H         1 COA        -0.0393
     66 H143       -2.4255    9.3094   -2.4205 H         1 COA        -0.0393
     67 H10        -0.1225   10.0836    1.1613 H         1 COA        -0.0393
     68 HO1         0.3816   11.5281   -1.2201 H         1 COA         0.2010
     69 HN8        -2.0082   10.5863    2.2223 H         1 COA         0.0865
     70 H71        -3.6134   12.8867    1.3634 H         1 COA        -0.0393
     71 H72        -3.9287   11.8074    2.7230 H         1 COA        -0.0393
     72 H61        -1.7020   13.9226    2.6260 H         1 COA        -0.0393
     73 H62        -2.0177   12.8407    3.9889 H         1 COA        -0.0393
     74 HN4        -2.2587   14.4260    5.3882 H         1 COA         0.0865
     75 H31        -3.2175   16.6068    5.9211 H         1 COA        -0.0393
     76 H32        -4.7050   16.0951    5.1122 H         1 COA        -0.0393
     77 H21        -3.5182   14.9180    7.7106 H         1 COA        -0.0393
     78 H22        -4.9461   15.9601    7.5944 H         1 COA        -0.0393
     79 HS1        -6.3689   14.3585    6.1341 H         1 COA         0.1718
@<TRIPOS>BOND
     1    1    2 ar
     2    1    6 ar
     3    2    3 ar
     4    2   49 1
     5    3    4 ar
     6    4    5 ar
     7    4   10 ar
     8    5    6 ar
     9    5    8 ar
    10    6    7 1
    11    7   50 1
    12    7   51 1
    13    8    9 ar
    14    9   10 ar
    15    9   52 1
    16   10   11 1
    17   11   12 1
    18   11   21 1
    19   11   53 1
    20   12   13 1
    21   12   14 1
    22   12   54 1
    23   14   15 1
    24   14   20 1
    25   14   55 1
    26   15   16 1
    27   16   17 2
    28   16   18 1
    29   16   19 1
    30   20   21 1
    31   20   22 1
    32   20   56 1
    33   22   23 1
    34   22   57 1
    35   22   58 1
    36   23   24 1
    37   24   25 2
    38   24   26 1
    39   24   27 1
    40   27   28 1
    41   28   29 2
    42   28   30 1
    43   28   31 1
    44   31   33 1
    45   32   33 1
    46   32   34 1
    47   32   35 1
    48   32   36 1
    49   33   59 1
    50   33   60 1
    51   34   61 1
    52   34   62 1
    53   34   63 1
    54   35   64 1
    55   35   65 1
    56   35   66 1
    57   36   37 1
    58   36   38 1
    59   36   67 1
    60   37   68 1
    61   38   39 2
    62   38   40 am
    63   40   41 1
    64   40   69 1
    65   41   42 1
    66   41   70 1
    67   41   71 1
    68   42   43 1
    69   42   72 1
    70   42   73 1
    71   43   44 2
    72   43   45 am
    73   45   46 1
    74   45   74 1
    75   46   47 1
    76   46   75 1
    77   46   76 1
    78   47   48 1
    79   47   77 1
    80   47   78 1
    81   48   79 1
@<TRIPOS>SUBSTRUCTURE
     1 COA         1 GROUP 0 A     ****
@<TRIPOS>MOLECULE
[5-(6-aminopurin-9-yl)-2-[[[[3-hydroxy-2,2-dimethyl-4-oxo-4-[[3-oxo-3-(2-sulfanylethylamino)propyl]amino]butoxy]-oxido-phosphoryl]oxy-oxido-phosphoryl]oxymethyl]-4-oxido-tetrahydrofuran-3-yl] phosphate
   79    81     1     0     0
SMALL
USER_CHARGES

@<TRIPOS>ATOM
      1 N1A         4.6908    0.9263    0.5284 N.ar      1 COA        -0.5260
      2 C2A         3.4193    1.3931    0.4919 C.ar      1 COA         0.6629
      3 N3A         2.4653    1.1803   -0.4405 N.ar      1 COA        -0.5260
      4 C4A         2.9338    0.3916   -1.4192 C.ar      1 COA         0.5212
      5 C5A         4.2020   -0.1580   -1.5185 C.ar      1 COA         0.0088
      6 C6A         5.0963    0.1348   -0.4937 C.ar      1 COA         0.5212
      7 N6A         6.4038   -0.3801   -0.5131 N.pl3     1 COA        -0.6025
      8 N7A         4.3170   -0.9111   -2.6598 N.2       1 COA        -0.4271
      9 C8A         3.1403   -0.8212   -3.2436 C.ar      1 COA         0.5691
     10 N9A         2.2683   -0.0422   -2.5302 N.pl3     1 COA        -0.5033
     11 C1B         0.8363    0.2748   -2.9142 C.3       1 COA         0.2693
     12 C2B        -0.3043   -0.1391   -1.9549 C.3       1 COA         0.2008
     13 O2B        -0.6991   -1.3747   -2.2004 O.co2     1 COA        -0.1615
     14 C3B        -1.3853    0.8773   -2.3558 C.3       1 COA         0.1111
     15 O3B        -2.0094    0.5576   -3.6033 O.3       1 COA         0.1618
     16 P3B        -3.4806    1.2180   -3.9334 P.3       1 COA        -1.1921
     17 O7A        -4.3962    0.7100   -2.8235 O.co2     1 COA         0.3195
     18 O8A        -3.8112    0.6588   -5.3140 O.co2     1 COA         0.3195
     19 O9A        -3.2466    2.7257   -3.9151 O.co2     1 COA         0.3195
     20 C4B        -0.5713    2.1464   -2.5855 C.3       1 COA         0.1111
     21 O4B         0.7211    1.7136   -3.0526 O.3       1 COA        -0.1436
     22 C5B        -0.3655    2.9745   -1.3239 C.3       1 COA         0.1504
     23 O5B         0.3986    4.1249   -1.6460 O.3       1 COA         0.1618
     24 P1A         0.7670    5.1936   -0.4641 P.3       1 COA        -1.1062
     25 O1A         1.1289    6.5260   -1.0837 O.co2     1 COA         0.3195
     26 O2A         1.6876    4.5161    0.5275 O.co2     1 COA         0.3195
     27 O3A        -0.6886    5.3125    0.2679 O.3       1 COA         0.4672
     28 P2A        -1.1429    6.2040    1.5594 P.3       1 COA        -1.1062
     29 O4A        -2.6377    6.0612    1.7476 O.co2     1 COA         0.3195
     30 O5A        -0.1888    5.9134    2.6974 O.co2     1 COA         0.3195
     31 O6A        -0.8065    7.6957    0.9792 O.3       1 COA         0.1618
     32 CBP        -1.0090    9.5771   -0.5793 C.3       1 COA         0.0000
     33 CCP        -1.4652    8.1470   -0.1994 C.3       1 COA         0.1504
     34 CDP         0.5182    9.5632   -0.8289 C.3       1 COA         0.1179
     35 CEP        -1.6888   10.0085   -1.8940 C.3       1 COA         0.1179
     36 CAP        -1.3149   10.5877    0.5658 C.3       1 COA         0.0611
     37 OAP        -0.8841   11.8921    0.1862 O.3       1 COA        -0.2728
     38 C9P        -2.7940   10.7032    0.9282 C.2       1 COA         0.3561
     39 O9P        -3.6519   11.0028    0.0998 O.2       1 COA        -0.2391
     40 N8P        -3.0442   10.4114    2.2595 N.am      1 COA        -0.1909
     41 C7P        -4.3702   10.4275    2.8329 C.3       1 COA         0.1160
     42 C6P        -5.0021    9.0493    2.7028 C.3       1 COA         0.0286
     43 C5P        -4.2003    7.9748    3.4150 C.2       1 COA         0.3561
     44 O5P        -3.1585    8.2054    4.0230 O.2       1 COA        -0.2391
     45 N4P        -4.7917    6.7268    3.2853 N.am      1 COA        -0.1909
     46 C3P        -4.2328    5.5278    3.8664 C.3       1 COA         0.1160
     47 C2P        -4.7392    5.2654    5.2753 C.3       1 COA         0.2607
     48 S1P        -4.0277    3.7538    5.9940 S.3       1 COA        -0.3539
     49 H2A         3.1287    2.0232    1.3259 H         1 COA        -0.1369
     50 H61A        7.0472   -0.1189    0.2098 H         1 COA         0.2048
     51 H62A        6.7069   -0.9256   -1.2976 H         1 COA         0.2048
     52 H8A         2.8628   -1.2932   -4.1762 H         1 COA        -0.1292
     53 H1B         0.7316   -0.1451   -3.9582 H         1 COA        -0.0393
     54 H2B         0.0098    0.1350   -0.9357 H         1 COA        -0.0393
     55 H3B        -2.1756    1.0002   -1.6070 H         1 COA        -0.0393
     56 H4B        -1.0101    2.7804   -3.3646 H         1 COA        -0.0393
     57 H51A        0.1721    2.3946   -0.5677 H         1 COA        -0.0393
     58 H52A       -1.3279    3.2941   -0.9132 H         1 COA        -0.0393
     59 H121       -1.2324    7.4355   -0.9984 H         1 COA        -0.0393
     60 H122       -2.5440    8.1138   -0.0133 H         1 COA        -0.0393
     61 H131        0.8796   10.5616   -1.1013 H         1 COA        -0.0393
     62 H132        0.7886    8.8842   -1.6454 H         1 COA        -0.0393
     63 H133        1.0681    9.2399    0.0618 H         1 COA        -0.0393
     64 H141       -1.3855   11.0192   -2.1904 H         1 COA        -0.0393
     65 H142       -2.7797   10.0132   -1.7903 H         1 COA        -0.0393
     66 H143       -1.4280    9.3402   -2.7211 H         1 COA        -0.0393
     67 H10        -0.7524   10.3112    1.4665 H         1 COA        -0.0393
     68 HO1        -1.3767   12.1229   -0.6167 H         1 COA         0.2010
     69 HN8        -2.2741   10.1459    2.8657 H         1 COA         0.0865
     70 H71        -4.3037   10.7243    3.8844 H         1 COA        -0.0393
     71 H72        -4.9756   11.1803    2.3180 H         1 COA        -0.0393
     72 H61        -5.0872    8.7723    1.6447 H         1 COA        -0.0393
     73 H62        -6.0161    9.0588    3.1221 H         1 COA        -0.0393
     74 HN4        -5.6566    6.6524    2.7579 H         1 COA         0.0865
     75 H31        -4.5278    4.7049    3.2101 H         1 COA        -0.0393
     76 H32        -3.1442    5.6177    3.8276 H         1 COA        -0.0393
     77 H21        -4.5093    6.1058    5.9382 H         1 COA        -0.0393
     78 H22        -5.8262    5.1405    5.2511 H         1 COA        -0.0393
     79 HS1        -4.5024    2.9194    5.0597 H         1 COA         0.1718
@<TRIPOS>BOND
     1    1    2 ar
     2    1    6 ar
     3    2    3 ar
     4    2   49 1
     5    3    4 ar
     6    4    5 ar
     7    4   10 ar
     8    5    6 ar
     9    5    8 ar
    10    6    7 1
    11    7   50 1
    12    7   51 1
    13    8    9 ar
    14    9   10 ar
    15    9   52 1
    16   10   11 1
    17   11   12 1
    18   11   21 1
    19   11   53 1
    20   12   13 1
    21   12   14 1
    22   12   54 1
    23   14   15 1
    24   14   20 1
    25   14   55 1
    26   15   16 1
    27   16   17 2
    28   16   18 1
    29   16   19 1
    30   20   21 1
    31   20   22 1
    32   20   56 1
    33   22   23 1
    34   22   57 1
    35   22   58 1
    36   23   24 1
    37   24   25 2
    38   24   26 1
    39   24   27 1
    40   27   28 1
    41   28   29 2
    42   28   30 1
    43   28   31 1
    44   31   33 1
    45   32   33 1
    46   32   34 1
    47   32   35 1
    48   32   36 1
    49   33   59 1
    50   33   60 1
    51   34   61 1
    52   34   62 1
    53   34   63 1
    54   35   64 1
    55   35   65 1
    56   35   66 1
    57   36   37 1
    58   36   38 1
    59   36   67 1
    60   37   68 1
    61   38   39 2
    62   38   40 am
    63   40   41 1
    64   40   69 1
    65   41   42 1
    66   41   70 1
    67   41   71 1
    68   42   43 1
    69   42   72 1
    70   42   73 1
    71   43   44 2
    72   43   45 am
    73   45   46 1
    74   45   74 1
    75   46   47 1
    76   46   75 1
    77   46   76 1
    78   47   48 1
    79   47   77 1
    80   47   78 1
    81   48   79 1
@<TRIPOS>SUBSTRUCTURE
     1 COA         1 GROUP 0 A     ****
@<TRIPOS>MOLECULE
[5-(6-aminopurin-9-yl)-2-[[[[3-hydroxy-2,2-dimethyl-4-oxo-4-[[3-oxo-3-(2-sulfanylethylamino)propyl]amino]butoxy]-oxido-phosphoryl]oxy-oxido-phosphoryl]oxymethyl]-4-oxido-tetrahydrofuran-3-yl] phosphate
   79    81     1     0     0
SMALL
USER_CHARGES

@<TRIPOS>ATOM
      1 N1A         6.3197    3.3711    0.1967 N.ar      1 COA        -0.5260
      2 C2A         5.0033    3.3256    0.5141 C.ar      1 COA         0.6629
      3 N3A         4.0730    2.4196    0.1418 N.ar      1 COA        -0.5260
      4 C4A         4.6208    1.4811   -0.6447 C.ar      1 COA         0.5212
      5 C5A         5.9423    1.3962   -1.0530 C.ar      1 COA         0.0088
      6 C6A         6.8050    2.3902   -0.6021 C.ar      1 COA         0.5212
      7 N6A         8.1621    2.3826   -0.9671 N.pl3     1 COA        -0.6025
      8 N7A         6.1335    0.2987   -1.8543 N.2       1 COA        -0.4271
      9 C8A         4.9500   -0.2731   -1.9316 C.ar      1 COA         0.5691
     10 N9A         4.0006    0.4065   -1.2155 N.pl3     1 COA        -0.5033
     11 C1B         2.5376    0.0288   -1.0907 C.3       1 COA         0.2693
     12 C2B         1.9579   -0.2640    0.3131 C.3       1 COA         0.2008
     13 O2B         2.1299   -1.5323    0.6368 O.co2     1 COA        -0.1615
     14 C3B         0.4729    0.0487    0.0699 C.3       1 COA         0.1111
     15 O3B        -0.1943   -0.9780   -0.6709 O.3       1 COA         0.1618
     16 P3B        -1.8364   -1.0586   -0.5907 P.3       1 COA        -1.1921
     17 O7A        -2.1459   -1.2889    0.8856 O.co2     1 COA         0.3195
     18 O8A        -2.1706   -2.2476   -1.4866 O.co2     1 COA         0.3195
     19 O9A        -2.3217    0.2823   -1.1335 O.co2     1 COA         0.3195
     20 C4B         0.5412    1.2713   -0.8394 C.3       1 COA         0.1111
     21 O4B         1.7485    1.1278   -1.6124 O.3       1 COA        -0.1436
     22 C5B         0.6184    2.5901   -0.0816 C.3       1 COA         0.1504
     23 O5B         0.6777    3.6562   -1.0149 O.3       1 COA         0.1618
     24 P1A         0.7670    5.1936   -0.4641 P.3       1 COA        -1.1062
     25 O1A         0.8194    6.1476   -1.6376 O.co2     1 COA         0.3195
     26 O2A         1.8029    5.2507    0.6375 O.co2     1 COA         0.3195
     27 O3A        -0.6886    5.3125    0.2679 O.3       1 COA         0.4672
     28 P2A        -1.1429    6.2040    1.5594 P.3       1 COA        -1.1062
     29 O4A        -2.6377    6.0612    1.7476 O.co2     1 COA         0.3195
     30 O5A        -0.1888    5.9134    2.6974 O.co2     1 COA         0.3195
     31 O6A        -0.8065    7.6957    0.9792 O.3       1 COA         0.1618
     32 CBP        -1.0463    9.4480   -0.7182 C.3       1 COA         0.0000
     33 CCP        -1.7297    8.3208    0.0940 C.3       1 COA         0.1504
     34 CDP         0.1097    8.8359   -1.5452 C.3       1 COA         0.1179
     35 CEP        -2.0542   10.0578   -1.7127 C.3       1 COA         0.1179
     36 CAP        -0.4581   10.5415    0.2222 C.3       1 COA         0.0611
     37 OAP        -0.0749    9.9553    1.4635 O.3       1 COA        -0.2728
     38 C9P         0.7781   11.2496   -0.3278 C.2       1 COA         0.3561
     39 O9P         1.9147   10.8096   -0.1639 O.2       1 COA        -0.2391
     40 N8P         0.4670   12.3997   -1.0352 N.am      1 COA        -0.1909
     41 C7P         1.4661   13.2264   -1.6721 C.3       1 COA         0.1160
     42 C6P         1.6949   12.7477   -3.0984 C.3       1 COA         0.0286
     43 C5P         2.7373   13.5764   -3.8274 C.2       1 COA         0.3561
     44 O5P         3.3217   14.5257   -3.3124 O.2       1 COA        -0.2391
     45 N4P         2.9317   13.1251   -5.1246 N.am      1 COA        -0.1909
     46 C3P         3.8683   13.7382   -6.0381 C.3       1 COA         0.1160
     47 C2P         3.2434   14.8524   -6.8618 C.3       1 COA         0.2607
     48 S1P         1.8539   14.2641   -7.8771 S.3       1 COA        -0.3539
     49 H2A         4.6492    4.1260    1.1552 H         1 COA        -0.1369
     50 H61A        8.7564    3.1335   -0.6708 H         1 COA         0.2048
     51 H62A        8.4991    1.6788   -1.5963 H         1 COA         0.2048
     52 H8A         4.7208   -1.1726   -2.4865 H         1 COA        -0.1292
     53 H1B         2.4085   -0.8200   -1.8256 H         1 COA        -0.0393
     54 H2B         2.3286    0.5212    0.9904 H         1 COA        -0.0393
     55 H3B        -0.0977    0.2245    0.9885 H         1 COA        -0.0393
     56 H4B        -0.2996    1.3083   -1.5416 H         1 COA        -0.0393
     57 H51A        1.5144    2.6204    0.5455 H         1 COA        -0.0393
     58 H52A       -0.2654    2.7227    0.5494 H         1 COA        -0.0393
     59 H121       -2.1262    7.5446   -0.5686 H         1 COA        -0.0393
     60 H122       -2.5562    8.7139    0.6956 H         1 COA        -0.0393
     61 H131        0.6194    9.6060   -2.1356 H         1 COA        -0.0393
     62 H132       -0.2524    8.0744   -2.2449 H         1 COA        -0.0393
     63 H133        0.8566    8.3597   -0.9005 H         1 COA        -0.0393
     64 H141       -1.5995   10.8607   -2.3043 H         1 COA        -0.0393
     65 H142       -2.9149   10.4873   -1.1878 H         1 COA        -0.0393
     66 H143       -2.4255    9.3094   -2.4205 H         1 COA        -0.0393
     67 H10        -1.2254   11.2941    0.4437 H         1 COA        -0.0393
     68 HO1         0.5935    9.2836    1.2570 H         1 COA         0.2010
     69 HN8        -0.5053   12.6721   -1.1428 H         1 COA         0.0865
     70 H71         1.1298   14.2681   -1.6636 H         1 COA        -0.0393
     71 H72         2.3947   13.1777   -1.0946 H         1 COA        -0.0393
     72 H61         0.7574   12.7946   -3.6663 H         1 COA        -0.0393
     73 H62         2.0252   11.7013   -3.0960 H         1 COA        -0.0393
     74 HN4         2.3913   12.3276   -5.4468 H         1 COA         0.0865
     75 H31         4.6743   14.1442   -5.4213 H         1 COA        -0.0393
     76 H32         4.2874   12.9459   -6.6635 H         1 COA        -0.0393
     77 H21         2.8843   15.6623   -6.2186 H         1 COA        -0.0393
     78 H22         3.9965   15.2666   -7.5394 H         1 COA        -0.0393
     79 HS1         1.1063   13.8332   -6.8524 H         1 COA         0.1718
@<TRIPOS>BOND
     1    1    2 ar
     2    1    6 ar
     3    2    3 ar
     4    2   49 1
     5    3    4 ar
     6    4    5 ar
     7    4   10 ar
     8    5    6 ar
     9    5    8 ar
    10    6    7 1
    11    7   50 1
    12    7   51 1
    13    8    9 ar
    14    9   10 ar
    15    9   52 1
    16   10   11 1
    17   11   12 1
    18   11   21 1
    19   11   53 1
    20   12   13 1
    21   12   14 1
    22   12   54 1
    23   14   15 1
    24   14   20 1
    25   14   55 1
    26   15   16 1
    27   16   17 2
    28   16   18 1
    29   16   19 1
    30   20   21 1
    31   20   22 1
    32   20   56 1
    33   22   23 1
    34   22   57 1
    35   22   58 1
    36   23   24 1
    37   24   25 2
    38   24   26 1
    39   24   27 1
    40   27   28 1
    41   28   29 2
    42   28   30 1
    43   28   31 1
    44   31   33 1
    45   32   33 1
    46   32   34 1
    47   32   35 1
    48   32   36 1
    49   33   59 1
    50   33   60 1
    51   34   61 1
    52   34   62 1
    53   34   63 1
    54   35   64 1
    55   35   65 1
    56   35   66 1
    57   36   37 1
    58   36   38 1
    59   36   67 1
    60   37   68 1
    61   38   39 2
    62   38   40 am
    63   40   41 1
    64   40   69 1
    65   41   42 1
    66   41   70 1
    67   41   71 1
    68   42   43 1
    69   42   72 1
    70   42   73 1
    71   43   44 2
    72   43   45 am
    73   45   46 1
    74   45   74 1
    75   46   47 1
    76   46   75 1
    77   46   76 1
    78   47   48 1
    79   47   77 1
    80   47   78 1
    81   48   79 1
@<TRIPOS>SUBSTRUCTURE
     1 COA         1 GROUP 0 A     ****
@<TRIPOS>MOLECULE
[5-(6-aminopurin-9-yl)-2-[[[[3-hydroxy-2,2-dimethyl-4-oxo-4-[[3-oxo-3-(2-sulfanylethylamino)propyl]amino]butoxy]-oxido-phosphoryl]oxy-oxido-phosphoryl]oxymethyl]-4-oxido-tetrahydrofuran-3-yl] phosphate
   79    81     1     0     0
SMALL
USER_CHARGES

@<TRIPOS>ATOM
      1 N1A         6.3197    3.3711    0.1967 N.ar      1 COA        -0.5260
      2 C2A         5.0033    3.3256    0.5141 C.ar      1 COA         0.6629
      3 N3A         4.0730    2.4196    0.1418 N.ar      1 COA        -0.5260
      4 C4A         4.6208    1.4811   -0.6447 C.ar      1 COA         0.5212
      5 C5A         5.9423    1.3962   -1.0530 C.ar      1 COA         0.0088
      6 C6A         6.8050    2.3902   -0.6021 C.ar      1 COA         0.5212
      7 N6A         8.1621    2.3826   -0.9671 N.pl3     1 COA        -0.6025
      8 N7A         6.1335    0.2987   -1.8543 N.2       1 COA        -0.4271
      9 C8A         4.9500   -0.2731   -1.9316 C.ar      1 COA         0.5691
     10 N9A         4.0006    0.4065   -1.2155 N.pl3     1 COA        -0.5033
     11 C1B         2.5376    0.0288   -1.0907 C.3       1 COA         0.2693
     12 C2B         1.9579   -0.2640    0.3131 C.3       1 COA         0.2008
     13 O2B         2.1299   -1.5323    0.6368 O.co2     1 COA        -0.1615
     14 C3B         0.4729    0.0487    0.0699 C.3       1 COA         0.1111
     15 O3B        -0.1943   -0.9780   -0.6709 O.3       1 COA         0.1618
     16 P3B        -1.8364   -1.0586   -0.5907 P.3       1 COA        -1.1921
     17 O7A        -2.1459   -1.2889    0.8856 O.co2     1 COA         0.3195
     18 O8A        -2.1706   -2.2476   -1.4866 O.co2     1 COA         0.3195
     19 O9A        -2.3217    0.2823   -1.1335 O.co2     1 COA         0.3195
     20 C4B         0.5412    1.2713   -0.8394 C.3       1 COA         0.1111
     21 O4B         1.7485    1.1278   -1.6124 O.3       1 COA        -0.1436
     22 C5B         0.6184    2.5901   -0.0816 C.3       1 COA         0.1504
     23 O5B         0.6777    3.6562   -1.0149 O.3       1 COA         0.1618
     24 P1A         0.7670    5.1936   -0.4641 P.3       1 COA        -1.1062
     25 O1A         0.8194    6.1476   -1.6376 O.co2     1 COA         0.3195
     26 O2A         1.8029    5.2507    0.6375 O.co2     1 COA         0.3195
     27 O3A        -0.6886    5.3125    0.2679 O.3       1 COA         0.4672
     28 P2A        -1.1429    6.2040    1.5594 P.3       1 COA        -1.1062
     29 O4A        -2.6377    6.0612    1.7476 O.co2     1 COA         0.3195
     30 O5A        -0.1888    5.9134    2.6974 O.co2     1 COA         0.3195
     31 O6A        -0.8065    7.6957    0.9792 O.3       1 COA         0.1618
     32 CBP        -1.0463    9.4480   -0.7182 C.3       1 COA         0.0000
     33 CCP        -1.7297    8.3208    0.0940 C.3       1 COA         0.1504
     34 CDP         0.1097    8.8359   -1.5452 C.3       1 COA         0.1179
     35 CEP        -2.0542   10.0578   -1.7127 C.3       1 COA         0.1179
     36 CAP        -0.4581   10.5415    0.2222 C.3       1 COA         0.0611
     37 OAP         0.1628   11.5628   -0.5541 O.3       1 COA        -0.2728
     38 C9P        -1.4903   11.2331    1.1103 C.2       1 COA         0.3561
     39 O9P        -2.4782   10.6465    1.5487 O.2       1 COA        -0.2391
     40 N8P        -1.1708   12.5553    1.3741 N.am      1 COA        -0.1909
     41 C7P        -1.9814   13.4088    2.2118 C.3       1 COA         0.1160
     42 C6P        -1.5161   13.3009    3.6566 C.3       1 COA         0.0286
     43 C5P        -0.0670   13.7184    3.8313 C.2       1 COA         0.3561
     44 O5P         0.4818   14.5555    3.1199 O.2       1 COA        -0.2391
     45 N4P         0.5371   13.0383    4.8786 N.am      1 COA        -0.1909
     46 C3P         1.9156   13.2449    5.2587 C.3       1 COA         0.1160
     47 C2P         2.8729   12.3173    4.5284 C.3       1 COA         0.2607
     48 S1P         2.5142   10.5635    4.8494 S.3       1 COA        -0.3539
     49 H2A         4.6492    4.1260    1.1552 H         1 COA        -0.1369
     50 H61A        8.7564    3.1335   -0.6708 H         1 COA         0.2048
     51 H62A        8.4991    1.6788   -1.5963 H         1 COA         0.2048
     52 H8A         4.7208   -1.1726   -2.4865 H         1 COA        -0.1292
     53 H1B         2.4085   -0.8200   -1.8256 H         1 COA        -0.0393
     54 H2B         2.3286    0.5212    0.9904 H         1 COA        -0.0393
     55 H3B        -0.0977    0.2245    0.9885 H         1 COA        -0.0393
     56 H4B        -0.2996    1.3083   -1.5416 H         1 COA        -0.0393
     57 H51A        1.5144    2.6204    0.5455 H         1 COA        -0.0393
     58 H52A       -0.2654    2.7227    0.5494 H         1 COA        -0.0393
     59 H121       -2.1262    7.5446   -0.5686 H         1 COA        -0.0393
     60 H122       -2.5562    8.7139    0.6956 H         1 COA        -0.0393
     61 H131        0.6194    9.6060   -2.1356 H         1 COA        -0.0393
     62 H132       -0.2524    8.0744   -2.2449 H         1 COA        -0.0393
     63 H133        0.8566    8.3597   -0.9005 H         1 COA        -0.0393
     64 H141       -1.5995   10.8607   -2.3043 H         1 COA        -0.0393
     65 H142       -2.9149   10.4873   -1.1878 H         1 COA        -0.0393
     66 H143       -2.4255    9.3094   -2.4205 H         1 COA        -0.0393
     67 H10         0.3192   10.1040    0.8613 H         1 COA        -0.0393
     68 HO1        -0.5280   11.9349   -1.1241 H         1 COA         0.2010
     69 HN8        -0.3169   12.9488    0.9903 H         1 COA         0.0865
     70 H71        -1.9025   14.4412    1.8566 H         1 COA        -0.0393
     71 H72        -3.0307   13.1106    2.1205 H         1 COA        -0.0393
     72 H61        -1.6230   12.2680    4.0106 H         1 COA        -0.0393
     73 H62        -2.1384   13.9347    4.3010 H         1 COA        -0.0393
     74 HN4        -0.0146   12.3647    5.4018 H         1 COA         0.0865
     75 H31         2.1480   14.2836    5.0099 H         1 COA        -0.0393
     76 H32         1.9795   13.1348    6.3442 H         1 COA        -0.0393
     77 H21         2.8356   12.4864    3.4473 H         1 COA        -0.0393
     78 H22         3.8950   12.5135    4.8670 H         1 COA        -0.0393
     79 HS1         1.2673   10.5853    4.3606 H         1 COA         0.1718
@<TRIPOS>BOND
     1    1    2 ar
     2    1    6 ar
     3    2    3 ar
     4    2   49 1
     5    3    4 ar
     6    4    5 ar
     7    4   10 ar
     8    5    6 ar
     9    5    8 ar
    10    6    7 1
    11    7   50 1
    12    7   51 1
    13    8    9 ar
    14    9   10 ar
    15    9   52 1
    16   10   11 1
    17   11   12 1
    18   11   21 1
    19   11   53 1
    20   12   13 1
    21   12   14 1
    22   12   54 1
    23   14   15 1
    24   14   20 1
    25   14   55 1
    26   15   16 1
    27   16   17 2
    28   16   18 1
    29   16   19 1
    30   20   21 1
    31   20   22 1
    32   20   56 1
    33   22   23 1
    34   22   57 1
    35   22   58 1
    36   23   24 1
    37   24   25 2
    38   24   26 1
    39   24   27 1
    40   27   28 1
    41   28   29 2
    42   28   30 1
    43   28   31 1
    44   31   33 1
    45   32   33 1
    46   32   34 1
    47   32   35 1
    48   32   36 1
    49   33   59 1
    50   33   60 1
    51   34   61 1
    52   34   62 1
    53   34   63 1
    54   35   64 1
    55   35   65 1
    56   35   66 1
    57   36   37 1
    58   36   38 1
    59   36   67 1
    60   37   68 1
    61   38   39 2
    62   38   40 am
    63   40   41 1
    64   40   69 1
    65   41   42 1
    66   41   70 1
    67   41   71 1
    68   42   43 1
    69   42   72 1
    70   42   73 1
    71   43   44 2
    72   43   45 am
    73   45   46 1
    74   45   74 1
    75   46   47 1
    76   46   75 1
    77   46   76 1
    78   47   48 1
    79   47   77 1
    80   47   78 1
    81   48   79 1
@<TRIPOS>SUBSTRUCTURE
     1 COA         1 GROUP 0 A     ****
@<TRIPOS>MOLECULE
[5-(6-aminopurin-9-yl)-2-[[[[3-hydroxy-2,2-dimethyl-4-oxo-4-[[3-oxo-3-(2-sulfanylethylamino)propyl]amino]butoxy]-oxido-phosphoryl]oxy-oxido-phosphoryl]oxymethyl]-4-oxido-tetrahydrofuran-3-yl] phosphate
   79    81     1     0     0
SMALL
USER_CHARGES

@<TRIPOS>ATOM
      1 N1A         6.1093    3.4221   -2.1706 N.ar      1 COA        -0.5260
      2 C2A         4.9028    3.1932   -1.5982 C.ar      1 COA         0.6629
      3 N3A         3.8250    2.5648   -2.1163 N.ar      1 COA        -0.5260
      4 C4A         4.0802    2.1492   -3.3659 C.ar      1 COA         0.5212
      5 C5A         5.2577    2.3095   -4.0788 C.ar      1 COA         0.0088
      6 C6A         6.2970    2.9741   -3.4353 C.ar      1 COA         0.5212
      7 N6A         7.5267    3.1813   -4.0834 N.pl3     1 COA        -0.6025
      8 N7A         5.1483    1.7539   -5.3288 N.2       1 COA        -0.4271
      9 C8A         3.9267    1.2647   -5.3749 C.ar      1 COA         0.5691
     10 N9A         3.2402    1.4796   -4.2093 N.pl3     1 COA        -0.5033
     11 C1B         1.8139    1.0528   -3.9225 C.3       1 COA         0.2693
     12 C2B         1.5441    0.0924   -2.7404 C.3       1 COA         0.2008
     13 O2B         1.6560   -1.1661   -3.1231 O.co2     1 COA        -0.1615
     14 C3B         0.0825    0.4469   -2.4241 C.3       1 COA         0.1111
     15 O3B        -0.8371   -0.0985   -3.3754 O.3       1 COA         0.1618
     16 P3B        -2.4169   -0.2494   -2.9382 P.3       1 COA        -1.1921
     17 O7A        -2.4022   -1.1842   -1.7323 O.co2     1 COA         0.3195
     18 O8A        -3.0660   -0.8511   -4.1810 O.co2     1 COA         0.3195
     19 O9A        -2.8748    1.1724   -2.6264 O.co2     1 COA         0.3195
     20 C4B         0.0646    1.9600   -2.6151 C.3       1 COA         0.1111
     21 O4B         1.0421    2.2460   -3.6341 O.3       1 COA        -0.1436
     22 C5B         0.4465    2.7364   -1.3618 C.3       1 COA         0.1504
     23 O5B         0.3986    4.1249   -1.6460 O.3       1 COA         0.1618
     24 P1A         0.7670    5.1936   -0.4641 P.3       1 COA        -1.1062
     25 O1A         1.1289    6.5260   -1.0837 O.co2     1 COA         0.3195
     26 O2A         1.6876    4.5161    0.5275 O.co2     1 COA         0.3195
     27 O3A        -0.6886    5.3125    0.2679 O.3       1 COA         0.4672
     28 P2A        -1.1429    6.2040    1.5594 P.3       1 COA        -1.1062
     29 O4A        -2.6377    6.0612    1.7476 O.co2     1 COA         0.3195
     30 O5A        -0.1888    5.9134    2.6974 O.co2     1 COA         0.3195
     31 O6A        -0.8065    7.6957    0.9792 O.3       1 COA         0.1618
     32 CBP        -1.0090    9.5771   -0.5793 C.3       1 COA         0.0000
     33 CCP        -1.4652    8.1470   -0.1994 C.3       1 COA         0.1504
     34 CDP         0.5182    9.5632   -0.8289 C.3       1 COA         0.1179
     35 CEP        -1.6888   10.0085   -1.8940 C.3       1 COA         0.1179
     36 CAP        -1.3149   10.5877    0.5658 C.3       1 COA         0.0611
     37 OAP        -1.2622    9.9213    1.8245 O.3       1 COA        -0.2728
     38 C9P        -0.3407   11.7608    0.6502 C.2       1 COA         0.3561
     39 O9P         0.7104   11.6974    1.2852 O.2       1 COA        -0.2391
     40 N8P        -0.7630   12.8619   -0.0771 N.am      1 COA        -0.1909
     41 C7P         0.0024   14.0836   -0.1712 C.3       1 COA         0.1160
     42 C6P         0.2010   14.6728    1.2178 C.3       1 COA         0.0286
     43 C5P         1.0008   15.9630    1.1908 C.2       1 COA         0.3561
     44 O5P         1.4347   16.4633    0.1567 O.2       1 COA        -0.2391
     45 N4P         1.1710   16.4843    2.4649 N.am      1 COA        -0.1909
     46 C3P         1.8972   17.7063    2.7237 C.3       1 COA         0.1160
     47 C2P         3.3781   17.4698    2.9712 C.3       1 COA         0.2607
     48 S1P         4.2792   19.0159    3.2953 S.3       1 COA        -0.3539
     49 H2A         4.7878    3.5651   -0.5856 H         1 COA        -0.1369
     50 H61A        8.2460    3.7037   -3.6204 H         1 COA         0.2048
     51 H62A        7.6376    2.8871   -5.0353 H         1 COA         0.2048
     52 H8A         3.4866    0.7495   -6.2177 H         1 COA        -0.1292
     53 H1B         1.4348    0.6728   -4.9170 H         1 COA        -0.0393
     54 H2B         2.1376    0.4515   -1.8851 H         1 COA        -0.0393
     55 H3B        -0.2421    0.1333   -1.4258 H         1 COA        -0.0393
     56 H4B        -0.9063    2.3168   -2.9777 H         1 COA        -0.0393
     57 H51A        1.4605    2.4765   -1.0434 H         1 COA        -0.0393
     58 H52A       -0.2515    2.5189   -0.5478 H         1 COA        -0.0393
     59 H121       -1.2324    7.4355   -0.9984 H         1 COA        -0.0393
     60 H122       -2.5440    8.1138   -0.0133 H         1 COA        -0.0393
     61 H131        0.8796   10.5616   -1.1013 H         1 COA        -0.0393
     62 H132        0.7886    8.8842   -1.6454 H         1 COA        -0.0393
     63 H133        1.0681    9.2399    0.0618 H         1 COA        -0.0393
     64 H141       -1.3855   11.0192   -2.1904 H         1 COA        -0.0393
     65 H142       -2.7797   10.0132   -1.7903 H         1 COA        -0.0393
     66 H143       -1.4280    9.3402   -2.7211 H         1 COA        -0.0393
     67 H10        -2.3323   10.9827    0.4518 H         1 COA        -0.0393
     68 HO1        -0.3644    9.5651    1.9111 H         1 COA         0.2010
     69 HN8        -1.6351   12.8136   -0.5951 H         1 COA         0.0865
     70 H71         0.9674   13.8682   -0.6409 H         1 COA        -0.0393
     71 H72        -0.5262   14.7903   -0.8187 H         1 COA        -0.0393
     72 H61         0.7257   13.9546    1.8601 H         1 COA        -0.0393
     73 H62        -0.7716   14.8788    1.6821 H         1 COA        -0.0393
     74 HN4         0.7670   15.9844    3.2515 H         1 COA         0.0865
     75 H31         1.7676   18.3315    1.8364 H         1 COA        -0.0393
     76 H32         1.4117   18.2079    3.5646 H         1 COA        -0.0393
     77 H21         3.5317   16.7947    3.8193 H         1 COA        -0.0393
     78 H22         3.8231   17.0069    2.0848 H         1 COA        -0.0393
     79 HS1         3.9889   19.5940    2.1223 H         1 COA         0.1718
@<TRIPOS>BOND
     1    1    2 ar
     2    1    6 ar
     3    2    3 ar
     4    2   49 1
     5    3    4 ar
     6    4    5 ar
     7    4   10 ar
     8    5    6 ar
     9    5    8 ar
    10    6    7 1
    11    7   50 1
    12    7   51 1
    13    8    9 ar
    14    9   10 ar
    15    9   52 1
    16   10   11 1
    17   11   12 1
    18   11   21 1
    19   11   53 1
    20   12   13 1
    21   12   14 1
    22   12   54 1
    23   14   15 1
    24   14   20 1
    25   14   55 1
    26   15   16 1
    27   16   17 2
    28   16   18 1
    29   16   19 1
    30   20   21 1
    31   20   22 1
    32   20   56 1
    33   22   23 1
    34   22   57 1
    35   22   58 1
    36   23   24 1
    37   24   25 2
    38   24   26 1
    39   24   27 1
    40   27   28 1
    41   28   29 2
    42   28   30 1
    43   28   31 1
    44   31   33 1
    45   32   33 1
    46   32   34 1
    47   32   35 1
    48   32   36 1
    49   33   59 1
    50   33   60 1
    51   34   61 1
    52   34   62 1
    53   34   63 1
    54   35   64 1
    55   35   65 1
    56   35   66 1
    57   36   37 1
    58   36   38 1
    59   36   67 1
    60   37   68 1
    61   38   39 2
    62   38   40 am
    63   40   41 1
    64   40   69 1
    65   41   42 1
    66   41   70 1
    67   41   71 1
    68   42   43 1
    69   42   72 1
    70   42   73 1
    71   43   44 2
    72   43   45 am
    73   45   46 1
    74   45   74 1
    75   46   47 1
    76   46   75 1
    77   46   76 1
    78   47   48 1
    79   47   77 1
    80   47   78 1
    81   48   79 1
@<TRIPOS>SUBSTRUCTURE
     1 COA         1 GROUP 0 A     ****
@<TRIPOS>MOLECULE
[5-(6-aminopurin-9-yl)-2-[[[[3-hydroxy-2,2-dimethyl-4-oxo-4-[[3-oxo-3-(2-sulfanylethylamino)propyl]amino]butoxy]-oxido-phosphoryl]oxy-oxido-phosphoryl]oxymethyl]-4-oxido-tetrahydrofuran-3-yl] phosphate
   79    81     1     0     0
SMALL
USER_CHARGES

@<TRIPOS>ATOM
      1 N1A        -3.9039    2.4517    1.8283 N.ar      1 COA        -0.5260
      2 C2A        -3.3295    3.2614    0.9063 C.ar      1 COA         0.6629
      3 N3A        -2.9870    2.9823   -0.3704 N.ar      1 COA        -0.5260
      4 C4A        -3.2951    1.7119   -0.6714 C.ar      1 COA         0.5212
      5 C5A        -3.8810    0.7714    0.1608 C.ar      1 COA         0.0088
      6 C6A        -4.1878    1.1807    1.4546 C.ar      1 COA         0.5212
      7 N6A        -4.7836    0.2924    2.3662 N.pl3     1 COA        -0.6025
      8 N7A        -4.0438   -0.4230   -0.4949 N.2       1 COA        -0.4271
      9 C8A        -3.5659   -0.2124   -1.7036 C.ar      1 COA         0.5691
     10 N9A        -3.1003    1.0663   -1.8591 N.pl3     1 COA        -0.5033
     11 C1B        -2.4828    1.6438   -3.1175 C.3       1 COA         0.2693
     12 C2B        -3.1527    2.8675   -3.7856 C.3       1 COA         0.2008
     13 O2B        -4.0894    2.4850   -4.6336 O.co2     1 COA        -0.1615
     14 C3B        -1.9491    3.4718   -4.5260 C.3       1 COA         0.1111
     15 O3B        -1.5961    2.7353   -5.7012 O.3       1 COA         0.1618
     16 P3B        -0.6948    3.4882   -6.8546 P.3       1 COA        -1.1921
     17 O7A        -1.5419    4.6766   -7.3000 O.co2     1 COA         0.3195
     18 O8A        -0.5270    2.4117   -7.9228 O.co2     1 COA         0.3195
     19 O9A         0.6037    3.8701   -6.1501 O.co2     1 COA         0.3195
     20 C4B        -0.8155    3.2705   -3.5257 C.3       1 COA         0.1111
     21 O4B        -1.1344    2.0698   -2.7962 O.3       1 COA        -0.1436
     22 C5B        -0.6774    4.4099   -2.5246 C.3       1 COA         0.1504
     23 O5B         0.3986    4.1249   -1.6460 O.3       1 COA         0.1618
     24 P1A         0.7670    5.1936   -0.4641 P.3       1 COA        -1.1062
     25 O1A         1.1289    6.5260   -1.0837 O.co2     1 COA         0.3195
     26 O2A         1.6876    4.5161    0.5275 O.co2     1 COA         0.3195
     27 O3A        -0.6886    5.3125    0.2679 O.3       1 COA         0.4672
     28 P2A        -1.1429    6.2040    1.5594 P.3       1 COA        -1.1062
     29 O4A        -2.6377    6.0612    1.7476 O.co2     1 COA         0.3195
     30 O5A        -0.1888    5.9134    2.6974 O.co2     1 COA         0.3195
     31 O6A        -0.8065    7.6957    0.9792 O.3       1 COA         0.1618
     32 CBP        -1.0090    9.5771   -0.5793 C.3       1 COA         0.0000
     33 CCP        -1.4652    8.1470   -0.1994 C.3       1 COA         0.1504
     34 CDP         0.5182    9.5632   -0.8289 C.3       1 COA         0.1179
     35 CEP        -1.6888   10.0085   -1.8940 C.3       1 COA         0.1179
     36 CAP        -1.3149   10.5877    0.5658 C.3       1 COA         0.0611
     37 OAP        -2.7163   10.6149    0.8239 O.3       1 COA        -0.2728
     38 C9P        -0.6314   10.2649    1.8928 C.2       1 COA         0.3561
     39 O9P        -1.1331    9.5097    2.7236 O.2       1 COA        -0.2391
     40 N8P         0.5984   10.8887    2.0282 N.am      1 COA        -0.1909
     41 C7P         1.4450   10.7163    3.1861 C.3       1 COA         0.1160
     42 C6P         2.3820    9.5376    2.9657 C.3       1 COA         0.0286
     43 C5P         3.2803    9.7298    1.7570 C.2       1 COA         0.3561
     44 O5P         3.6542   10.8321    1.3659 O.2       1 COA        -0.2391
     45 N4P         3.6102    8.5176    1.1688 N.am      1 COA        -0.1909
     46 C3P         4.4529    8.4147   -0.0003 C.3       1 COA         0.1160
     47 C2P         5.9267    8.2813    0.3463 C.3       1 COA         0.2607
     48 S1P         6.2684    6.8042    1.3509 S.3       1 COA        -0.3539
     49 H2A        -3.1164    4.2717    1.2395 H         1 COA        -0.1369
     50 H61A       -4.9530    0.5922    3.3076 H         1 COA         0.2048
     51 H62A       -4.9456   -0.6585    2.0932 H         1 COA         0.2048
     52 H8A        -3.5298   -0.9412   -2.5018 H         1 COA        -0.1292
     53 H1B        -2.3698    0.7525   -3.8030 H         1 COA        -0.0393
     54 H2B        -3.4073    3.5789   -2.9846 H         1 COA        -0.0393
     55 H3B        -2.0891    4.5191   -4.8158 H         1 COA        -0.0393
     56 H4B         0.1478    3.1100   -4.0235 H         1 COA        -0.0393
     57 H51A       -1.5937    4.5171   -1.9365 H         1 COA        -0.0393
     58 H52A       -0.4707    5.3519   -3.0411 H         1 COA        -0.0393
     59 H121       -1.2324    7.4355   -0.9984 H         1 COA        -0.0393
     60 H122       -2.5440    8.1138   -0.0133 H         1 COA        -0.0393
     61 H131        0.8796   10.5616   -1.1013 H         1 COA        -0.0393
     62 H132        0.7886    8.8842   -1.6454 H         1 COA        -0.0393
     63 H133        1.0681    9.2399    0.0618 H         1 COA        -0.0393
     64 H141       -1.3855   11.0192   -2.1904 H         1 COA        -0.0393
     65 H142       -2.7797   10.0132   -1.7903 H         1 COA        -0.0393
     66 H143       -1.4280    9.3402   -2.7211 H         1 COA        -0.0393
     67 H10        -1.0237   11.5996    0.2569 H         1 COA        -0.0393
     68 HO1        -2.9668    9.7148    1.0837 H         1 COA         0.2010
     69 HN8         0.9463   11.4752    1.2758 H         1 COA         0.0865
     70 H71         2.0143   11.6358    3.3556 H         1 COA        -0.0393
     71 H72         0.8185   10.5520    4.0685 H         1 COA        -0.0393
     72 H61         1.8021    8.6173    2.8222 H         1 COA        -0.0393
     73 H62         3.0170    9.3910    3.8484 H         1 COA        -0.0393
     74 HN4         3.2429    7.6638    1.5785 H         1 COA         0.0865
     75 H31         4.1194    7.5239   -0.5390 H         1 COA        -0.0393
     76 H32         4.2527    9.2853   -0.6301 H         1 COA        -0.0393
     77 H21         6.5405    8.2343   -0.5591 H         1 COA        -0.0393
     78 H22         6.2424    9.1552    0.9246 H         1 COA        -0.0393
     79 HS1         5.4771    7.1475    2.3757 H         1 COA         0.1718
@<TRIPOS>BOND
     1    1    2 ar
     2    1    6 ar
     3    2    3 ar
     4    2   49 1
     5    3    4 ar
     6    4    5 ar
     7    4   10 ar
     8    5    6 ar
     9    5    8 ar
    10    6    7 1
    11    7   50 1
    12    7   51 1
    13    8    9 ar
    14    9   10 ar
    15    9   52 1
    16   10   11 1
    17   11   12 1
    18   11   21 1
    19   11   53 1
    20   12   13 1
    21   12   14 1
    22   12   54 1
    23   14   15 1
    24   14   20 1
    25   14   55 1
    26   15   16 1
    27   16   17 2
    28   16   18 1
    29   16   19 1
    30   20   21 1
    31   20   22 1
    32   20   56 1
    33   22   23 1
    34   22   57 1
    35   22   58 1
    36   23   24 1
    37   24   25 2
    38   24   26 1
    39   24   27 1
    40   27   28 1
    41   28   29 2
    42   28   30 1
    43   28   31 1
    44   31   33 1
    45   32   33 1
    46   32   34 1
    47   32   35 1
    48   32   36 1
    49   33   59 1
    50   33   60 1
    51   34   61 1
    52   34   62 1
    53   34   63 1
    54   35   64 1
    55   35   65 1
    56   35   66 1
    57   36   37 1
    58   36   38 1
    59   36   67 1
    60   37   68 1
    61   38   39 2
    62   38   40 am
    63   40   41 1
    64   40   69 1
    65   41   42 1
    66   41   70 1
    67   41   71 1
    68   42   43 1
    69   42   72 1
    70   42   73 1
    71   43   44 2
    72   43   45 am
    73   45   46 1
    74   45   74 1
    75   46   47 1
    76   46   75 1
    77   46   76 1
    78   47   48 1
    79   47   77 1
    80   47   78 1
    81   48   79 1
@<TRIPOS>SUBSTRUCTURE
     1 COA         1 GROUP 0 A     ****
@<TRIPOS>MOLECULE
[5-(6-aminopurin-9-yl)-2-[[[[3-hydroxy-2,2-dimethyl-4-oxo-4-[[3-oxo-3-(2-sulfanylethylamino)propyl]amino]butoxy]-oxido-phosphoryl]oxy-oxido-phosphoryl]oxymethyl]-4-oxido-tetrahydrofuran-3-yl] phosphate
   79    81     1     0     0
SMALL
USER_CHARGES

@<TRIPOS>ATOM
      1 N1A         6.3197    3.3711    0.1967 N.ar      1 COA        -0.5260
      2 C2A         5.0033    3.3256    0.5141 C.ar      1 COA         0.6629
      3 N3A         4.0730    2.4196    0.1418 N.ar      1 COA        -0.5260
      4 C4A         4.6208    1.4811   -0.6447 C.ar      1 COA         0.5212
      5 C5A         5.9423    1.3962   -1.0530 C.ar      1 COA         0.0088
      6 C6A         6.8050    2.3902   -0.6021 C.ar      1 COA         0.5212
      7 N6A         8.1621    2.3826   -0.9671 N.pl3     1 COA        -0.6025
      8 N7A         6.1335    0.2987   -1.8543 N.2       1 COA        -0.4271
      9 C8A         4.9500   -0.2731   -1.9316 C.ar      1 COA         0.5691
     10 N9A         4.0006    0.4065   -1.2155 N.pl3     1 COA        -0.5033
     11 C1B         2.5376    0.0288   -1.0907 C.3       1 COA         0.2693
     12 C2B         1.9579   -0.2640    0.3131 C.3       1 COA         0.2008
     13 O2B         2.1299   -1.5323    0.6368 O.co2     1 COA        -0.1615
     14 C3B         0.4729    0.0487    0.0699 C.3       1 COA         0.1111
     15 O3B        -0.1943   -0.9780   -0.6709 O.3       1 COA         0.1618
     16 P3B        -1.8364   -1.0586   -0.5907 P.3       1 COA        -1.1921
     17 O7A        -2.1459   -1.2889    0.8856 O.co2     1 COA         0.3195
     18 O8A        -2.1706   -2.2476   -1.4866 O.co2     1 COA         0.3195
     19 O9A        -2.3217    0.2823   -1.1335 O.co2     1 COA         0.3195
     20 C4B         0.5412    1.2713   -0.8394 C.3       1 COA         0.1111
     21 O4B         1.7485    1.1278   -1.6124 O.3       1 COA        -0.1436
     22 C5B         0.6184    2.5901   -0.0816 C.3       1 COA         0.1504
     23 O5B         0.6777    3.6562   -1.0149 O.3       1 COA         0.1618
     24 P1A         0.7670    5.1936   -0.4641 P.3       1 COA        -1.1062
     25 O1A         0.8194    6.1476   -1.6376 O.co2     1 COA         0.3195
     26 O2A         1.8029    5.2507    0.6375 O.co2     1 COA         0.3195
     27 O3A        -0.6886    5.3125    0.2679 O.3       1 COA         0.4672
     28 P2A        -1.1429    6.2040    1.5594 P.3       1 COA        -1.1062
     29 O4A        -2.6377    6.0612    1.7476 O.co2     1 COA         0.3195
     30 O5A        -0.1888    5.9134    2.6974 O.co2     1 COA         0.3195
     31 O6A        -0.8065    7.6957    0.9792 O.3       1 COA         0.1618
     32 CBP        -1.0463    9.4480   -0.7182 C.3       1 COA         0.0000
     33 CCP        -1.7297    8.3208    0.0940 C.3       1 COA         0.1504
     34 CDP         0.1097    8.8359   -1.5452 C.3       1 COA         0.1179
     35 CEP        -2.0542   10.0578   -1.7127 C.3       1 COA         0.1179
     36 CAP        -0.4581   10.5415    0.2222 C.3       1 COA         0.0611
     37 OAP        -0.0749    9.9553    1.4635 O.3       1 COA        -0.2728
     38 C9P         0.7781   11.2496   -0.3278 C.2       1 COA         0.3561
     39 O9P         1.9147   10.8096   -0.1639 O.2       1 COA        -0.2391
     40 N8P         0.4670   12.3997   -1.0352 N.am      1 COA        -0.1909
     41 C7P         1.4661   13.2264   -1.6721 C.3       1 COA         0.1160
     42 C6P         1.9468   14.2923   -0.6981 C.3       1 COA         0.0286
     43 C5P         3.0019   15.1990   -1.3060 C.2       1 COA         0.3561
     44 O5P         3.4139   15.0740   -2.4560 O.2       1 COA        -0.2391
     45 N4P         3.4272   16.1630   -0.4038 N.am      1 COA        -0.1909
     46 C3P         4.4287   17.1535   -0.7256 C.3       1 COA         0.1160
     47 C2P         3.8334   18.4239   -1.3103 C.3       1 COA         0.2607
     48 S1P         2.6697   19.2299   -0.1684 S.3       1 COA        -0.3539
     49 H2A         4.6492    4.1260    1.1552 H         1 COA        -0.1369
     50 H61A        8.7564    3.1335   -0.6708 H         1 COA         0.2048
     51 H62A        8.4991    1.6788   -1.5963 H         1 COA         0.2048
     52 H8A         4.7208   -1.1726   -2.4865 H         1 COA        -0.1292
     53 H1B         2.4085   -0.8200   -1.8256 H         1 COA        -0.0393
     54 H2B         2.3286    0.5212    0.9904 H         1 COA        -0.0393
     55 H3B        -0.0977    0.2245    0.9885 H         1 COA        -0.0393
     56 H4B        -0.2996    1.3083   -1.5416 H         1 COA        -0.0393
     57 H51A        1.5144    2.6204    0.5455 H         1 COA        -0.0393
     58 H52A       -0.2654    2.7227    0.5494 H         1 COA        -0.0393
     59 H121       -2.1262    7.5446   -0.5686 H         1 COA        -0.0393
     60 H122       -2.5562    8.7139    0.6956 H         1 COA        -0.0393
     61 H131        0.6194    9.6060   -2.1356 H         1 COA        -0.0393
     62 H132       -0.2524    8.0744   -2.2449 H         1 COA        -0.0393
     63 H133        0.8566    8.3597   -0.9005 H         1 COA        -0.0393
     64 H141       -1.5995   10.8607   -2.3043 H         1 COA        -0.0393
     65 H142       -2.9149   10.4873   -1.1878 H         1 COA        -0.0393
     66 H143       -2.4255    9.3094   -2.4205 H         1 COA        -0.0393
     67 H10        -1.2254   11.2941    0.4437 H         1 COA        -0.0393
     68 HO1         0.5935    9.2836    1.2570 H         1 COA         0.2010
     69 HN8        -0.5053   12.6721   -1.1428 H         1 COA         0.0865
     70 H71         2.3000   12.5964   -1.9977 H         1 COA        -0.0393
     71 H72         1.0350   13.6868   -2.5667 H         1 COA        -0.0393
     72 H61         2.3710   13.8206    0.1971 H         1 COA        -0.0393
     73 H62         1.1029   14.9136   -0.3730 H         1 COA        -0.0393
     74 HN4         3.0160   16.1731    0.5250 H         1 COA         0.0865
     75 H31         4.9410   17.3847    0.2119 H         1 COA        -0.0393
     76 H32         5.1513   16.6864   -1.3995 H         1 COA        -0.0393
     77 H21         4.6180   19.1421   -1.5697 H         1 COA        -0.0393
     78 H22         3.2836   18.1781   -2.2241 H         1 COA        -0.0393
     79 HS1         1.8211   18.1970   -0.0834 H         1 COA         0.1718
@<TRIPOS>BOND
     1    1    2 ar
     2    1    6 ar
     3    2    3 ar
     4    2   49 1
     5    3    4 ar
     6    4    5 ar
     7    4   10 ar
     8    5    6 ar
     9    5    8 ar
    10    6    7 1
    11    7   50 1
    12    7   51 1
    13    8    9 ar
    14    9   10 ar
    15    9   52 1
    16   10   11 1
    17   11   12 1
    18   11   21 1
    19   11   53 1
    20   12   13 1
    21   12   14 1
    22   12   54 1
    23   14   15 1
    24   14   20 1
    25   14   55 1
    26   15   16 1
    27   16   17 2
    28   16   18 1
    29   16   19 1
    30   20   21 1
    31   20   22 1
    32   20   56 1
    33   22   23 1
    34   22   57 1
    35   22   58 1
    36   23   24 1
    37   24   25 2
    38   24   26 1
    39   24   27 1
    40   27   28 1
    41   28   29 2
    42   28   30 1
    43   28   31 1
    44   31   33 1
    45   32   33 1
    46   32   34 1
    47   32   35 1
    48   32   36 1
    49   33   59 1
    50   33   60 1
    51   34   61 1
    52   34   62 1
    53   34   63 1
    54   35   64 1
    55   35   65 1
    56   35   66 1
    57   36   37 1
    58   36   38 1
    59   36   67 1
    60   37   68 1
    61   38   39 2
    62   38   40 am
    63   40   41 1
    64   40   69 1
    65   41   42 1
    66   41   70 1
    67   41   71 1
    68   42   43 1
    69   42   72 1
    70   42   73 1
    71   43   44 2
    72   43   45 am
    73   45   46 1
    74   45   74 1
    75   46   47 1
    76   46   75 1
    77   46   76 1
    78   47   48 1
    79   47   77 1
    80   47   78 1
    81   48   79 1
@<TRIPOS>SUBSTRUCTURE
     1 COA         1 GROUP 0 A     ****
@<TRIPOS>MOLECULE
[5-(6-aminopurin-9-yl)-2-[[[[3-hydroxy-2,2-dimethyl-4-oxo-4-[[3-oxo-3-(2-sulfanylethylamino)propyl]amino]butoxy]-oxido-phosphoryl]oxy-oxido-phosphoryl]oxymethyl]-4-oxido-tetrahydrofuran-3-yl] phosphate
   79    81     1     0     0
SMALL
USER_CHARGES

@<TRIPOS>ATOM
      1 N1A         6.3197    3.3711    0.1967 N.ar      1 COA        -0.5260
      2 C2A         5.0033    3.3256    0.5141 C.ar      1 COA         0.6629
      3 N3A         4.0730    2.4196    0.1418 N.ar      1 COA        -0.5260
      4 C4A         4.6208    1.4811   -0.6447 C.ar      1 COA         0.5212
      5 C5A         5.9423    1.3962   -1.0530 C.ar      1 COA         0.0088
      6 C6A         6.8050    2.3902   -0.6021 C.ar      1 COA         0.5212
      7 N6A         8.1621    2.3826   -0.9671 N.pl3     1 COA        -0.6025
      8 N7A         6.1335    0.2987   -1.8543 N.2       1 COA        -0.4271
      9 C8A         4.9500   -0.2731   -1.9316 C.ar      1 COA         0.5691
     10 N9A         4.0006    0.4065   -1.2155 N.pl3     1 COA        -0.5033
     11 C1B         2.5376    0.0288   -1.0907 C.3       1 COA         0.2693
     12 C2B         1.9579   -0.2640    0.3131 C.3       1 COA         0.2008
     13 O2B         2.1299   -1.5323    0.6368 O.co2     1 COA        -0.1615
     14 C3B         0.4729    0.0487    0.0699 C.3       1 COA         0.1111
     15 O3B        -0.1943   -0.9780   -0.6709 O.3       1 COA         0.1618
     16 P3B        -1.8364   -1.0586   -0.5907 P.3       1 COA        -1.1921
     17 O7A        -2.1459   -1.2889    0.8856 O.co2     1 COA         0.3195
     18 O8A        -2.1706   -2.2476   -1.4866 O.co2     1 COA         0.3195
     19 O9A        -2.3217    0.2823   -1.1335 O.co2     1 COA         0.3195
     20 C4B         0.5412    1.2713   -0.8394 C.3       1 COA         0.1111
     21 O4B         1.7485    1.1278   -1.6124 O.3       1 COA        -0.1436
     22 C5B         0.6184    2.5901   -0.0816 C.3       1 COA         0.1504
     23 O5B         0.6777    3.6562   -1.0149 O.3       1 COA         0.1618
     24 P1A         0.7670    5.1936   -0.4641 P.3       1 COA        -1.1062
     25 O1A         0.8194    6.1476   -1.6376 O.co2     1 COA         0.3195
     26 O2A         1.8029    5.2507    0.6375 O.co2     1 COA         0.3195
     27 O3A        -0.6886    5.3125    0.2679 O.3       1 COA         0.4672
     28 P2A        -1.1429    6.2040    1.5594 P.3       1 COA        -1.1062
     29 O4A        -2.6377    6.0612    1.7476 O.co2     1 COA         0.3195
     30 O5A        -0.1888    5.9134    2.6974 O.co2     1 COA         0.3195
     31 O6A        -0.8065    7.6957    0.9792 O.3       1 COA         0.1618
     32 CBP        -1.0463    9.4480   -0.7182 C.3       1 COA         0.0000
     33 CCP        -1.7297    8.3208    0.0940 C.3       1 COA         0.1504
     34 CDP         0.1097    8.8359   -1.5452 C.3       1 COA         0.1179
     35 CEP        -2.0542   10.0578   -1.7127 C.3       1 COA         0.1179
     36 CAP        -0.4581   10.5415    0.2222 C.3       1 COA         0.0611
     37 OAP         0.1628   11.5628   -0.5541 O.3       1 COA        -0.2728
     38 C9P        -1.4903   11.2331    1.1103 C.2       1 COA         0.3561
     39 O9P        -2.4782   10.6465    1.5487 O.2       1 COA        -0.2391
     40 N8P        -1.1708   12.5553    1.3741 N.am      1 COA        -0.1909
     41 C7P        -1.9814   13.4088    2.2118 C.3       1 COA         0.1160
     42 C6P        -3.0224   14.1227    1.3618 C.3       1 COA         0.0286
     43 C5P        -2.3953   14.9886    0.2839 C.2       1 COA         0.3561
     44 O5P        -1.3000   15.5295    0.4090 O.2       1 COA        -0.2391
     45 N4P        -3.2120   15.0837   -0.8333 N.am      1 COA        -0.1909
     46 C3P        -2.8550   15.8499   -2.0050 C.3       1 COA         0.1160
     47 C2P        -3.3302   17.2919   -1.9326 C.3       1 COA         0.2607
     48 S1P        -5.1378   17.4157   -1.7754 S.3       1 COA        -0.3539
     49 H2A         4.6492    4.1260    1.1552 H         1 COA        -0.1369
     50 H61A        8.7564    3.1335   -0.6708 H         1 COA         0.2048
     51 H62A        8.4991    1.6788   -1.5963 H         1 COA         0.2048
     52 H8A         4.7208   -1.1726   -2.4865 H         1 COA        -0.1292
     53 H1B         2.4085   -0.8200   -1.8256 H         1 COA        -0.0393
     54 H2B         2.3286    0.5212    0.9904 H         1 COA        -0.0393
     55 H3B        -0.0977    0.2245    0.9885 H         1 COA        -0.0393
     56 H4B        -0.2996    1.3083   -1.5416 H         1 COA        -0.0393
     57 H51A        1.5144    2.6204    0.5455 H         1 COA        -0.0393
     58 H52A       -0.2654    2.7227    0.5494 H         1 COA        -0.0393
     59 H121       -2.1262    7.5446   -0.5686 H         1 COA        -0.0393
     60 H122       -2.5562    8.7139    0.6956 H         1 COA        -0.0393
     61 H131        0.6194    9.6060   -2.1356 H         1 COA        -0.0393
     62 H132       -0.2524    8.0744   -2.2449 H         1 COA        -0.0393
     63 H133        0.8566    8.3597   -0.9005 H         1 COA        -0.0393
     64 H141       -1.5995   10.8607   -2.3043 H         1 COA        -0.0393
     65 H142       -2.9149   10.4873   -1.1878 H         1 COA        -0.0393
     66 H143       -2.4255    9.3094   -2.4205 H         1 COA        -0.0393
     67 H10         0.3192   10.1040    0.8613 H         1 COA        -0.0393
     68 HO1        -0.5280   11.9349   -1.1241 H         1 COA         0.2010
     69 HN8        -0.3169   12.9488    0.9903 H         1 COA         0.0865
     70 H71        -2.4640   12.8013    2.9840 H         1 COA        -0.0393
     71 H72        -1.3358   14.1319    2.7201 H         1 COA        -0.0393
     72 H61        -3.6520   14.7607    1.9945 H         1 COA        -0.0393
     73 H62        -3.6800   13.3900    0.8773 H         1 COA        -0.0393
     74 HN4        -4.1011   14.5924   -0.8274 H         1 COA         0.0865
     75 H31        -1.7638   15.8246   -2.0649 H         1 COA        -0.0393
     76 H32        -3.2537   15.3257   -2.8773 H         1 COA        -0.0393
     77 H21        -2.8720   17.8144   -1.0866 H         1 COA        -0.0393
     78 H22        -3.0412   17.8140   -2.8500 H         1 COA        -0.0393
     79 HS1        -5.4202   16.7861   -2.9235 H         1 COA         0.1718
@<TRIPOS>BOND
     1    1    2 ar
     2    1    6 ar
     3    2    3 ar
     4    2   49 1
     5    3    4 ar
     6    4    5 ar
     7    4   10 ar
     8    5    6 ar
     9    5    8 ar
    10    6    7 1
    11    7   50 1
    12    7   51 1
    13    8    9 ar
    14    9   10 ar
    15    9   52 1
    16   10   11 1
    17   11   12 1
    18   11   21 1
    19   11   53 1
    20   12   13 1
    21   12   14 1
    22   12   54 1
    23   14   15 1
    24   14   20 1
    25   14   55 1
    26   15   16 1
    27   16   17 2
    28   16   18 1
    29   16   19 1
    30   20   21 1
    31   20   22 1
    32   20   56 1
    33   22   23 1
    34   22   57 1
    35   22   58 1
    36   23   24 1
    37   24   25 2
    38   24   26 1
    39   24   27 1
    40   27   28 1
    41   28   29 2
    42   28   30 1
    43   28   31 1
    44   31   33 1
    45   32   33 1
    46   32   34 1
    47   32   35 1
    48   32   36 1
    49   33   59 1
    50   33   60 1
    51   34   61 1
    52   34   62 1
    53   34   63 1
    54   35   64 1
    55   35   65 1
    56   35   66 1
    57   36   37 1
    58   36   38 1
    59   36   67 1
    60   37   68 1
    61   38   39 2
    62   38   40 am
    63   40   41 1
    64   40   69 1
    65   41   42 1
    66   41   70 1
    67   41   71 1
    68   42   43 1
    69   42   72 1
    70   42   73 1
    71   43   44 2
    72   43   45 am
    73   45   46 1
    74   45   74 1
    75   46   47 1
    76   46   75 1
    77   46   76 1
    78   47   48 1
    79   47   77 1
    80   47   78 1
    81   48   79 1
@<TRIPOS>SUBSTRUCTURE
     1 COA         1 GROUP 0 A     ****
@<TRIPOS>MOLECULE
[5-(6-aminopurin-9-yl)-2-[[[[3-hydroxy-2,2-dimethyl-4-oxo-4-[[3-oxo-3-(2-sulfanylethylamino)propyl]amino]butoxy]-oxido-phosphoryl]oxy-oxido-phosphoryl]oxymethyl]-4-oxido-tetrahydrofuran-3-yl] phosphate
   79    81     1     0     0
SMALL
USER_CHARGES

@<TRIPOS>ATOM
      1 N1A        -3.9039    2.4517    1.8283 N.ar      1 COA        -0.5260
      2 C2A        -3.3295    3.2614    0.9063 C.ar      1 COA         0.6629
      3 N3A        -2.9870    2.9823   -0.3704 N.ar      1 COA        -0.5260
      4 C4A        -3.2951    1.7119   -0.6714 C.ar      1 COA         0.5212
      5 C5A        -3.8810    0.7714    0.1608 C.ar      1 COA         0.0088
      6 C6A        -4.1878    1.1807    1.4546 C.ar      1 COA         0.5212
      7 N6A        -4.7836    0.2924    2.3662 N.pl3     1 COA        -0.6025
      8 N7A        -4.0438   -0.4230   -0.4949 N.2       1 COA        -0.4271
      9 C8A        -3.5659   -0.2124   -1.7036 C.ar      1 COA         0.5691
     10 N9A        -3.1003    1.0663   -1.8591 N.pl3     1 COA        -0.5033
     11 C1B        -2.4828    1.6438   -3.1175 C.3       1 COA         0.2693
     12 C2B        -3.1527    2.8675   -3.7856 C.3       1 COA         0.2008
     13 O2B        -4.0894    2.4850   -4.6336 O.co2     1 COA        -0.1615
     14 C3B        -1.9491    3.4718   -4.5260 C.3       1 COA         0.1111
     15 O3B        -1.5961    2.7353   -5.7012 O.3       1 COA         0.1618
     16 P3B        -0.6948    3.4882   -6.8546 P.3       1 COA        -1.1921
     17 O7A        -1.5419    4.6766   -7.3000 O.co2     1 COA         0.3195
     18 O8A        -0.5270    2.4117   -7.9228 O.co2     1 COA         0.3195
     19 O9A         0.6037    3.8701   -6.1501 O.co2     1 COA         0.3195
     20 C4B        -0.8155    3.2705   -3.5257 C.3       1 COA         0.1111
     21 O4B        -1.1344    2.0698   -2.7962 O.3       1 COA        -0.1436
     22 C5B        -0.6774    4.4099   -2.5246 C.3       1 COA         0.1504
     23 O5B         0.3986    4.1249   -1.6460 O.3       1 COA         0.1618
     24 P1A         0.7670    5.1936   -0.4641 P.3       1 COA        -1.1062
     25 O1A         1.1289    6.5260   -1.0837 O.co2     1 COA         0.3195
     26 O2A         1.6876    4.5161    0.5275 O.co2     1 COA         0.3195
     27 O3A        -0.6886    5.3125    0.2679 O.3       1 COA         0.4672
     28 P2A        -1.1429    6.2040    1.5594 P.3       1 COA        -1.1062
     29 O4A        -2.6377    6.0612    1.7476 O.co2     1 COA         0.3195
     30 O5A        -0.1888    5.9134    2.6974 O.co2     1 COA         0.3195
     31 O6A        -0.8065    7.6957    0.9792 O.3       1 COA         0.1618
     32 CBP        -1.0090    9.5771   -0.5793 C.3       1 COA         0.0000
     33 CCP        -1.4652    8.1470   -0.1994 C.3       1 COA         0.1504
     34 CDP         0.5182    9.5632   -0.8289 C.3       1 COA         0.1179
     35 CEP        -1.6888   10.0085   -1.8940 C.3       1 COA         0.1179
     36 CAP        -1.3149   10.5877    0.5658 C.3       1 COA         0.0611
     37 OAP        -0.6287   10.1955    1.7518 O.3       1 COA        -0.2728
     38 C9P        -0.8916   12.0249    0.2699 C.2       1 COA         0.3561
     39 O9P         0.2422   12.4378    0.5067 O.2       1 COA        -0.2391
     40 N8P        -1.9050   12.7747   -0.3052 N.am      1 COA        -0.1909
     41 C7P        -1.7368   14.1547   -0.6986 C.3       1 COA         0.1160
     42 C6P        -1.2514   14.2219   -2.1393 C.3       1 COA         0.0286
     43 C5P        -2.2251   13.5770   -3.1093 C.2       1 COA         0.3561
     44 O5P        -3.2821   13.0607   -2.7570 O.2       1 COA        -0.2391
     45 N4P        -1.7656   13.6483   -4.4162 N.am      1 COA        -0.1909
     46 C3P        -2.4991   13.1084   -5.5378 C.3       1 COA         0.1160
     47 C2P        -2.1434   11.6602   -5.8315 C.3       1 COA         0.2607
     48 S1P        -0.3810   11.4490   -6.2276 S.3       1 COA        -0.3539
     49 H2A        -3.1164    4.2717    1.2395 H         1 COA        -0.1369
     50 H61A       -4.9530    0.5922    3.3076 H         1 COA         0.2048
     51 H62A       -4.9456   -0.6585    2.0932 H         1 COA         0.2048
     52 H8A        -3.5298   -0.9412   -2.5018 H         1 COA        -0.1292
     53 H1B        -2.3698    0.7525   -3.8030 H         1 COA        -0.0393
     54 H2B        -3.4073    3.5789   -2.9846 H         1 COA        -0.0393
     55 H3B        -2.0891    4.5191   -4.8158 H         1 COA        -0.0393
     56 H4B         0.1478    3.1100   -4.0235 H         1 COA        -0.0393
     57 H51A       -1.5937    4.5171   -1.9365 H         1 COA        -0.0393
     58 H52A       -0.4707    5.3519   -3.0411 H         1 COA        -0.0393
     59 H121       -1.2324    7.4355   -0.9984 H         1 COA        -0.0393
     60 H122       -2.5440    8.1138   -0.0133 H         1 COA        -0.0393
     61 H131        0.8796   10.5616   -1.1013 H         1 COA        -0.0393
     62 H132        0.7886    8.8842   -1.6454 H         1 COA        -0.0393
     63 H133        1.0681    9.2399    0.0618 H         1 COA        -0.0393
     64 H141       -1.3855   11.0192   -2.1904 H         1 COA        -0.0393
     65 H142       -2.7797   10.0132   -1.7903 H         1 COA        -0.0393
     66 H143       -1.4280    9.3402   -2.7211 H         1 COA        -0.0393
     67 H10        -2.3880   10.5770    0.7950 H         1 COA        -0.0393
     68 HO1         0.3169   10.1957    1.5366 H         1 COA         0.2010
     69 HN8        -2.8042   12.3405   -0.4899 H         1 COA         0.0865
     70 H71        -2.6911   14.6793   -0.5876 H         1 COA        -0.0393
     71 H72        -1.0190   14.6354   -0.0263 H         1 COA        -0.0393
     72 H61        -0.2828   13.7155   -2.2344 H         1 COA        -0.0393
     73 H62        -1.1061   15.2673   -2.4393 H         1 COA        -0.0393
     74 HN4        -0.8732   14.1003   -4.5926 H         1 COA         0.0865
     75 H31        -3.5573   13.1811   -5.2734 H         1 COA        -0.0393
     76 H32        -2.3194   13.7612   -6.3958 H         1 COA        -0.0393
     77 H21        -2.3872   11.0155   -4.9808 H         1 COA        -0.0393
     78 H22        -2.7204   11.3144   -6.6949 H         1 COA        -0.0393
     79 HS1         0.0804   11.9173   -5.0604 H         1 COA         0.1718
@<TRIPOS>BOND
     1    1    2 ar
     2    1    6 ar
     3    2    3 ar
     4    2   49 1
     5    3    4 ar
     6    4    5 ar
     7    4   10 ar
     8    5    6 ar
     9    5    8 ar
    10    6    7 1
    11    7   50 1
    12    7   51 1
    13    8    9 ar
    14    9   10 ar
    15    9   52 1
    16   10   11 1
    17   11   12 1
    18   11   21 1
    19   11   53 1
    20   12   13 1
    21   12   14 1
    22   12   54 1
    23   14   15 1
    24   14   20 1
    25   14   55 1
    26   15   16 1
    27   16   17 2
    28   16   18 1
    29   16   19 1
    30   20   21 1
    31   20   22 1
    32   20   56 1
    33   22   23 1
    34   22   57 1
    35   22   58 1
    36   23   24 1
    37   24   25 2
    38   24   26 1
    39   24   27 1
    40   27   28 1
    41   28   29 2
    42   28   30 1
    43   28   31 1
    44   31   33 1
    45   32   33 1
    46   32   34 1
    47   32   35 1
    48   32   36 1
    49   33   59 1
    50   33   60 1
    51   34   61 1
    52   34   62 1
    53   34   63 1
    54   35   64 1
    55   35   65 1
    56   35   66 1
    57   36   37 1
    58   36   38 1
    59   36   67 1
    60   37   68 1
    61   38   39 2
    62   38   40 am
    63   40   41 1
    64   40   69 1
    65   41   42 1
    66   41   70 1
    67   41   71 1
    68   42   43 1
    69   42   72 1
    70   42   73 1
    71   43   44 2
    72   43   45 am
    73   45   46 1
    74   45   74 1
    75   46   47 1
    76   46   75 1
    77   46   76 1
    78   47   48 1
    79   47   77 1
    80   47   78 1
    81   48   79 1
@<TRIPOS>SUBSTRUCTURE
     1 COA         1 GROUP 0 A     ****
@<TRIPOS>MOLECULE
[5-(6-aminopurin-9-yl)-2-[[[[3-hydroxy-2,2-dimethyl-4-oxo-4-[[3-oxo-3-(2-sulfanylethylamino)propyl]amino]butoxy]-oxido-phosphoryl]oxy-oxido-phosphoryl]oxymethyl]-4-oxido-tetrahydrofuran-3-yl] phosphate
   79    81     1     0     0
SMALL
USER_CHARGES

@<TRIPOS>ATOM
      1 N1A        -3.9039    2.4517    1.8283 N.ar      1 COA        -0.5260
      2 C2A        -3.3295    3.2614    0.9063 C.ar      1 COA         0.6629
      3 N3A        -2.9870    2.9823   -0.3704 N.ar      1 COA        -0.5260
      4 C4A        -3.2951    1.7119   -0.6714 C.ar      1 COA         0.5212
      5 C5A        -3.8810    0.7714    0.1608 C.ar      1 COA         0.0088
      6 C6A        -4.1878    1.1807    1.4546 C.ar      1 COA         0.5212
      7 N6A        -4.7836    0.2924    2.3662 N.pl3     1 COA        -0.6025
      8 N7A        -4.0438   -0.4230   -0.4949 N.2       1 COA        -0.4271
      9 C8A        -3.5659   -0.2124   -1.7036 C.ar      1 COA         0.5691
     10 N9A        -3.1003    1.0663   -1.8591 N.pl3     1 COA        -0.5033
     11 C1B        -2.4828    1.6438   -3.1175 C.3       1 COA         0.2693
     12 C2B        -3.1527    2.8675   -3.7856 C.3       1 COA         0.2008
     13 O2B        -4.0894    2.4850   -4.6336 O.co2     1 COA        -0.1615
     14 C3B        -1.9491    3.4718   -4.5260 C.3       1 COA         0.1111
     15 O3B        -1.5961    2.7353   -5.7012 O.3       1 COA         0.1618
     16 P3B        -0.6948    3.4882   -6.8546 P.3       1 COA        -1.1921
     17 O7A        -1.5419    4.6766   -7.3000 O.co2     1 COA         0.3195
     18 O8A        -0.5270    2.4117   -7.9228 O.co2     1 COA         0.3195
     19 O9A         0.6037    3.8701   -6.1501 O.co2     1 COA         0.3195
     20 C4B        -0.8155    3.2705   -3.5257 C.3       1 COA         0.1111
     21 O4B        -1.1344    2.0698   -2.7962 O.3       1 COA        -0.1436
     22 C5B        -0.6774    4.4099   -2.5246 C.3       1 COA         0.1504
     23 O5B         0.3986    4.1249   -1.6460 O.3       1 COA         0.1618
     24 P1A         0.7670    5.1936   -0.4641 P.3       1 COA        -1.1062
     25 O1A         1.1289    6.5260   -1.0837 O.co2     1 COA         0.3195
     26 O2A         1.6876    4.5161    0.5275 O.co2     1 COA         0.3195
     27 O3A        -0.6886    5.3125    0.2679 O.3       1 COA         0.4672
     28 P2A        -1.1429    6.2040    1.5594 P.3       1 COA        -1.1062
     29 O4A        -2.6377    6.0612    1.7476 O.co2     1 COA         0.3195
     30 O5A        -0.1888    5.9134    2.6974 O.co2     1 COA         0.3195
     31 O6A        -0.8065    7.6957    0.9792 O.3       1 COA         0.1618
     32 CBP        -1.0090    9.5771   -0.5793 C.3       1 COA         0.0000
     33 CCP        -1.4652    8.1470   -0.1994 C.3       1 COA         0.1504
     34 CDP         0.5182    9.5632   -0.8289 C.3       1 COA         0.1179
     35 CEP        -1.6888   10.0085   -1.8940 C.3       1 COA         0.1179
     36 CAP        -1.3149   10.5877    0.5658 C.3       1 COA         0.0611
     37 OAP        -2.7163   10.6149    0.8239 O.3       1 COA        -0.2728
     38 C9P        -0.6314   10.2649    1.8928 C.2       1 COA         0.3561
     39 O9P        -1.1331    9.5097    2.7236 O.2       1 COA        -0.2391
     40 N8P         0.5984   10.8887    2.0282 N.am      1 COA        -0.1909
     41 C7P         1.4450   10.7163    3.1861 C.3       1 COA         0.1160
     42 C6P         2.3820    9.5376    2.9657 C.3       1 COA         0.0286
     43 C5P         3.3027    9.3002    4.1492 C.2       1 COA         0.3561
     44 O5P         3.2843    9.9910    5.1643 O.2       1 COA        -0.2391
     45 N4P         4.1483    8.2228    3.9296 N.am      1 COA        -0.1909
     46 C3P         5.1273    7.7820    4.8964 C.3       1 COA         0.1160
     47 C2P         4.5773    6.7420    5.8587 C.3       1 COA         0.2607
     48 S1P         3.9999    5.2455    5.0014 S.3       1 COA        -0.3539
     49 H2A        -3.1164    4.2717    1.2395 H         1 COA        -0.1369
     50 H61A       -4.9530    0.5922    3.3076 H         1 COA         0.2048
     51 H62A       -4.9456   -0.6585    2.0932 H         1 COA         0.2048
     52 H8A        -3.5298   -0.9412   -2.5018 H         1 COA        -0.1292
     53 H1B        -2.3698    0.7525   -3.8030 H         1 COA        -0.0393
     54 H2B        -3.4073    3.5789   -2.9846 H         1 COA        -0.0393
     55 H3B        -2.0891    4.5191   -4.8158 H         1 COA        -0.0393
     56 H4B         0.1478    3.1100   -4.0235 H         1 COA        -0.0393
     57 H51A       -1.5937    4.5171   -1.9365 H         1 COA        -0.0393
     58 H52A       -0.4707    5.3519   -3.0411 H         1 COA        -0.0393
     59 H121       -1.2324    7.4355   -0.9984 H         1 COA        -0.0393
     60 H122       -2.5440    8.1138   -0.0133 H         1 COA        -0.0393
     61 H131        0.8796   10.5616   -1.1013 H         1 COA        -0.0393
     62 H132        0.7886    8.8842   -1.6454 H         1 COA        -0.0393
     63 H133        1.0681    9.2399    0.0618 H         1 COA        -0.0393
     64 H141       -1.3855   11.0192   -2.1904 H         1 COA        -0.0393
     65 H142       -2.7797   10.0132   -1.7903 H         1 COA        -0.0393
     66 H143       -1.4280    9.3402   -2.7211 H         1 COA        -0.0393
     67 H10        -1.0237   11.5996    0.2569 H         1 COA        -0.0393
     68 HO1        -2.9668    9.7148    1.0837 H         1 COA         0.2010
     69 HN8         0.9463   11.4752    1.2758 H         1 COA         0.0865
     70 H71         2.0143   11.6358    3.3556 H         1 COA        -0.0393
     71 H72         0.8185   10.5520    4.0685 H         1 COA        -0.0393
     72 H61         3.0005    9.7094    2.0760 H         1 COA        -0.0393
     73 H62         1.8018    8.6229    2.7903 H         1 COA        -0.0393
     74 HN4         4.0760    7.7211    3.0493 H         1 COA         0.0865
     75 H31         5.9515    7.3519    4.3213 H         1 COA        -0.0393
     76 H32         5.5028    8.6681    5.4145 H         1 COA        -0.0393
     77 H21         5.3329    6.4498    6.5952 H         1 COA        -0.0393
     78 H22         3.7239    7.1644    6.3982 H         1 COA        -0.0393
     79 HS1         3.0778    5.8628    4.2510 H         1 COA         0.1718
@<TRIPOS>BOND
     1    1    2 ar
     2    1    6 ar
     3    2    3 ar
     4    2   49 1
     5    3    4 ar
     6    4    5 ar
     7    4   10 ar
     8    5    6 ar
     9    5    8 ar
    10    6    7 1
    11    7   50 1
    12    7   51 1
    13    8    9 ar
    14    9   10 ar
    15    9   52 1
    16   10   11 1
    17   11   12 1
    18   11   21 1
    19   11   53 1
    20   12   13 1
    21   12   14 1
    22   12   54 1
    23   14   15 1
    24   14   20 1
    25   14   55 1
    26   15   16 1
    27   16   17 2
    28   16   18 1
    29   16   19 1
    30   20   21 1
    31   20   22 1
    32   20   56 1
    33   22   23 1
    34   22   57 1
    35   22   58 1
    36   23   24 1
    37   24   25 2
    38   24   26 1
    39   24   27 1
    40   27   28 1
    41   28   29 2
    42   28   30 1
    43   28   31 1
    44   31   33 1
    45   32   33 1
    46   32   34 1
    47   32   35 1
    48   32   36 1
    49   33   59 1
    50   33   60 1
    51   34   61 1
    52   34   62 1
    53   34   63 1
    54   35   64 1
    55   35   65 1
    56   35   66 1
    57   36   37 1
    58   36   38 1
    59   36   67 1
    60   37   68 1
    61   38   39 2
    62   38   40 am
    63   40   41 1
    64   40   69 1
    65   41   42 1
    66   41   70 1
    67   41   71 1
    68   42   43 1
    69   42   72 1
    70   42   73 1
    71   43   44 2
    72   43   45 am
    73   45   46 1
    74   45   74 1
    75   46   47 1
    76   46   75 1
    77   46   76 1
    78   47   48 1
    79   47   77 1
    80   47   78 1
    81   48   79 1
@<TRIPOS>SUBSTRUCTURE
     1 COA         1 GROUP 0 A     ****
@<TRIPOS>MOLECULE
[5-(6-aminopurin-9-yl)-2-[[[[3-hydroxy-2,2-dimethyl-4-oxo-4-[[3-oxo-3-(2-sulfanylethylamino)propyl]amino]butoxy]-oxido-phosphoryl]oxy-oxido-phosphoryl]oxymethyl]-4-oxido-tetrahydrofuran-3-yl] phosphate
   79    81     1     0     0
SMALL
USER_CHARGES

@<TRIPOS>ATOM
      1 N1A        -3.9039    2.4517    1.8283 N.ar      1 COA        -0.5260
      2 C2A        -3.3295    3.2614    0.9063 C.ar      1 COA         0.6629
      3 N3A        -2.9870    2.9823   -0.3704 N.ar      1 COA        -0.5260
      4 C4A        -3.2951    1.7119   -0.6714 C.ar      1 COA         0.5212
      5 C5A        -3.8810    0.7714    0.1608 C.ar      1 COA         0.0088
      6 C6A        -4.1878    1.1807    1.4546 C.ar      1 COA         0.5212
      7 N6A        -4.7836    0.2924    2.3662 N.pl3     1 COA        -0.6025
      8 N7A        -4.0438   -0.4230   -0.4949 N.2       1 COA        -0.4271
      9 C8A        -3.5659   -0.2124   -1.7036 C.ar      1 COA         0.5691
     10 N9A        -3.1003    1.0663   -1.8591 N.pl3     1 COA        -0.5033
     11 C1B        -2.4828    1.6438   -3.1175 C.3       1 COA         0.2693
     12 C2B        -3.1527    2.8675   -3.7856 C.3       1 COA         0.2008
     13 O2B        -4.0894    2.4850   -4.6336 O.co2     1 COA        -0.1615
     14 C3B        -1.9491    3.4718   -4.5260 C.3       1 COA         0.1111
     15 O3B        -1.5961    2.7353   -5.7012 O.3       1 COA         0.1618
     16 P3B        -0.6948    3.4882   -6.8546 P.3       1 COA        -1.1921
     17 O7A        -1.5419    4.6766   -7.3000 O.co2     1 COA         0.3195
     18 O8A        -0.5270    2.4117   -7.9228 O.co2     1 COA         0.3195
     19 O9A         0.6037    3.8701   -6.1501 O.co2     1 COA         0.3195
     20 C4B        -0.8155    3.2705   -3.5257 C.3       1 COA         0.1111
     21 O4B        -1.1344    2.0698   -2.7962 O.3       1 COA        -0.1436
     22 C5B        -0.6774    4.4099   -2.5246 C.3       1 COA         0.1504
     23 O5B         0.3986    4.1249   -1.6460 O.3       1 COA         0.1618
     24 P1A         0.7670    5.1936   -0.4641 P.3       1 COA        -1.1062
     25 O1A         1.1289    6.5260   -1.0837 O.co2     1 COA         0.3195
     26 O2A         1.6876    4.5161    0.5275 O.co2     1 COA         0.3195
     27 O3A        -0.6886    5.3125    0.2679 O.3       1 COA         0.4672
     28 P2A        -1.1429    6.2040    1.5594 P.3       1 COA        -1.1062
     29 O4A        -2.6377    6.0612    1.7476 O.co2     1 COA         0.3195
     30 O5A        -0.1888    5.9134    2.6974 O.co2     1 COA         0.3195
     31 O6A        -0.8065    7.6957    0.9792 O.3       1 COA         0.1618
     32 CBP        -1.0090    9.5771   -0.5793 C.3       1 COA         0.0000
     33 CCP        -1.4652    8.1470   -0.1994 C.3       1 COA         0.1504
     34 CDP         0.5182    9.5632   -0.8289 C.3       1 COA         0.1179
     35 CEP        -1.6888   10.0085   -1.8940 C.3       1 COA         0.1179
     36 CAP        -1.3149   10.5877    0.5658 C.3       1 COA         0.0611
     37 OAP        -0.6287   10.1955    1.7518 O.3       1 COA        -0.2728
     38 C9P        -0.8916   12.0249    0.2699 C.2       1 COA         0.3561
     39 O9P         0.2422   12.4378    0.5067 O.2       1 COA        -0.2391
     40 N8P        -1.9050   12.7747   -0.3052 N.am      1 COA        -0.1909
     41 C7P        -1.7368   14.1547   -0.6986 C.3       1 COA         0.1160
     42 C6P        -1.2514   14.2219   -2.1393 C.3       1 COA         0.0286
     43 C5P        -1.0533   15.6490   -2.6178 C.2       1 COA         0.3561
     44 O5P        -1.2665   16.6306   -1.9114 O.2       1 COA        -0.2391
     45 N4P        -0.6112   15.6896   -3.9320 N.am      1 COA        -0.1909
     46 C3P        -0.3453   16.9241   -4.6341 C.3       1 COA         0.1160
     47 C2P        -1.5651   17.4594   -5.3660 C.3       1 COA         0.2607
     48 S1P        -2.1908   16.2908   -6.6112 S.3       1 COA        -0.3539
     49 H2A        -3.1164    4.2717    1.2395 H         1 COA        -0.1369
     50 H61A       -4.9530    0.5922    3.3076 H         1 COA         0.2048
     51 H62A       -4.9456   -0.6585    2.0932 H         1 COA         0.2048
     52 H8A        -3.5298   -0.9412   -2.5018 H         1 COA        -0.1292
     53 H1B        -2.3698    0.7525   -3.8030 H         1 COA        -0.0393
     54 H2B        -3.4073    3.5789   -2.9846 H         1 COA        -0.0393
     55 H3B        -2.0891    4.5191   -4.8158 H         1 COA        -0.0393
     56 H4B         0.1478    3.1100   -4.0235 H         1 COA        -0.0393
     57 H51A       -1.5937    4.5171   -1.9365 H         1 COA        -0.0393
     58 H52A       -0.4707    5.3519   -3.0411 H         1 COA        -0.0393
     59 H121       -1.2324    7.4355   -0.9984 H         1 COA        -0.0393
     60 H122       -2.5440    8.1138   -0.0133 H         1 COA        -0.0393
     61 H131        0.8796   10.5616   -1.1013 H         1 COA        -0.0393
     62 H132        0.7886    8.8842   -1.6454 H         1 COA        -0.0393
     63 H133        1.0681    9.2399    0.0618 H         1 COA        -0.0393
     64 H141       -1.3855   11.0192   -2.1904 H         1 COA        -0.0393
     65 H142       -2.7797   10.0132   -1.7903 H         1 COA        -0.0393
     66 H143       -1.4280    9.3402   -2.7211 H         1 COA        -0.0393
     67 H10        -2.3880   10.5770    0.7950 H         1 COA        -0.0393
     68 HO1         0.3169   10.1957    1.5366 H         1 COA         0.2010
     69 HN8        -2.8042   12.3405   -0.4899 H         1 COA         0.0865
     70 H71        -2.6911   14.6793   -0.5876 H         1 COA        -0.0393
     71 H72        -1.0190   14.6354   -0.0263 H         1 COA        -0.0393
     72 H61        -1.9744   13.7322   -2.8035 H         1 COA        -0.0393
     73 H62        -0.2983   13.6879   -2.2410 H         1 COA        -0.0393
     74 HN4        -0.4679   14.8119   -4.4228 H         1 COA         0.0865
     75 H31        -0.0262   17.6435   -3.8755 H         1 COA        -0.0393
     76 H32         0.4970   16.7468   -5.3076 H         1 COA        -0.0393
     77 H21        -2.3754   17.6861   -4.6654 H         1 COA        -0.0393
     78 H22        -1.2975   18.3848   -5.8855 H         1 COA        -0.0393
     79 HS1        -2.4412   15.2939   -5.7522 H         1 COA         0.1718
@<TRIPOS>BOND
     1    1    2 ar
     2    1    6 ar
     3    2    3 ar
     4    2   49 1
     5    3    4 ar
     6    4    5 ar
     7    4   10 ar
     8    5    6 ar
     9    5    8 ar
    10    6    7 1
    11    7   50 1
    12    7   51 1
    13    8    9 ar
    14    9   10 ar
    15    9   52 1
    16   10   11 1
    17   11   12 1
    18   11   21 1
    19   11   53 1
    20   12   13 1
    21   12   14 1
    22   12   54 1
    23   14   15 1
    24   14   20 1
    25   14   55 1
    26   15   16 1
    27   16   17 2
    28   16   18 1
    29   16   19 1
    30   20   21 1
    31   20   22 1
    32   20   56 1
    33   22   23 1
    34   22   57 1
    35   22   58 1
    36   23   24 1
    37   24   25 2
    38   24   26 1
    39   24   27 1
    40   27   28 1
    41   28   29 2
    42   28   30 1
    43   28   31 1
    44   31   33 1
    45   32   33 1
    46   32   34 1
    47   32   35 1
    48   32   36 1
    49   33   59 1
    50   33   60 1
    51   34   61 1
    52   34   62 1
    53   34   63 1
    54   35   64 1
    55   35   65 1
    56   35   66 1
    57   36   37 1
    58   36   38 1
    59   36   67 1
    60   37   68 1
    61   38   39 2
    62   38   40 am
    63   40   41 1
    64   40   69 1
    65   41   42 1
    66   41   70 1
    67   41   71 1
    68   42   43 1
    69   42   72 1
    70   42   73 1
    71   43   44 2
    72   43   45 am
    73   45   46 1
    74   45   74 1
    75   46   47 1
    76   46   75 1
    77   46   76 1
    78   47   48 1
    79   47   77 1
    80   47   78 1
    81   48   79 1
@<TRIPOS>SUBSTRUCTURE
     1 COA         1 GROUP 0 A     ****
@<TRIPOS>MOLECULE
[5-(6-aminopurin-9-yl)-2-[[[[3-hydroxy-2,2-dimethyl-4-oxo-4-[[3-oxo-3-(2-sulfanylethylamino)propyl]amino]butoxy]-oxido-phosphoryl]oxy-oxido-phosphoryl]oxymethyl]-4-oxido-tetrahydrofuran-3-yl] phosphate
   79    81     1     0     0
SMALL
USER_CHARGES

@<TRIPOS>ATOM
      1 N1A        -3.9039    2.4517    1.8283 N.ar      1 COA        -0.5260
      2 C2A        -3.3295    3.2614    0.9063 C.ar      1 COA         0.6629
      3 N3A        -2.9870    2.9823   -0.3704 N.ar      1 COA        -0.5260
      4 C4A        -3.2951    1.7119   -0.6714 C.ar      1 COA         0.5212
      5 C5A        -3.8810    0.7714    0.1608 C.ar      1 COA         0.0088
      6 C6A        -4.1878    1.1807    1.4546 C.ar      1 COA         0.5212
      7 N6A        -4.7836    0.2924    2.3662 N.pl3     1 COA        -0.6025
      8 N7A        -4.0438   -0.4230   -0.4949 N.2       1 COA        -0.4271
      9 C8A        -3.5659   -0.2124   -1.7036 C.ar      1 COA         0.5691
     10 N9A        -3.1003    1.0663   -1.8591 N.pl3     1 COA        -0.5033
     11 C1B        -2.4828    1.6438   -3.1175 C.3       1 COA         0.2693
     12 C2B        -3.1527    2.8675   -3.7856 C.3       1 COA         0.2008
     13 O2B        -4.0894    2.4850   -4.6336 O.co2     1 COA        -0.1615
     14 C3B        -1.9491    3.4718   -4.5260 C.3       1 COA         0.1111
     15 O3B        -1.5961    2.7353   -5.7012 O.3       1 COA         0.1618
     16 P3B        -0.6948    3.4882   -6.8546 P.3       1 COA        -1.1921
     17 O7A        -1.5419    4.6766   -7.3000 O.co2     1 COA         0.3195
     18 O8A        -0.5270    2.4117   -7.9228 O.co2     1 COA         0.3195
     19 O9A         0.6037    3.8701   -6.1501 O.co2     1 COA         0.3195
     20 C4B        -0.8155    3.2705   -3.5257 C.3       1 COA         0.1111
     21 O4B        -1.1344    2.0698   -2.7962 O.3       1 COA        -0.1436
     22 C5B        -0.6774    4.4099   -2.5246 C.3       1 COA         0.1504
     23 O5B         0.3986    4.1249   -1.6460 O.3       1 COA         0.1618
     24 P1A         0.7670    5.1936   -0.4641 P.3       1 COA        -1.1062
     25 O1A         1.1289    6.5260   -1.0837 O.co2     1 COA         0.3195
     26 O2A         1.6876    4.5161    0.5275 O.co2     1 COA         0.3195
     27 O3A        -0.6886    5.3125    0.2679 O.3       1 COA         0.4672
     28 P2A        -1.1429    6.2040    1.5594 P.3       1 COA        -1.1062
     29 O4A        -2.6377    6.0612    1.7476 O.co2     1 COA         0.3195
     30 O5A        -0.1888    5.9134    2.6974 O.co2     1 COA         0.3195
     31 O6A        -0.8065    7.6957    0.9792 O.3       1 COA         0.1618
     32 CBP        -1.0090    9.5771   -0.5793 C.3       1 COA         0.0000
     33 CCP        -1.4652    8.1470   -0.1994 C.3       1 COA         0.1504
     34 CDP         0.5182    9.5632   -0.8289 C.3       1 COA         0.1179
     35 CEP        -1.6888   10.0085   -1.8940 C.3       1 COA         0.1179
     36 CAP        -1.3149   10.5877    0.5658 C.3       1 COA         0.0611
     37 OAP        -0.3519   11.6382    0.5524 O.3       1 COA        -0.2728
     38 C9P        -2.6876   11.2507    0.4734 C.2       1 COA         0.3561
     39 O9P        -2.8806   12.2731   -0.1822 O.2       1 COA        -0.2391
     40 N8P        -3.6636   10.5632    1.1768 N.am      1 COA        -0.1909
     41 C7P        -5.0458   10.9816    1.2180 C.3       1 COA         0.1160
     42 C6P        -5.8119   10.3347    0.0732 C.3       1 COA         0.0286
     43 C5P        -5.7825    8.8183    0.1403 C.2       1 COA         0.3561
     44 O5P        -5.2001    8.1958    1.0242 O.2       1 COA        -0.2391
     45 N4P        -6.4855    8.2475   -0.9105 N.am      1 COA        -0.1909
     46 C3P        -6.6139    6.8191   -1.0863 C.3       1 COA         0.1160
     47 C2P        -7.8333    6.2468   -0.3823 C.3       1 COA         0.2607
     48 S1P        -7.9823    4.4488   -0.6120 S.3       1 COA        -0.3539
     49 H2A        -3.1164    4.2717    1.2395 H         1 COA        -0.1369
     50 H61A       -4.9530    0.5922    3.3076 H         1 COA         0.2048
     51 H62A       -4.9456   -0.6585    2.0932 H         1 COA         0.2048
     52 H8A        -3.5298   -0.9412   -2.5018 H         1 COA        -0.1292
     53 H1B        -2.3698    0.7525   -3.8030 H         1 COA        -0.0393
     54 H2B        -3.4073    3.5789   -2.9846 H         1 COA        -0.0393
     55 H3B        -2.0891    4.5191   -4.8158 H         1 COA        -0.0393
     56 H4B         0.1478    3.1100   -4.0235 H         1 COA        -0.0393
     57 H51A       -1.5937    4.5171   -1.9365 H         1 COA        -0.0393
     58 H52A       -0.4707    5.3519   -3.0411 H         1 COA        -0.0393
     59 H121       -1.2324    7.4355   -0.9984 H         1 COA        -0.0393
     60 H122       -2.5440    8.1138   -0.0133 H         1 COA        -0.0393
     61 H131        0.8796   10.5616   -1.1013 H         1 COA        -0.0393
     62 H132        0.7886    8.8842   -1.6454 H         1 COA        -0.0393
     63 H133        1.0681    9.2399    0.0618 H         1 COA        -0.0393
     64 H141       -1.3855   11.0192   -2.1904 H         1 COA        -0.0393
     65 H142       -2.7797   10.0132   -1.7903 H         1 COA        -0.0393
     66 H143       -1.4280    9.3402   -2.7211 H         1 COA        -0.0393
     67 H10        -1.2314   10.0854    1.5378 H         1 COA        -0.0393
     68 HO1        -0.4241   12.0681   -0.3139 H         1 COA         0.2010
     69 HN8        -3.4169    9.7096    1.6684 H         1 COA         0.0865
     70 H71        -5.4791   10.6972    2.1821 H         1 COA        -0.0393
     71 H72        -5.0936   12.0728    1.1469 H         1 COA        -0.0393
     72 H61        -5.3857   10.6461   -0.8886 H         1 COA        -0.0393
     73 H62        -6.8593   10.6611    0.0891 H         1 COA        -0.0393
     74 HN4        -6.9300    8.8613   -1.5868 H         1 COA         0.0865
     75 H31        -6.6980    6.6510   -2.1631 H         1 COA        -0.0393
     76 H32        -5.6838    6.3586   -0.7437 H         1 COA        -0.0393
     77 H21        -7.8019    6.4576    0.6916 H         1 COA        -0.0393
     78 H22        -8.7370    6.7088   -0.7919 H         1 COA        -0.0393
     79 HS1        -8.0688    4.4866   -1.9482 H         1 COA         0.1718
@<TRIPOS>BOND
     1    1    2 ar
     2    1    6 ar
     3    2    3 ar
     4    2   49 1
     5    3    4 ar
     6    4    5 ar
     7    4   10 ar
     8    5    6 ar
     9    5    8 ar
    10    6    7 1
    11    7   50 1
    12    7   51 1
    13    8    9 ar
    14    9   10 ar
    15    9   52 1
    16   10   11 1
    17   11   12 1
    18   11   21 1
    19   11   53 1
    20   12   13 1
    21   12   14 1
    22   12   54 1
    23   14   15 1
    24   14   20 1
    25   14   55 1
    26   15   16 1
    27   16   17 2
    28   16   18 1
    29   16   19 1
    30   20   21 1
    31   20   22 1
    32   20   56 1
    33   22   23 1
    34   22   57 1
    35   22   58 1
    36   23   24 1
    37   24   25 2
    38   24   26 1
    39   24   27 1
    40   27   28 1
    41   28   29 2
    42   28   30 1
    43   28   31 1
    44   31   33 1
    45   32   33 1
    46   32   34 1
    47   32   35 1
    48   32   36 1
    49   33   59 1
    50   33   60 1
    51   34   61 1
    52   34   62 1
    53   34   63 1
    54   35   64 1
    55   35   65 1
    56   35   66 1
    57   36   37 1
    58   36   38 1
    59   36   67 1
    60   37   68 1
    61   38   39 2
    62   38   40 am
    63   40   41 1
    64   40   69 1
    65   41   42 1
    66   41   70 1
    67   41   71 1
    68   42   43 1
    69   42   72 1
    70   42   73 1
    71   43   44 2
    72   43   45 am
    73   45   46 1
    74   45   74 1
    75   46   47 1
    76   46   75 1
    77   46   76 1
    78   47   48 1
    79   47   77 1
    80   47   78 1
    81   48   79 1
@<TRIPOS>SUBSTRUCTURE
     1 COA         1 GROUP 0 A     ****
@<TRIPOS>MOLECULE
[5-(6-aminopurin-9-yl)-2-[[[[3-hydroxy-2,2-dimethyl-4-oxo-4-[[3-oxo-3-(2-sulfanylethylamino)propyl]amino]butoxy]-oxido-phosphoryl]oxy-oxido-phosphoryl]oxymethyl]-4-oxido-tetrahydrofuran-3-yl] phosphate
   79    81     1     0     0
SMALL
USER_CHARGES

@<TRIPOS>ATOM
      1 N1A         6.3197    3.3711    0.1967 N.ar      1 COA        -0.5260
      2 C2A         5.0033    3.3256    0.5141 C.ar      1 COA         0.6629
      3 N3A         4.0730    2.4196    0.1418 N.ar      1 COA        -0.5260
      4 C4A         4.6208    1.4811   -0.6447 C.ar      1 COA         0.5212
      5 C5A         5.9423    1.3962   -1.0530 C.ar      1 COA         0.0088
      6 C6A         6.8050    2.3902   -0.6021 C.ar      1 COA         0.5212
      7 N6A         8.1621    2.3826   -0.9671 N.pl3     1 COA        -0.6025
      8 N7A         6.1335    0.2987   -1.8543 N.2       1 COA        -0.4271
      9 C8A         4.9500   -0.2731   -1.9316 C.ar      1 COA         0.5691
     10 N9A         4.0006    0.4065   -1.2155 N.pl3     1 COA        -0.5033
     11 C1B         2.5376    0.0288   -1.0907 C.3       1 COA         0.2693
     12 C2B         1.9579   -0.2640    0.3131 C.3       1 COA         0.2008
     13 O2B         2.1299   -1.5323    0.6368 O.co2     1 COA        -0.1615
     14 C3B         0.4729    0.0487    0.0699 C.3       1 COA         0.1111
     15 O3B        -0.1943   -0.9780   -0.6709 O.3       1 COA         0.1618
     16 P3B        -1.8364   -1.0586   -0.5907 P.3       1 COA        -1.1921
     17 O7A        -2.1459   -1.2889    0.8856 O.co2     1 COA         0.3195
     18 O8A        -2.1706   -2.2476   -1.4866 O.co2     1 COA         0.3195
     19 O9A        -2.3217    0.2823   -1.1335 O.co2     1 COA         0.3195
     20 C4B         0.5412    1.2713   -0.8394 C.3       1 COA         0.1111
     21 O4B         1.7485    1.1278   -1.6124 O.3       1 COA        -0.1436
     22 C5B         0.6184    2.5901   -0.0816 C.3       1 COA         0.1504
     23 O5B         0.6777    3.6562   -1.0149 O.3       1 COA         0.1618
     24 P1A         0.7670    5.1936   -0.4641 P.3       1 COA        -1.1062
     25 O1A         0.8194    6.1476   -1.6376 O.co2     1 COA         0.3195
     26 O2A         1.8029    5.2507    0.6375 O.co2     1 COA         0.3195
     27 O3A        -0.6886    5.3125    0.2679 O.3       1 COA         0.4672
     28 P2A        -1.1429    6.2040    1.5594 P.3       1 COA        -1.1062
     29 O4A        -2.6377    6.0612    1.7476 O.co2     1 COA         0.3195
     30 O5A        -0.1888    5.9134    2.6974 O.co2     1 COA         0.3195
     31 O6A        -0.8065    7.6957    0.9792 O.3       1 COA         0.1618
     32 CBP        -1.0463    9.4480   -0.7182 C.3       1 COA         0.0000
     33 CCP        -1.7297    8.3208    0.0940 C.3       1 COA         0.1504
     34 CDP         0.1097    8.8359   -1.5452 C.3       1 COA         0.1179
     35 CEP        -2.0542   10.0578   -1.7127 C.3       1 COA         0.1179
     36 CAP        -0.4581   10.5415    0.2222 C.3       1 COA         0.0611
     37 OAP         0.1628   11.5628   -0.5541 O.3       1 COA        -0.2728
     38 C9P        -1.4903   11.2331    1.1103 C.2       1 COA         0.3561
     39 O9P        -2.4782   10.6465    1.5487 O.2       1 COA        -0.2391
     40 N8P        -1.1708   12.5553    1.3741 N.am      1 COA        -0.1909
     41 C7P        -1.9814   13.4088    2.2118 C.3       1 COA         0.1160
     42 C6P        -1.5161   13.3009    3.6566 C.3       1 COA         0.0286
     43 C5P        -0.0670   13.7184    3.8313 C.2       1 COA         0.3561
     44 O5P         0.4818   14.5555    3.1199 O.2       1 COA        -0.2391
     45 N4P         0.5371   13.0383    4.8786 N.am      1 COA        -0.1909
     46 C3P         1.9156   13.2449    5.2587 C.3       1 COA         0.1160
     47 C2P         2.0814   14.3407    6.2988 C.3       1 COA         0.2607
     48 S1P         3.8209   14.5898    6.7677 S.3       1 COA        -0.3539
     49 H2A         4.6492    4.1260    1.1552 H         1 COA        -0.1369
     50 H61A        8.7564    3.1335   -0.6708 H         1 COA         0.2048
     51 H62A        8.4991    1.6788   -1.5963 H         1 COA         0.2048
     52 H8A         4.7208   -1.1726   -2.4865 H         1 COA        -0.1292
     53 H1B         2.4085   -0.8200   -1.8256 H         1 COA        -0.0393
     54 H2B         2.3286    0.5212    0.9904 H         1 COA        -0.0393
     55 H3B        -0.0977    0.2245    0.9885 H         1 COA        -0.0393
     56 H4B        -0.2996    1.3083   -1.5416 H         1 COA        -0.0393
     57 H51A        1.5144    2.6204    0.5455 H         1 COA        -0.0393
     58 H52A       -0.2654    2.7227    0.5494 H         1 COA        -0.0393
     59 H121       -2.1262    7.5446   -0.5686 H         1 COA        -0.0393
     60 H122       -2.5562    8.7139    0.6956 H         1 COA        -0.0393
     61 H131        0.6194    9.6060   -2.1356 H         1 COA        -0.0393
     62 H132       -0.2524    8.0744   -2.2449 H         1 COA        -0.0393
     63 H133        0.8566    8.3597   -0.9005 H         1 COA        -0.0393
     64 H141       -1.5995   10.8607   -2.3043 H         1 COA        -0.0393
     65 H142       -2.9149   10.4873   -1.1878 H         1 COA        -0.0393
     66 H143       -2.4255    9.3094   -2.4205 H         1 COA        -0.0393
     67 H10         0.3192   10.1040    0.8613 H         1 COA        -0.0393
     68 HO1        -0.5280   11.9349   -1.1241 H         1 COA         0.2010
     69 HN8        -0.3169   12.9488    0.9903 H         1 COA         0.0865
     70 H71        -1.9025   14.4412    1.8566 H         1 COA        -0.0393
     71 H72        -3.0307   13.1106    2.1205 H         1 COA        -0.0393
     72 H61        -1.6230   12.2680    4.0106 H         1 COA        -0.0393
     73 H62        -2.1384   13.9347    4.3010 H         1 COA        -0.0393
     74 HN4        -0.0146   12.3647    5.4018 H         1 COA         0.0865
     75 H31         2.2648   12.2933    5.6679 H         1 COA        -0.0393
     76 H32         2.4830   13.4496    4.3474 H         1 COA        -0.0393
     77 H21         1.6811   15.2923    5.9341 H         1 COA        -0.0393
     78 H22         1.5306   14.0662    7.2039 H         1 COA        -0.0393
     79 HS1         4.2512   14.9082    5.5398 H         1 COA         0.1718
@<TRIPOS>BOND
     1    1    2 ar
     2    1    6 ar
     3    2    3 ar
     4    2   49 1
     5    3    4 ar
     6    4    5 ar
     7    4   10 ar
     8    5    6 ar
     9    5    8 ar
    10    6    7 1
    11    7   50 1
    12    7   51 1
    13    8    9 ar
    14    9   10 ar
    15    9   52 1
    16   10   11 1
    17   11   12 1
    18   11   21 1
    19   11   53 1
    20   12   13 1
    21   12   14 1
    22   12   54 1
    23   14   15 1
    24   14   20 1
    25   14   55 1
    26   15   16 1
    27   16   17 2
    28   16   18 1
    29   16   19 1
    30   20   21 1
    31   20   22 1
    32   20   56 1
    33   22   23 1
    34   22   57 1
    35   22   58 1
    36   23   24 1
    37   24   25 2
    38   24   26 1
    39   24   27 1
    40   27   28 1
    41   28   29 2
    42   28   30 1
    43   28   31 1
    44   31   33 1
    45   32   33 1
    46   32   34 1
    47   32   35 1
    48   32   36 1
    49   33   59 1
    50   33   60 1
    51   34   61 1
    52   34   62 1
    53   34   63 1
    54   35   64 1
    55   35   65 1
    56   35   66 1
    57   36   37 1
    58   36   38 1
    59   36   67 1
    60   37   68 1
    61   38   39 2
    62   38   40 am
    63   40   41 1
    64   40   69 1
    65   41   42 1
    66   41   70 1
    67   41   71 1
    68   42   43 1
    69   42   72 1
    70   42   73 1
    71   43   44 2
    72   43   45 am
    73   45   46 1
    74   45   74 1
    75   46   47 1
    76   46   75 1
    77   46   76 1
    78   47   48 1
    79   47   77 1
    80   47   78 1
    81   48   79 1
@<TRIPOS>SUBSTRUCTURE
     1 COA         1 GROUP 0 A     ****
@<TRIPOS>MOLECULE
[5-(6-aminopurin-9-yl)-2-[[[[3-hydroxy-2,2-dimethyl-4-oxo-4-[[3-oxo-3-(2-sulfanylethylamino)propyl]amino]butoxy]-oxido-phosphoryl]oxy-oxido-phosphoryl]oxymethyl]-4-oxido-tetrahydrofuran-3-yl] phosphate
   79    81     1     0     0
SMALL
USER_CHARGES

@<TRIPOS>ATOM
      1 N1A        -3.9039    2.4517    1.8283 N.ar      1 COA        -0.5260
      2 C2A        -3.3295    3.2614    0.9063 C.ar      1 COA         0.6629
      3 N3A        -2.9870    2.9823   -0.3704 N.ar      1 COA        -0.5260
      4 C4A        -3.2951    1.7119   -0.6714 C.ar      1 COA         0.5212
      5 C5A        -3.8810    0.7714    0.1608 C.ar      1 COA         0.0088
      6 C6A        -4.1878    1.1807    1.4546 C.ar      1 COA         0.5212
      7 N6A        -4.7836    0.2924    2.3662 N.pl3     1 COA        -0.6025
      8 N7A        -4.0438   -0.4230   -0.4949 N.2       1 COA        -0.4271
      9 C8A        -3.5659   -0.2124   -1.7036 C.ar      1 COA         0.5691
     10 N9A        -3.1003    1.0663   -1.8591 N.pl3     1 COA        -0.5033
     11 C1B        -2.4828    1.6438   -3.1175 C.3       1 COA         0.2693
     12 C2B        -3.1527    2.8675   -3.7856 C.3       1 COA         0.2008
     13 O2B        -4.0894    2.4850   -4.6336 O.co2     1 COA        -0.1615
     14 C3B        -1.9491    3.4718   -4.5260 C.3       1 COA         0.1111
     15 O3B        -1.5961    2.7353   -5.7012 O.3       1 COA         0.1618
     16 P3B        -0.6948    3.4882   -6.8546 P.3       1 COA        -1.1921
     17 O7A        -1.5419    4.6766   -7.3000 O.co2     1 COA         0.3195
     18 O8A        -0.5270    2.4117   -7.9228 O.co2     1 COA         0.3195
     19 O9A         0.6037    3.8701   -6.1501 O.co2     1 COA         0.3195
     20 C4B        -0.8155    3.2705   -3.5257 C.3       1 COA         0.1111
     21 O4B        -1.1344    2.0698   -2.7962 O.3       1 COA        -0.1436
     22 C5B        -0.6774    4.4099   -2.5246 C.3       1 COA         0.1504
     23 O5B         0.3986    4.1249   -1.6460 O.3       1 COA         0.1618
     24 P1A         0.7670    5.1936   -0.4641 P.3       1 COA        -1.1062
     25 O1A         1.1289    6.5260   -1.0837 O.co2     1 COA         0.3195
     26 O2A         1.6876    4.5161    0.5275 O.co2     1 COA         0.3195
     27 O3A        -0.6886    5.3125    0.2679 O.3       1 COA         0.4672
     28 P2A        -1.1429    6.2040    1.5594 P.3       1 COA        -1.1062
     29 O4A        -2.6377    6.0612    1.7476 O.co2     1 COA         0.3195
     30 O5A        -0.1888    5.9134    2.6974 O.co2     1 COA         0.3195
     31 O6A        -0.8065    7.6957    0.9792 O.3       1 COA         0.1618
     32 CBP        -1.0090    9.5771   -0.5793 C.3       1 COA         0.0000
     33 CCP        -1.4652    8.1470   -0.1994 C.3       1 COA         0.1504
     34 CDP         0.5182    9.5632   -0.8289 C.3       1 COA         0.1179
     35 CEP        -1.6888   10.0085   -1.8940 C.3       1 COA         0.1179
     36 CAP        -1.3149   10.5877    0.5658 C.3       1 COA         0.0611
     37 OAP        -0.6287   10.1955    1.7518 O.3       1 COA        -0.2728
     38 C9P        -0.8916   12.0249    0.2699 C.2       1 COA         0.3561
     39 O9P         0.2422   12.4378    0.5067 O.2       1 COA        -0.2391
     40 N8P        -1.9050   12.7747   -0.3052 N.am      1 COA        -0.1909
     41 C7P        -1.7368   14.1547   -0.6986 C.3       1 COA         0.1160
     42 C6P        -2.1026   15.0674    0.4629 C.3       1 COA         0.0286
     43 C5P        -1.9475   16.5372    0.1157 C.2       1 COA         0.3561
     44 O5P        -1.5666   16.9318   -0.9830 O.2       1 COA        -0.2391
     45 N4P        -2.2853   17.3525    1.1859 N.am      1 COA        -0.1909
     46 C3P        -2.2249   18.7948    1.1250 C.3       1 COA         0.1160
     47 C2P        -0.8726   19.3455    1.5474 C.3       1 COA         0.2607
     48 S1P        -0.4449   18.8903    3.2554 S.3       1 COA        -0.3539
     49 H2A        -3.1164    4.2717    1.2395 H         1 COA        -0.1369
     50 H61A       -4.9530    0.5922    3.3076 H         1 COA         0.2048
     51 H62A       -4.9456   -0.6585    2.0932 H         1 COA         0.2048
     52 H8A        -3.5298   -0.9412   -2.5018 H         1 COA        -0.1292
     53 H1B        -2.3698    0.7525   -3.8030 H         1 COA        -0.0393
     54 H2B        -3.4073    3.5789   -2.9846 H         1 COA        -0.0393
     55 H3B        -2.0891    4.5191   -4.8158 H         1 COA        -0.0393
     56 H4B         0.1478    3.1100   -4.0235 H         1 COA        -0.0393
     57 H51A       -1.5937    4.5171   -1.9365 H         1 COA        -0.0393
     58 H52A       -0.4707    5.3519   -3.0411 H         1 COA        -0.0393
     59 H121       -1.2324    7.4355   -0.9984 H         1 COA        -0.0393
     60 H122       -2.5440    8.1138   -0.0133 H         1 COA        -0.0393
     61 H131        0.8796   10.5616   -1.1013 H         1 COA        -0.0393
     62 H132        0.7886    8.8842   -1.6454 H         1 COA        -0.0393
     63 H133        1.0681    9.2399    0.0618 H         1 COA        -0.0393
     64 H141       -1.3855   11.0192   -2.1904 H         1 COA        -0.0393
     65 H142       -2.7797   10.0132   -1.7903 H         1 COA        -0.0393
     66 H143       -1.4280    9.3402   -2.7211 H         1 COA        -0.0393
     67 H10        -2.3880   10.5770    0.7950 H         1 COA        -0.0393
     68 HO1         0.3169   10.1957    1.5366 H         1 COA         0.2010
     69 HN8        -2.8042   12.3405   -0.4899 H         1 COA         0.0865
     70 H71        -0.6987   14.3172   -1.0054 H         1 COA        -0.0393
     71 H72        -2.3708   14.3611   -1.5667 H         1 COA        -0.0393
     72 H61        -1.4661   14.8482    1.3291 H         1 COA        -0.0393
     73 H62        -3.1422   14.8920    0.7668 H         1 COA        -0.0393
     74 HN4        -2.5889   16.9159    2.0513 H         1 COA         0.0865
     75 H31        -2.4234   19.0645    0.0845 H         1 COA        -0.0393
     76 H32        -3.0411   19.1863    1.7374 H         1 COA        -0.0393
     77 H21        -0.0783   18.9879    0.8841 H         1 COA        -0.0393
     78 H22        -0.8941   20.4383    1.4916 H         1 COA        -0.0393
     79 HS1        -0.4776   17.5657    3.0581 H         1 COA         0.1718
@<TRIPOS>BOND
     1    1    2 ar
     2    1    6 ar
     3    2    3 ar
     4    2   49 1
     5    3    4 ar
     6    4    5 ar
     7    4   10 ar
     8    5    6 ar
     9    5    8 ar
    10    6    7 1
    11    7   50 1
    12    7   51 1
    13    8    9 ar
    14    9   10 ar
    15    9   52 1
    16   10   11 1
    17   11   12 1
    18   11   21 1
    19   11   53 1
    20   12   13 1
    21   12   14 1
    22   12   54 1
    23   14   15 1
    24   14   20 1
    25   14   55 1
    26   15   16 1
    27   16   17 2
    28   16   18 1
    29   16   19 1
    30   20   21 1
    31   20   22 1
    32   20   56 1
    33   22   23 1
    34   22   57 1
    35   22   58 1
    36   23   24 1
    37   24   25 2
    38   24   26 1
    39   24   27 1
    40   27   28 1
    41   28   29 2
    42   28   30 1
    43   28   31 1
    44   31   33 1
    45   32   33 1
    46   32   34 1
    47   32   35 1
    48   32   36 1
    49   33   59 1
    50   33   60 1
    51   34   61 1
    52   34   62 1
    53   34   63 1
    54   35   64 1
    55   35   65 1
    56   35   66 1
    57   36   37 1
    58   36   38 1
    59   36   67 1
    60   37   68 1
    61   38   39 2
    62   38   40 am
    63   40   41 1
    64   40   69 1
    65   41   42 1
    66   41   70 1
    67   41   71 1
    68   42   43 1
    69   42   72 1
    70   42   73 1
    71   43   44 2
    72   43   45 am
    73   45   46 1
    74   45   74 1
    75   46   47 1
    76   46   75 1
    77   46   76 1
    78   47   48 1
    79   47   77 1
    80   47   78 1
    81   48   79 1
@<TRIPOS>SUBSTRUCTURE
     1 COA         1 GROUP 0 A     ****
@<TRIPOS>MOLECULE
[5-(6-aminopurin-9-yl)-2-[[[[3-hydroxy-2,2-dimethyl-4-oxo-4-[[3-oxo-3-(2-sulfanylethylamino)propyl]amino]butoxy]-oxido-phosphoryl]oxy-oxido-phosphoryl]oxymethyl]-4-oxido-tetrahydrofuran-3-yl] phosphate
   79    81     1     0     0
SMALL
USER_CHARGES

@<TRIPOS>ATOM
      1 N1A        -3.9039    2.4517    1.8283 N.ar      1 COA        -0.5260
      2 C2A        -3.3295    3.2614    0.9063 C.ar      1 COA         0.6629
      3 N3A        -2.9870    2.9823   -0.3704 N.ar      1 COA        -0.5260
      4 C4A        -3.2951    1.7119   -0.6714 C.ar      1 COA         0.5212
      5 C5A        -3.8810    0.7714    0.1608 C.ar      1 COA         0.0088
      6 C6A        -4.1878    1.1807    1.4546 C.ar      1 COA         0.5212
      7 N6A        -4.7836    0.2924    2.3662 N.pl3     1 COA        -0.6025
      8 N7A        -4.0438   -0.4230   -0.4949 N.2       1 COA        -0.4271
      9 C8A        -3.5659   -0.2124   -1.7036 C.ar      1 COA         0.5691
     10 N9A        -3.1003    1.0663   -1.8591 N.pl3     1 COA        -0.5033
     11 C1B        -2.4828    1.6438   -3.1175 C.3       1 COA         0.2693
     12 C2B        -3.1527    2.8675   -3.7856 C.3       1 COA         0.2008
     13 O2B        -4.0894    2.4850   -4.6336 O.co2     1 COA        -0.1615
     14 C3B        -1.9491    3.4718   -4.5260 C.3       1 COA         0.1111
     15 O3B        -1.5961    2.7353   -5.7012 O.3       1 COA         0.1618
     16 P3B        -0.6948    3.4882   -6.8546 P.3       1 COA        -1.1921
     17 O7A        -1.5419    4.6766   -7.3000 O.co2     1 COA         0.3195
     18 O8A        -0.5270    2.4117   -7.9228 O.co2     1 COA         0.3195
     19 O9A         0.6037    3.8701   -6.1501 O.co2     1 COA         0.3195
     20 C4B        -0.8155    3.2705   -3.5257 C.3       1 COA         0.1111
     21 O4B        -1.1344    2.0698   -2.7962 O.3       1 COA        -0.1436
     22 C5B        -0.6774    4.4099   -2.5246 C.3       1 COA         0.1504
     23 O5B         0.3986    4.1249   -1.6460 O.3       1 COA         0.1618
     24 P1A         0.7670    5.1936   -0.4641 P.3       1 COA        -1.1062
     25 O1A         1.1289    6.5260   -1.0837 O.co2     1 COA         0.3195
     26 O2A         1.6876    4.5161    0.5275 O.co2     1 COA         0.3195
     27 O3A        -0.6886    5.3125    0.2679 O.3       1 COA         0.4672
     28 P2A        -1.1429    6.2040    1.5594 P.3       1 COA        -1.1062
     29 O4A        -2.6377    6.0612    1.7476 O.co2     1 COA         0.3195
     30 O5A        -0.1888    5.9134    2.6974 O.co2     1 COA         0.3195
     31 O6A        -0.8065    7.6957    0.9792 O.3       1 COA         0.1618
     32 CBP        -1.0090    9.5771   -0.5793 C.3       1 COA         0.0000
     33 CCP        -1.4652    8.1470   -0.1994 C.3       1 COA         0.1504
     34 CDP         0.5182    9.5632   -0.8289 C.3       1 COA         0.1179
     35 CEP        -1.6888   10.0085   -1.8940 C.3       1 COA         0.1179
     36 CAP        -1.3149   10.5877    0.5658 C.3       1 COA         0.0611
     37 OAP        -0.8841   11.8921    0.1862 O.3       1 COA        -0.2728
     38 C9P        -2.7940   10.7032    0.9282 C.2       1 COA         0.3561
     39 O9P        -3.6891   10.4664    0.1190 O.2       1 COA        -0.2391
     40 N8P        -2.9952   11.0709    2.2489 N.am      1 COA        -0.1909
     41 C7P        -4.3082   11.2196    2.8331 C.3       1 COA         0.1160
     42 C6P        -4.7588    9.8929    3.4269 C.3       1 COA         0.0286
     43 C5P        -3.8205    9.3954    4.5118 C.2       1 COA         0.3561
     44 O5P        -3.1669   10.1458    5.2312 O.2       1 COA        -0.2391
     45 N4P        -3.8026    8.0098    4.5747 N.am      1 COA        -0.1909
     46 C3P        -2.9915    7.2762    5.5188 C.3       1 COA         0.1160
     47 C2P        -3.7127    7.0058    6.8291 C.3       1 COA         0.2607
     48 S1P        -5.2283    6.0284    6.5938 S.3       1 COA        -0.3539
     49 H2A        -3.1164    4.2717    1.2395 H         1 COA        -0.1369
     50 H61A       -4.9530    0.5922    3.3076 H         1 COA         0.2048
     51 H62A       -4.9456   -0.6585    2.0932 H         1 COA         0.2048
     52 H8A        -3.5298   -0.9412   -2.5018 H         1 COA        -0.1292
     53 H1B        -2.3698    0.7525   -3.8030 H         1 COA        -0.0393
     54 H2B        -3.4073    3.5789   -2.9846 H         1 COA        -0.0393
     55 H3B        -2.0891    4.5191   -4.8158 H         1 COA        -0.0393
     56 H4B         0.1478    3.1100   -4.0235 H         1 COA        -0.0393
     57 H51A       -1.5937    4.5171   -1.9365 H         1 COA        -0.0393
     58 H52A       -0.4707    5.3519   -3.0411 H         1 COA        -0.0393
     59 H121       -1.2324    7.4355   -0.9984 H         1 COA        -0.0393
     60 H122       -2.5440    8.1138   -0.0133 H         1 COA        -0.0393
     61 H131        0.8796   10.5616   -1.1013 H         1 COA        -0.0393
     62 H132        0.7886    8.8842   -1.6454 H         1 COA        -0.0393
     63 H133        1.0681    9.2399    0.0618 H         1 COA        -0.0393
     64 H141       -1.3855   11.0192   -2.1904 H         1 COA        -0.0393
     65 H142       -2.7797   10.0132   -1.7903 H         1 COA        -0.0393
     66 H143       -1.4280    9.3402   -2.7211 H         1 COA        -0.0393
     67 H10        -0.7524   10.3112    1.4665 H         1 COA        -0.0393
     68 HO1        -1.3767   12.1229   -0.6167 H         1 COA         0.2010
     69 HN8        -2.1931   11.2196    2.8537 H         1 COA         0.0865
     70 H71        -4.2731   11.9958    3.6041 H         1 COA        -0.0393
     71 H72        -5.0090   11.5556    2.0622 H         1 COA        -0.0393
     72 H61        -4.8150    9.1286    2.6418 H         1 COA        -0.0393
     73 H62        -5.7626    9.9948    3.8582 H         1 COA        -0.0393
     74 HN4        -4.3862    7.4873    3.9279 H         1 COA         0.0865
     75 H31        -2.7413    6.3288    5.0342 H         1 COA        -0.0393
     76 H32        -2.0645    7.8367    5.6642 H         1 COA        -0.0393
     77 H21        -3.0634    6.4745    7.5325 H         1 COA        -0.0393
     78 H22        -4.0003    7.9577    7.2863 H         1 COA        -0.0393
     79 HS1        -5.8363    6.9077    5.7866 H         1 COA         0.1718
@<TRIPOS>BOND
     1    1    2 ar
     2    1    6 ar
     3    2    3 ar
     4    2   49 1
     5    3    4 ar
     6    4    5 ar
     7    4   10 ar
     8    5    6 ar
     9    5    8 ar
    10    6    7 1
    11    7   50 1
    12    7   51 1
    13    8    9 ar
    14    9   10 ar
    15    9   52 1
    16   10   11 1
    17   11   12 1
    18   11   21 1
    19   11   53 1
    20   12   13 1
    21   12   14 1
    22   12   54 1
    23   14   15 1
    24   14   20 1
    25   14   55 1
    26   15   16 1
    27   16   17 2
    28   16   18 1
    29   16   19 1
    30   20   21 1
    31   20   22 1
    32   20   56 1
    33   22   23 1
    34   22   57 1
    35   22   58 1
    36   23   24 1
    37   24   25 2
    38   24   26 1
    39   24   27 1
    40   27   28 1
    41   28   29 2
    42   28   30 1
    43   28   31 1
    44   31   33 1
    45   32   33 1
    46   32   34 1
    47   32   35 1
    48   32   36 1
    49   33   59 1
    50   33   60 1
    51   34   61 1
    52   34   62 1
    53   34   63 1
    54   35   64 1
    55   35   65 1
    56   35   66 1
    57   36   37 1
    58   36   38 1
    59   36   67 1
    60   37   68 1
    61   38   39 2
    62   38   40 am
    63   40   41 1
    64   40   69 1
    65   41   42 1
    66   41   70 1
    67   41   71 1
    68   42   43 1
    69   42   72 1
    70   42   73 1
    71   43   44 2
    72   43   45 am
    73   45   46 1
    74   45   74 1
    75   46   47 1
    76   46   75 1
    77   46   76 1
    78   47   48 1
    79   47   77 1
    80   47   78 1
    81   48   79 1
@<TRIPOS>SUBSTRUCTURE
     1 COA         1 GROUP 0 A     ****
@<TRIPOS>MOLECULE
[5-(6-aminopurin-9-yl)-2-[[[[3-hydroxy-2,2-dimethyl-4-oxo-4-[[3-oxo-3-(2-sulfanylethylamino)propyl]amino]butoxy]-oxido-phosphoryl]oxy-oxido-phosphoryl]oxymethyl]-4-oxido-tetrahydrofuran-3-yl] phosphate
   79    81     1     0     0
SMALL
USER_CHARGES

@<TRIPOS>ATOM
      1 N1A        -3.9039    2.4517    1.8283 N.ar      1 COA        -0.5260
      2 C2A        -3.3295    3.2614    0.9063 C.ar      1 COA         0.6629
      3 N3A        -2.9870    2.9823   -0.3704 N.ar      1 COA        -0.5260
      4 C4A        -3.2951    1.7119   -0.6714 C.ar      1 COA         0.5212
      5 C5A        -3.8810    0.7714    0.1608 C.ar      1 COA         0.0088
      6 C6A        -4.1878    1.1807    1.4546 C.ar      1 COA         0.5212
      7 N6A        -4.7836    0.2924    2.3662 N.pl3     1 COA        -0.6025
      8 N7A        -4.0438   -0.4230   -0.4949 N.2       1 COA        -0.4271
      9 C8A        -3.5659   -0.2124   -1.7036 C.ar      1 COA         0.5691
     10 N9A        -3.1003    1.0663   -1.8591 N.pl3     1 COA        -0.5033
     11 C1B        -2.4828    1.6438   -3.1175 C.3       1 COA         0.2693
     12 C2B        -3.1527    2.8675   -3.7856 C.3       1 COA         0.2008
     13 O2B        -4.0894    2.4850   -4.6336 O.co2     1 COA        -0.1615
     14 C3B        -1.9491    3.4718   -4.5260 C.3       1 COA         0.1111
     15 O3B        -1.5961    2.7353   -5.7012 O.3       1 COA         0.1618
     16 P3B        -0.6948    3.4882   -6.8546 P.3       1 COA        -1.1921
     17 O7A        -1.5419    4.6766   -7.3000 O.co2     1 COA         0.3195
     18 O8A        -0.5270    2.4117   -7.9228 O.co2     1 COA         0.3195
     19 O9A         0.6037    3.8701   -6.1501 O.co2     1 COA         0.3195
     20 C4B        -0.8155    3.2705   -3.5257 C.3       1 COA         0.1111
     21 O4B        -1.1344    2.0698   -2.7962 O.3       1 COA        -0.1436
     22 C5B        -0.6774    4.4099   -2.5246 C.3       1 COA         0.1504
     23 O5B         0.3986    4.1249   -1.6460 O.3       1 COA         0.1618
     24 P1A         0.7670    5.1936   -0.4641 P.3       1 COA        -1.1062
     25 O1A         1.1289    6.5260   -1.0837 O.co2     1 COA         0.3195
     26 O2A         1.6876    4.5161    0.5275 O.co2     1 COA         0.3195
     27 O3A        -0.6886    5.3125    0.2679 O.3       1 COA         0.4672
     28 P2A        -1.1429    6.2040    1.5594 P.3       1 COA        -1.1062
     29 O4A        -2.6377    6.0612    1.7476 O.co2     1 COA         0.3195
     30 O5A        -0.1888    5.9134    2.6974 O.co2     1 COA         0.3195
     31 O6A        -0.8065    7.6957    0.9792 O.3       1 COA         0.1618
     32 CBP        -1.0090    9.5771   -0.5793 C.3       1 COA         0.0000
     33 CCP        -1.4652    8.1470   -0.1994 C.3       1 COA         0.1504
     34 CDP         0.5182    9.5632   -0.8289 C.3       1 COA         0.1179
     35 CEP        -1.6888   10.0085   -1.8940 C.3       1 COA         0.1179
     36 CAP        -1.3149   10.5877    0.5658 C.3       1 COA         0.0611
     37 OAP        -0.6287   10.1955    1.7518 O.3       1 COA        -0.2728
     38 C9P        -0.8916   12.0249    0.2699 C.2       1 COA         0.3561
     39 O9P         0.2422   12.4378    0.5067 O.2       1 COA        -0.2391
     40 N8P        -1.9050   12.7747   -0.3052 N.am      1 COA        -0.1909
     41 C7P        -1.7368   14.1547   -0.6986 C.3       1 COA         0.1160
     42 C6P        -2.1026   15.0674    0.4629 C.3       1 COA         0.0286
     43 C5P        -3.5409   14.8840    0.9130 C.2       1 COA         0.3561
     44 O5P        -4.4447   14.5448    0.1541 O.2       1 COA        -0.2391
     45 N4P        -3.6893   15.1482    2.2667 N.am      1 COA        -0.1909
     46 C3P        -4.9575   15.0511    2.9521 C.3       1 COA         0.1160
     47 C2P        -5.2136   13.6657    3.5225 C.3       1 COA         0.2607
     48 S1P        -3.9450   13.1703    4.7278 S.3       1 COA        -0.3539
     49 H2A        -3.1164    4.2717    1.2395 H         1 COA        -0.1369
     50 H61A       -4.9530    0.5922    3.3076 H         1 COA         0.2048
     51 H62A       -4.9456   -0.6585    2.0932 H         1 COA         0.2048
     52 H8A        -3.5298   -0.9412   -2.5018 H         1 COA        -0.1292
     53 H1B        -2.3698    0.7525   -3.8030 H         1 COA        -0.0393
     54 H2B        -3.4073    3.5789   -2.9846 H         1 COA        -0.0393
     55 H3B        -2.0891    4.5191   -4.8158 H         1 COA        -0.0393
     56 H4B         0.1478    3.1100   -4.0235 H         1 COA        -0.0393
     57 H51A       -1.5937    4.5171   -1.9365 H         1 COA        -0.0393
     58 H52A       -0.4707    5.3519   -3.0411 H         1 COA        -0.0393
     59 H121       -1.2324    7.4355   -0.9984 H         1 COA        -0.0393
     60 H122       -2.5440    8.1138   -0.0133 H         1 COA        -0.0393
     61 H131        0.8796   10.5616   -1.1013 H         1 COA        -0.0393
     62 H132        0.7886    8.8842   -1.6454 H         1 COA        -0.0393
     63 H133        1.0681    9.2399    0.0618 H         1 COA        -0.0393
     64 H141       -1.3855   11.0192   -2.1904 H         1 COA        -0.0393
     65 H142       -2.7797   10.0132   -1.7903 H         1 COA        -0.0393
     66 H143       -1.4280    9.3402   -2.7211 H         1 COA        -0.0393
     67 H10        -2.3880   10.5770    0.7950 H         1 COA        -0.0393
     68 HO1         0.3169   10.1957    1.5366 H         1 COA         0.2010
     69 HN8        -2.8042   12.3405   -0.4899 H         1 COA         0.0865
     70 H71        -0.6987   14.3172   -1.0054 H         1 COA        -0.0393
     71 H72        -2.3708   14.3611   -1.5667 H         1 COA        -0.0393
     72 H61        -1.9618   16.1170    0.1758 H         1 COA        -0.0393
     73 H62        -1.4448   14.8702    1.3186 H         1 COA        -0.0393
     74 HN4        -2.8695   15.4223    2.8001 H         1 COA         0.0865
     75 H31        -4.9221   15.7825    3.7637 H         1 COA        -0.0393
     76 H32        -5.7369   15.3610    2.2513 H         1 COA        -0.0393
     77 H21        -6.1928   13.6165    4.0099 H         1 COA        -0.0393
     78 H22        -5.2024   12.9326    2.7100 H         1 COA        -0.0393
     79 HS1        -2.9106   13.2486    3.8804 H         1 COA         0.1718
@<TRIPOS>BOND
     1    1    2 ar
     2    1    6 ar
     3    2    3 ar
     4    2   49 1
     5    3    4 ar
     6    4    5 ar
     7    4   10 ar
     8    5    6 ar
     9    5    8 ar
    10    6    7 1
    11    7   50 1
    12    7   51 1
    13    8    9 ar
    14    9   10 ar
    15    9   52 1
    16   10   11 1
    17   11   12 1
    18   11   21 1
    19   11   53 1
    20   12   13 1
    21   12   14 1
    22   12   54 1
    23   14   15 1
    24   14   20 1
    25   14   55 1
    26   15   16 1
    27   16   17 2
    28   16   18 1
    29   16   19 1
    30   20   21 1
    31   20   22 1
    32   20   56 1
    33   22   23 1
    34   22   57 1
    35   22   58 1
    36   23   24 1
    37   24   25 2
    38   24   26 1
    39   24   27 1
    40   27   28 1
    41   28   29 2
    42   28   30 1
    43   28   31 1
    44   31   33 1
    45   32   33 1
    46   32   34 1
    47   32   35 1
    48   32   36 1
    49   33   59 1
    50   33   60 1
    51   34   61 1
    52   34   62 1
    53   34   63 1
    54   35   64 1
    55   35   65 1
    56   35   66 1
    57   36   37 1
    58   36   38 1
    59   36   67 1
    60   37   68 1
    61   38   39 2
    62   38   40 am
    63   40   41 1
    64   40   69 1
    65   41   42 1
    66   41   70 1
    67   41   71 1
    68   42   43 1
    69   42   72 1
    70   42   73 1
    71   43   44 2
    72   43   45 am
    73   45   46 1
    74   45   74 1
    75   46   47 1
    76   46   75 1
    77   46   76 1
    78   47   48 1
    79   47   77 1
    80   47   78 1
    81   48   79 1
@<TRIPOS>SUBSTRUCTURE
     1 COA         1 GROUP 0 A     ****
@<TRIPOS>MOLECULE
[5-(6-aminopurin-9-yl)-2-[[[[3-hydroxy-2,2-dimethyl-4-oxo-4-[[3-oxo-3-(2-sulfanylethylamino)propyl]amino]butoxy]-oxido-phosphoryl]oxy-oxido-phosphoryl]oxymethyl]-4-oxido-tetrahydrofuran-3-yl] phosphate
   79    81     1     0     0
SMALL
USER_CHARGES

@<TRIPOS>ATOM
      1 N1A        -3.9039    2.4517    1.8283 N.ar      1 COA        -0.5260
      2 C2A        -3.3295    3.2614    0.9063 C.ar      1 COA         0.6629
      3 N3A        -2.9870    2.9823   -0.3704 N.ar      1 COA        -0.5260
      4 C4A        -3.2951    1.7119   -0.6714 C.ar      1 COA         0.5212
      5 C5A        -3.8810    0.7714    0.1608 C.ar      1 COA         0.0088
      6 C6A        -4.1878    1.1807    1.4546 C.ar      1 COA         0.5212
      7 N6A        -4.7836    0.2924    2.3662 N.pl3     1 COA        -0.6025
      8 N7A        -4.0438   -0.4230   -0.4949 N.2       1 COA        -0.4271
      9 C8A        -3.5659   -0.2124   -1.7036 C.ar      1 COA         0.5691
     10 N9A        -3.1003    1.0663   -1.8591 N.pl3     1 COA        -0.5033
     11 C1B        -2.4828    1.6438   -3.1175 C.3       1 COA         0.2693
     12 C2B        -3.1527    2.8675   -3.7856 C.3       1 COA         0.2008
     13 O2B        -4.0894    2.4850   -4.6336 O.co2     1 COA        -0.1615
     14 C3B        -1.9491    3.4718   -4.5260 C.3       1 COA         0.1111
     15 O3B        -1.5961    2.7353   -5.7012 O.3       1 COA         0.1618
     16 P3B        -0.6948    3.4882   -6.8546 P.3       1 COA        -1.1921
     17 O7A        -1.5419    4.6766   -7.3000 O.co2     1 COA         0.3195
     18 O8A        -0.5270    2.4117   -7.9228 O.co2     1 COA         0.3195
     19 O9A         0.6037    3.8701   -6.1501 O.co2     1 COA         0.3195
     20 C4B        -0.8155    3.2705   -3.5257 C.3       1 COA         0.1111
     21 O4B        -1.1344    2.0698   -2.7962 O.3       1 COA        -0.1436
     22 C5B        -0.6774    4.4099   -2.5246 C.3       1 COA         0.1504
     23 O5B         0.3986    4.1249   -1.6460 O.3       1 COA         0.1618
     24 P1A         0.7670    5.1936   -0.4641 P.3       1 COA        -1.1062
     25 O1A         1.1289    6.5260   -1.0837 O.co2     1 COA         0.3195
     26 O2A         1.6876    4.5161    0.5275 O.co2     1 COA         0.3195
     27 O3A        -0.6886    5.3125    0.2679 O.3       1 COA         0.4672
     28 P2A        -1.1429    6.2040    1.5594 P.3       1 COA        -1.1062
     29 O4A        -2.6377    6.0612    1.7476 O.co2     1 COA         0.3195
     30 O5A        -0.1888    5.9134    2.6974 O.co2     1 COA         0.3195
     31 O6A        -0.8065    7.6957    0.9792 O.3       1 COA         0.1618
     32 CBP        -1.0090    9.5771   -0.5793 C.3       1 COA         0.0000
     33 CCP        -1.4652    8.1470   -0.1994 C.3       1 COA         0.1504
     34 CDP         0.5182    9.5632   -0.8289 C.3       1 COA         0.1179
     35 CEP        -1.6888   10.0085   -1.8940 C.3       1 COA         0.1179
     36 CAP        -1.3149   10.5877    0.5658 C.3       1 COA         0.0611
     37 OAP        -0.8841   11.8921    0.1862 O.3       1 COA        -0.2728
     38 C9P        -2.7940   10.7032    0.9282 C.2       1 COA         0.3561
     39 O9P        -3.6519   11.0028    0.0998 O.2       1 COA        -0.2391
     40 N8P        -3.0442   10.4114    2.2595 N.am      1 COA        -0.1909
     41 C7P        -4.3702   10.4275    2.8329 C.3       1 COA         0.1160
     42 C6P        -4.6799   11.8172    3.3701 C.3       1 COA         0.0286
     43 C5P        -3.7021   12.2534    4.4465 C.2       1 COA         0.3561
     44 O5P        -3.1415   11.4663    5.2042 O.2       1 COA        -0.2391
     45 N4P        -3.5356   13.6305    4.4567 N.am      1 COA        -0.1909
     46 C3P        -2.6608   14.3096    5.3846 C.3       1 COA         0.1160
     47 C2P        -3.3634   14.7076    6.6722 C.3       1 COA         0.2607
     48 S1P        -4.7620   15.8319    6.3762 S.3       1 COA        -0.3539
     49 H2A        -3.1164    4.2717    1.2395 H         1 COA        -0.1369
     50 H61A       -4.9530    0.5922    3.3076 H         1 COA         0.2048
     51 H62A       -4.9456   -0.6585    2.0932 H         1 COA         0.2048
     52 H8A        -3.5298   -0.9412   -2.5018 H         1 COA        -0.1292
     53 H1B        -2.3698    0.7525   -3.8030 H         1 COA        -0.0393
     54 H2B        -3.4073    3.5789   -2.9846 H         1 COA        -0.0393
     55 H3B        -2.0891    4.5191   -4.8158 H         1 COA        -0.0393
     56 H4B         0.1478    3.1100   -4.0235 H         1 COA        -0.0393
     57 H51A       -1.5937    4.5171   -1.9365 H         1 COA        -0.0393
     58 H52A       -0.4707    5.3519   -3.0411 H         1 COA        -0.0393
     59 H121       -1.2324    7.4355   -0.9984 H         1 COA        -0.0393
     60 H122       -2.5440    8.1138   -0.0133 H         1 COA        -0.0393
     61 H131        0.8796   10.5616   -1.1013 H         1 COA        -0.0393
     62 H132        0.7886    8.8842   -1.6454 H         1 COA        -0.0393
     63 H133        1.0681    9.2399    0.0618 H         1 COA        -0.0393
     64 H141       -1.3855   11.0192   -2.1904 H         1 COA        -0.0393
     65 H142       -2.7797   10.0132   -1.7903 H         1 COA        -0.0393
     66 H143       -1.4280    9.3402   -2.7211 H         1 COA        -0.0393
     67 H10        -0.7524   10.3112    1.4665 H         1 COA        -0.0393
     68 HO1        -1.3767   12.1229   -0.6167 H         1 COA         0.2010
     69 HN8        -2.2741   10.1459    2.8657 H         1 COA         0.0865
     70 H71        -5.0969   10.1388    2.0669 H         1 COA        -0.0393
     71 H72        -4.4250    9.6829    3.6333 H         1 COA        -0.0393
     72 H61        -5.6920   11.8406    3.7930 H         1 COA        -0.0393
     73 H62        -4.6475   12.5518    2.5557 H         1 COA        -0.0393
     74 HN4        -4.0520   14.1864    3.7814 H         1 COA         0.0865
     75 H31        -1.8513   13.6098    5.6082 H         1 COA        -0.0393
     76 H32        -2.2304   15.1693    4.8648 H         1 COA        -0.0393
     77 H21        -3.7340   13.8265    7.2060 H         1 COA        -0.0393
     78 H22        -2.6545   15.2260    7.3253 H         1 COA        -0.0393
     79 HS1        -5.4521   14.9916    5.5938 H         1 COA         0.1718
@<TRIPOS>BOND
     1    1    2 ar
     2    1    6 ar
     3    2    3 ar
     4    2   49 1
     5    3    4 ar
     6    4    5 ar
     7    4   10 ar
     8    5    6 ar
     9    5    8 ar
    10    6    7 1
    11    7   50 1
    12    7   51 1
    13    8    9 ar
    14    9   10 ar
    15    9   52 1
    16   10   11 1
    17   11   12 1
    18   11   21 1
    19   11   53 1
    20   12   13 1
    21   12   14 1
    22   12   54 1
    23   14   15 1
    24   14   20 1
    25   14   55 1
    26   15   16 1
    27   16   17 2
    28   16   18 1
    29   16   19 1
    30   20   21 1
    31   20   22 1
    32   20   56 1
    33   22   23 1
    34   22   57 1
    35   22   58 1
    36   23   24 1
    37   24   25 2
    38   24   26 1
    39   24   27 1
    40   27   28 1
    41   28   29 2
    42   28   30 1
    43   28   31 1
    44   31   33 1
    45   32   33 1
    46   32   34 1
    47   32   35 1
    48   32   36 1
    49   33   59 1
    50   33   60 1
    51   34   61 1
    52   34   62 1
    53   34   63 1
    54   35   64 1
    55   35   65 1
    56   35   66 1
    57   36   37 1
    58   36   38 1
    59   36   67 1
    60   37   68 1
    61   38   39 2
    62   38   40 am
    63   40   41 1
    64   40   69 1
    65   41   42 1
    66   41   70 1
    67   41   71 1
    68   42   43 1
    69   42   72 1
    70   42   73 1
    71   43   44 2
    72   43   45 am
    73   45   46 1
    74   45   74 1
    75   46   47 1
    76   46   75 1
    77   46   76 1
    78   47   48 1
    79   47   77 1
    80   47   78 1
    81   48   79 1
@<TRIPOS>SUBSTRUCTURE
     1 COA         1 GROUP 0 A     ****
@<TRIPOS>MOLECULE
[5-(6-aminopurin-9-yl)-2-[[[[3-hydroxy-2,2-dimethyl-4-oxo-4-[[3-oxo-3-(2-sulfanylethylamino)propyl]amino]butoxy]-oxido-phosphoryl]oxy-oxido-phosphoryl]oxymethyl]-4-oxido-tetrahydrofuran-3-yl] phosphate
   79    81     1     0     0
SMALL
USER_CHARGES

@<TRIPOS>ATOM
      1 N1A        -3.9039    2.4517    1.8283 N.ar      1 COA        -0.5260
      2 C2A        -3.3295    3.2614    0.9063 C.ar      1 COA         0.6629
      3 N3A        -2.9870    2.9823   -0.3704 N.ar      1 COA        -0.5260
      4 C4A        -3.2951    1.7119   -0.6714 C.ar      1 COA         0.5212
      5 C5A        -3.8810    0.7714    0.1608 C.ar      1 COA         0.0088
      6 C6A        -4.1878    1.1807    1.4546 C.ar      1 COA         0.5212
      7 N6A        -4.7836    0.2924    2.3662 N.pl3     1 COA        -0.6025
      8 N7A        -4.0438   -0.4230   -0.4949 N.2       1 COA        -0.4271
      9 C8A        -3.5659   -0.2124   -1.7036 C.ar      1 COA         0.5691
     10 N9A        -3.1003    1.0663   -1.8591 N.pl3     1 COA        -0.5033
     11 C1B        -2.4828    1.6438   -3.1175 C.3       1 COA         0.2693
     12 C2B        -3.1527    2.8675   -3.7856 C.3       1 COA         0.2008
     13 O2B        -4.0894    2.4850   -4.6336 O.co2     1 COA        -0.1615
     14 C3B        -1.9491    3.4718   -4.5260 C.3       1 COA         0.1111
     15 O3B        -1.5961    2.7353   -5.7012 O.3       1 COA         0.1618
     16 P3B        -0.6948    3.4882   -6.8546 P.3       1 COA        -1.1921
     17 O7A        -1.5419    4.6766   -7.3000 O.co2     1 COA         0.3195
     18 O8A        -0.5270    2.4117   -7.9228 O.co2     1 COA         0.3195
     19 O9A         0.6037    3.8701   -6.1501 O.co2     1 COA         0.3195
     20 C4B        -0.8155    3.2705   -3.5257 C.3       1 COA         0.1111
     21 O4B        -1.1344    2.0698   -2.7962 O.3       1 COA        -0.1436
     22 C5B        -0.6774    4.4099   -2.5246 C.3       1 COA         0.1504
     23 O5B         0.3986    4.1249   -1.6460 O.3       1 COA         0.1618
     24 P1A         0.7670    5.1936   -0.4641 P.3       1 COA        -1.1062
     25 O1A         1.1289    6.5260   -1.0837 O.co2     1 COA         0.3195
     26 O2A         1.6876    4.5161    0.5275 O.co2     1 COA         0.3195
     27 O3A        -0.6886    5.3125    0.2679 O.3       1 COA         0.4672
     28 P2A        -1.1429    6.2040    1.5594 P.3       1 COA        -1.1062
     29 O4A        -2.6377    6.0612    1.7476 O.co2     1 COA         0.3195
     30 O5A        -0.1888    5.9134    2.6974 O.co2     1 COA         0.3195
     31 O6A        -0.8065    7.6957    0.9792 O.3       1 COA         0.1618
     32 CBP        -1.0090    9.5771   -0.5793 C.3       1 COA         0.0000
     33 CCP        -1.4652    8.1470   -0.1994 C.3       1 COA         0.1504
     34 CDP         0.5182    9.5632   -0.8289 C.3       1 COA         0.1179
     35 CEP        -1.6888   10.0085   -1.8940 C.3       1 COA         0.1179
     36 CAP        -1.3149   10.5877    0.5658 C.3       1 COA         0.0611
     37 OAP        -2.7163   10.6149    0.8239 O.3       1 COA        -0.2728
     38 C9P        -0.6314   10.2649    1.8928 C.2       1 COA         0.3561
     39 O9P        -1.1331    9.5097    2.7236 O.2       1 COA        -0.2391
     40 N8P         0.5984   10.8887    2.0282 N.am      1 COA        -0.1909
     41 C7P         1.4450   10.7163    3.1861 C.3       1 COA         0.1160
     42 C6P         2.3820    9.5376    2.9657 C.3       1 COA         0.0286
     43 C5P         3.3027    9.3002    4.1492 C.2       1 COA         0.3561
     44 O5P         3.2843    9.9910    5.1643 O.2       1 COA        -0.2391
     45 N4P         4.1483    8.2228    3.9296 N.am      1 COA        -0.1909
     46 C3P         5.1273    7.7820    4.8964 C.3       1 COA         0.1160
     47 C2P         6.4749    8.4630    4.7219 C.3       1 COA         0.2607
     48 S1P         7.6969    7.8989    5.9451 S.3       1 COA        -0.3539
     49 H2A        -3.1164    4.2717    1.2395 H         1 COA        -0.1369
     50 H61A       -4.9530    0.5922    3.3076 H         1 COA         0.2048
     51 H62A       -4.9456   -0.6585    2.0932 H         1 COA         0.2048
     52 H8A        -3.5298   -0.9412   -2.5018 H         1 COA        -0.1292
     53 H1B        -2.3698    0.7525   -3.8030 H         1 COA        -0.0393
     54 H2B        -3.4073    3.5789   -2.9846 H         1 COA        -0.0393
     55 H3B        -2.0891    4.5191   -4.8158 H         1 COA        -0.0393
     56 H4B         0.1478    3.1100   -4.0235 H         1 COA        -0.0393
     57 H51A       -1.5937    4.5171   -1.9365 H         1 COA        -0.0393
     58 H52A       -0.4707    5.3519   -3.0411 H         1 COA        -0.0393
     59 H121       -1.2324    7.4355   -0.9984 H         1 COA        -0.0393
     60 H122       -2.5440    8.1138   -0.0133 H         1 COA        -0.0393
     61 H131        0.8796   10.5616   -1.1013 H         1 COA        -0.0393
     62 H132        0.7886    8.8842   -1.6454 H         1 COA        -0.0393
     63 H133        1.0681    9.2399    0.0618 H         1 COA        -0.0393
     64 H141       -1.3855   11.0192   -2.1904 H         1 COA        -0.0393
     65 H142       -2.7797   10.0132   -1.7903 H         1 COA        -0.0393
     66 H143       -1.4280    9.3402   -2.7211 H         1 COA        -0.0393
     67 H10        -1.0237   11.5996    0.2569 H         1 COA        -0.0393
     68 HO1        -2.9668    9.7148    1.0837 H         1 COA         0.2010
     69 HN8         0.9463   11.4752    1.2758 H         1 COA         0.0865
     70 H71         2.0143   11.6358    3.3556 H         1 COA        -0.0393
     71 H72         0.8185   10.5520    4.0685 H         1 COA        -0.0393
     72 H61         3.0005    9.7094    2.0760 H         1 COA        -0.0393
     73 H62         1.8018    8.6229    2.7903 H         1 COA        -0.0393
     74 HN4         4.0760    7.7211    3.0493 H         1 COA         0.0865
     75 H31         4.7162    8.0262    5.8794 H         1 COA        -0.0393
     76 H32         5.2002    6.6941    4.8211 H         1 COA        -0.0393
     77 H21         6.8789    8.2836    3.7202 H         1 COA        -0.0393
     78 H22         6.3531    9.5432    4.8496 H         1 COA        -0.0393
     79 HS1         7.0038    8.2885    7.0231 H         1 COA         0.1718
@<TRIPOS>BOND
     1    1    2 ar
     2    1    6 ar
     3    2    3 ar
     4    2   49 1
     5    3    4 ar
     6    4    5 ar
     7    4   10 ar
     8    5    6 ar
     9    5    8 ar
    10    6    7 1
    11    7   50 1
    12    7   51 1
    13    8    9 ar
    14    9   10 ar
    15    9   52 1
    16   10   11 1
    17   11   12 1
    18   11   21 1
    19   11   53 1
    20   12   13 1
    21   12   14 1
    22   12   54 1
    23   14   15 1
    24   14   20 1
    25   14   55 1
    26   15   16 1
    27   16   17 2
    28   16   18 1
    29   16   19 1
    30   20   21 1
    31   20   22 1
    32   20   56 1
    33   22   23 1
    34   22   57 1
    35   22   58 1
    36   23   24 1
    37   24   25 2
    38   24   26 1
    39   24   27 1
    40   27   28 1
    41   28   29 2
    42   28   30 1
    43   28   31 1
    44   31   33 1
    45   32   33 1
    46   32   34 1
    47   32   35 1
    48   32   36 1
    49   33   59 1
    50   33   60 1
    51   34   61 1
    52   34   62 1
    53   34   63 1
    54   35   64 1
    55   35   65 1
    56   35   66 1
    57   36   37 1
    58   36   38 1
    59   36   67 1
    60   37   68 1
    61   38   39 2
    62   38   40 am
    63   40   41 1
    64   40   69 1
    65   41   42 1
    66   41   70 1
    67   41   71 1
    68   42   43 1
    69   42   72 1
    70   42   73 1
    71   43   44 2
    72   43   45 am
    73   45   46 1
    74   45   74 1
    75   46   47 1
    76   46   75 1
    77   46   76 1
    78   47   48 1
    79   47   77 1
    80   47   78 1
    81   48   79 1
@<TRIPOS>SUBSTRUCTURE
     1 COA         1 GROUP 0 A     ****
@<TRIPOS>MOLECULE
[5-(6-aminopurin-9-yl)-2-[[[[3-hydroxy-2,2-dimethyl-4-oxo-4-[[3-oxo-3-(2-sulfanylethylamino)propyl]amino]butoxy]-oxido-phosphoryl]oxy-oxido-phosphoryl]oxymethyl]-4-oxido-tetrahydrofuran-3-yl] phosphate
   79    81     1     0     0
SMALL
USER_CHARGES

@<TRIPOS>ATOM
      1 N1A        -3.9039    2.4517    1.8283 N.ar      1 COA        -0.5260
      2 C2A        -3.3295    3.2614    0.9063 C.ar      1 COA         0.6629
      3 N3A        -2.9870    2.9823   -0.3704 N.ar      1 COA        -0.5260
      4 C4A        -3.2951    1.7119   -0.6714 C.ar      1 COA         0.5212
      5 C5A        -3.8810    0.7714    0.1608 C.ar      1 COA         0.0088
      6 C6A        -4.1878    1.1807    1.4546 C.ar      1 COA         0.5212
      7 N6A        -4.7836    0.2924    2.3662 N.pl3     1 COA        -0.6025
      8 N7A        -4.0438   -0.4230   -0.4949 N.2       1 COA        -0.4271
      9 C8A        -3.5659   -0.2124   -1.7036 C.ar      1 COA         0.5691
     10 N9A        -3.1003    1.0663   -1.8591 N.pl3     1 COA        -0.5033
     11 C1B        -2.4828    1.6438   -3.1175 C.3       1 COA         0.2693
     12 C2B        -3.1527    2.8675   -3.7856 C.3       1 COA         0.2008
     13 O2B        -4.0894    2.4850   -4.6336 O.co2     1 COA        -0.1615
     14 C3B        -1.9491    3.4718   -4.5260 C.3       1 COA         0.1111
     15 O3B        -1.5961    2.7353   -5.7012 O.3       1 COA         0.1618
     16 P3B        -0.6948    3.4882   -6.8546 P.3       1 COA        -1.1921
     17 O7A        -1.5419    4.6766   -7.3000 O.co2     1 COA         0.3195
     18 O8A        -0.5270    2.4117   -7.9228 O.co2     1 COA         0.3195
     19 O9A         0.6037    3.8701   -6.1501 O.co2     1 COA         0.3195
     20 C4B        -0.8155    3.2705   -3.5257 C.3       1 COA         0.1111
     21 O4B        -1.1344    2.0698   -2.7962 O.3       1 COA        -0.1436
     22 C5B        -0.6774    4.4099   -2.5246 C.3       1 COA         0.1504
     23 O5B         0.3986    4.1249   -1.6460 O.3       1 COA         0.1618
     24 P1A         0.7670    5.1936   -0.4641 P.3       1 COA        -1.1062
     25 O1A         1.1289    6.5260   -1.0837 O.co2     1 COA         0.3195
     26 O2A         1.6876    4.5161    0.5275 O.co2     1 COA         0.3195
     27 O3A        -0.6886    5.3125    0.2679 O.3       1 COA         0.4672
     28 P2A        -1.1429    6.2040    1.5594 P.3       1 COA        -1.1062
     29 O4A        -2.6377    6.0612    1.7476 O.co2     1 COA         0.3195
     30 O5A        -0.1888    5.9134    2.6974 O.co2     1 COA         0.3195
     31 O6A        -0.8065    7.6957    0.9792 O.3       1 COA         0.1618
     32 CBP        -1.0090    9.5771   -0.5793 C.3       1 COA         0.0000
     33 CCP        -1.4652    8.1470   -0.1994 C.3       1 COA         0.1504
     34 CDP         0.5182    9.5632   -0.8289 C.3       1 COA         0.1179
     35 CEP        -1.6888   10.0085   -1.8940 C.3       1 COA         0.1179
     36 CAP        -1.3149   10.5877    0.5658 C.3       1 COA         0.0611
     37 OAP        -0.8841   11.8921    0.1862 O.3       1 COA        -0.2728
     38 C9P        -2.7940   10.7032    0.9282 C.2       1 COA         0.3561
     39 O9P        -3.6570   10.0067    0.3969 O.2       1 COA        -0.2391
     40 N8P        -3.0315   11.6427    1.9186 N.am      1 COA        -0.1909
     41 C7P        -4.3486   11.9130    2.4473 C.3       1 COA         0.1160
     42 C6P        -4.6208   11.0029    3.6363 C.3       1 COA         0.0286
     43 C5P        -3.6187   11.2018    4.7593 C.2       1 COA         0.3561
     44 O5P        -3.0619   12.2735    4.9814 O.2       1 COA        -0.2391
     45 N4P        -3.4225   10.0333    5.4807 N.am      1 COA        -0.1909
     46 C3P        -2.5172    9.9452    6.6032 C.3       1 COA         0.1160
     47 C2P        -1.1083    9.5485    6.1933 C.3       1 COA         0.2607
     48 S1P        -1.0593    7.9266    5.3720 S.3       1 COA        -0.3539
     49 H2A        -3.1164    4.2717    1.2395 H         1 COA        -0.1369
     50 H61A       -4.9530    0.5922    3.3076 H         1 COA         0.2048
     51 H62A       -4.9456   -0.6585    2.0932 H         1 COA         0.2048
     52 H8A        -3.5298   -0.9412   -2.5018 H         1 COA        -0.1292
     53 H1B        -2.3698    0.7525   -3.8030 H         1 COA        -0.0393
     54 H2B        -3.4073    3.5789   -2.9846 H         1 COA        -0.0393
     55 H3B        -2.0891    4.5191   -4.8158 H         1 COA        -0.0393
     56 H4B         0.1478    3.1100   -4.0235 H         1 COA        -0.0393
     57 H51A       -1.5937    4.5171   -1.9365 H         1 COA        -0.0393
     58 H52A       -0.4707    5.3519   -3.0411 H         1 COA        -0.0393
     59 H121       -1.2324    7.4355   -0.9984 H         1 COA        -0.0393
     60 H122       -2.5440    8.1138   -0.0133 H         1 COA        -0.0393
     61 H131        0.8796   10.5616   -1.1013 H         1 COA        -0.0393
     62 H132        0.7886    8.8842   -1.6454 H         1 COA        -0.0393
     63 H133        1.0681    9.2399    0.0618 H         1 COA        -0.0393
     64 H141       -1.3855   11.0192   -2.1904 H         1 COA        -0.0393
     65 H142       -2.7797   10.0132   -1.7903 H         1 COA        -0.0393
     66 H143       -1.4280    9.3402   -2.7211 H         1 COA        -0.0393
     67 H10        -0.7524   10.3112    1.4665 H         1 COA        -0.0393
     68 HO1        -1.3767   12.1229   -0.6167 H         1 COA         0.2010
     69 HN8        -2.2509   12.1532    2.3202 H         1 COA         0.0865
     70 H71        -4.4081   12.9648    2.7445 H         1 COA        -0.0393
     71 H72        -5.0921   11.7528    1.6601 H         1 COA        -0.0393
     72 H61        -4.5839    9.9523    3.3226 H         1 COA        -0.0393
     73 H62        -5.6263   11.1919    4.0328 H         1 COA        -0.0393
     74 HN4        -3.9386    9.2022    5.2074 H         1 COA         0.0865
     75 H31        -2.5016   10.9377    7.0609 H         1 COA        -0.0393
     76 H32        -2.9508    9.2473    7.3240 H         1 COA        -0.0393
     77 H21        -0.6715   10.2920    5.5187 H         1 COA        -0.0393
     78 H22        -0.4764    9.4874    7.0848 H         1 COA        -0.0393
     79 HS1        -1.8686    8.2602    4.3581 H         1 COA         0.1718
@<TRIPOS>BOND
     1    1    2 ar
     2    1    6 ar
     3    2    3 ar
     4    2   49 1
     5    3    4 ar
     6    4    5 ar
     7    4   10 ar
     8    5    6 ar
     9    5    8 ar
    10    6    7 1
    11    7   50 1
    12    7   51 1
    13    8    9 ar
    14    9   10 ar
    15    9   52 1
    16   10   11 1
    17   11   12 1
    18   11   21 1
    19   11   53 1
    20   12   13 1
    21   12   14 1
    22   12   54 1
    23   14   15 1
    24   14   20 1
    25   14   55 1
    26   15   16 1
    27   16   17 2
    28   16   18 1
    29   16   19 1
    30   20   21 1
    31   20   22 1
    32   20   56 1
    33   22   23 1
    34   22   57 1
    35   22   58 1
    36   23   24 1
    37   24   25 2
    38   24   26 1
    39   24   27 1
    40   27   28 1
    41   28   29 2
    42   28   30 1
    43   28   31 1
    44   31   33 1
    45   32   33 1
    46   32   34 1
    47   32   35 1
    48   32   36 1
    49   33   59 1
    50   33   60 1
    51   34   61 1
    52   34   62 1
    53   34   63 1
    54   35   64 1
    55   35   65 1
    56   35   66 1
    57   36   37 1
    58   36   38 1
    59   36   67 1
    60   37   68 1
    61   38   39 2
    62   38   40 am
    63   40   41 1
    64   40   69 1
    65   41   42 1
    66   41   70 1
    67   41   71 1
    68   42   43 1
    69   42   72 1
    70   42   73 1
    71   43   44 2
    72   43   45 am
    73   45   46 1
    74   45   74 1
    75   46   47 1
    76   46   75 1
    77   46   76 1
    78   47   48 1
    79   47   77 1
    80   47   78 1
    81   48   79 1
@<TRIPOS>SUBSTRUCTURE
     1 COA         1 GROUP 0 A     ****
@<TRIPOS>MOLECULE
[5-(6-aminopurin-9-yl)-2-[[[[3-hydroxy-2,2-dimethyl-4-oxo-4-[[3-oxo-3-(2-sulfanylethylamino)propyl]amino]butoxy]-oxido-phosphoryl]oxy-oxido-phosphoryl]oxymethyl]-4-oxido-tetrahydrofuran-3-yl] phosphate
   79    81     1     0     0
SMALL
USER_CHARGES

@<TRIPOS>ATOM
      1 N1A        -3.9039    2.4517    1.8283 N.ar      1 COA        -0.5260
      2 C2A        -3.3295    3.2614    0.9063 C.ar      1 COA         0.6629
      3 N3A        -2.9870    2.9823   -0.3704 N.ar      1 COA        -0.5260
      4 C4A        -3.2951    1.7119   -0.6714 C.ar      1 COA         0.5212
      5 C5A        -3.8810    0.7714    0.1608 C.ar      1 COA         0.0088
      6 C6A        -4.1878    1.1807    1.4546 C.ar      1 COA         0.5212
      7 N6A        -4.7836    0.2924    2.3662 N.pl3     1 COA        -0.6025
      8 N7A        -4.0438   -0.4230   -0.4949 N.2       1 COA        -0.4271
      9 C8A        -3.5659   -0.2124   -1.7036 C.ar      1 COA         0.5691
     10 N9A        -3.1003    1.0663   -1.8591 N.pl3     1 COA        -0.5033
     11 C1B        -2.4828    1.6438   -3.1175 C.3       1 COA         0.2693
     12 C2B        -3.1527    2.8675   -3.7856 C.3       1 COA         0.2008
     13 O2B        -4.0894    2.4850   -4.6336 O.co2     1 COA        -0.1615
     14 C3B        -1.9491    3.4718   -4.5260 C.3       1 COA         0.1111
     15 O3B        -1.5961    2.7353   -5.7012 O.3       1 COA         0.1618
     16 P3B        -0.6948    3.4882   -6.8546 P.3       1 COA        -1.1921
     17 O7A        -1.5419    4.6766   -7.3000 O.co2     1 COA         0.3195
     18 O8A        -0.5270    2.4117   -7.9228 O.co2     1 COA         0.3195
     19 O9A         0.6037    3.8701   -6.1501 O.co2     1 COA         0.3195
     20 C4B        -0.8155    3.2705   -3.5257 C.3       1 COA         0.1111
     21 O4B        -1.1344    2.0698   -2.7962 O.3       1 COA        -0.1436
     22 C5B        -0.6774    4.4099   -2.5246 C.3       1 COA         0.1504
     23 O5B         0.3986    4.1249   -1.6460 O.3       1 COA         0.1618
     24 P1A         0.7670    5.1936   -0.4641 P.3       1 COA        -1.1062
     25 O1A         1.1289    6.5260   -1.0837 O.co2     1 COA         0.3195
     26 O2A         1.6876    4.5161    0.5275 O.co2     1 COA         0.3195
     27 O3A        -0.6886    5.3125    0.2679 O.3       1 COA         0.4672
     28 P2A        -1.1429    6.2040    1.5594 P.3       1 COA        -1.1062
     29 O4A        -2.6377    6.0612    1.7476 O.co2     1 COA         0.3195
     30 O5A        -0.1888    5.9134    2.6974 O.co2     1 COA         0.3195
     31 O6A        -0.8065    7.6957    0.9792 O.3       1 COA         0.1618
     32 CBP        -1.0090    9.5771   -0.5793 C.3       1 COA         0.0000
     33 CCP        -1.4652    8.1470   -0.1994 C.3       1 COA         0.1504
     34 CDP         0.5182    9.5632   -0.8289 C.3       1 COA         0.1179
     35 CEP        -1.6888   10.0085   -1.8940 C.3       1 COA         0.1179
     36 CAP        -1.3149   10.5877    0.5658 C.3       1 COA         0.0611
     37 OAP        -2.7163   10.6149    0.8239 O.3       1 COA        -0.2728
     38 C9P        -0.6314   10.2649    1.8928 C.2       1 COA         0.3561
     39 O9P        -1.1331    9.5097    2.7236 O.2       1 COA        -0.2391
     40 N8P         0.5984   10.8887    2.0282 N.am      1 COA        -0.1909
     41 C7P         1.4450   10.7163    3.1861 C.3       1 COA         0.1160
     42 C6P         1.1093   11.7726    4.2289 C.3       1 COA         0.0286
     43 C5P         1.9658   11.6481    5.4762 C.2       1 COA         0.3561
     44 O5P         2.8285   10.7854    5.6158 O.2       1 COA        -0.2391
     45 N4P         1.6453   12.6186    6.4140 N.am      1 COA        -0.1909
     46 C3P         2.3085   12.7249    7.6932 C.3       1 COA         0.1160
     47 C2P         1.6271   11.9083    8.7791 C.3       1 COA         0.2607
     48 S1P        -0.0944   12.4260    9.0543 S.3       1 COA        -0.3539
     49 H2A        -3.1164    4.2717    1.2395 H         1 COA        -0.1369
     50 H61A       -4.9530    0.5922    3.3076 H         1 COA         0.2048
     51 H62A       -4.9456   -0.6585    2.0932 H         1 COA         0.2048
     52 H8A        -3.5298   -0.9412   -2.5018 H         1 COA        -0.1292
     53 H1B        -2.3698    0.7525   -3.8030 H         1 COA        -0.0393
     54 H2B        -3.4073    3.5789   -2.9846 H         1 COA        -0.0393
     55 H3B        -2.0891    4.5191   -4.8158 H         1 COA        -0.0393
     56 H4B         0.1478    3.1100   -4.0235 H         1 COA        -0.0393
     57 H51A       -1.5937    4.5171   -1.9365 H         1 COA        -0.0393
     58 H52A       -0.4707    5.3519   -3.0411 H         1 COA        -0.0393
     59 H121       -1.2324    7.4355   -0.9984 H         1 COA        -0.0393
     60 H122       -2.5440    8.1138   -0.0133 H         1 COA        -0.0393
     61 H131        0.8796   10.5616   -1.1013 H         1 COA        -0.0393
     62 H132        0.7886    8.8842   -1.6454 H         1 COA        -0.0393
     63 H133        1.0681    9.2399    0.0618 H         1 COA        -0.0393
     64 H141       -1.3855   11.0192   -2.1904 H         1 COA        -0.0393
     65 H142       -2.7797   10.0132   -1.7903 H         1 COA        -0.0393
     66 H143       -1.4280    9.3402   -2.7211 H         1 COA        -0.0393
     67 H10        -1.0237   11.5996    0.2569 H         1 COA        -0.0393
     68 HO1        -2.9668    9.7148    1.0837 H         1 COA         0.2010
     69 HN8         0.9463   11.4752    1.2758 H         1 COA         0.0865
     70 H71         1.2973    9.7110    3.5932 H         1 COA        -0.0393
     71 H72         2.4931   10.7948    2.8803 H         1 COA        -0.0393
     72 H61         0.0558   11.6893    4.5237 H         1 COA        -0.0393
     73 H62         1.2542   12.7758    3.8089 H         1 COA        -0.0393
     74 HN4         0.9112   13.2845    6.1914 H         1 COA         0.0865
     75 H31         3.3265   12.3572    7.5403 H         1 COA        -0.0393
     76 H32         2.3670   13.7861    7.9483 H         1 COA        -0.0393
     77 H21         1.6330   10.8420    8.5306 H         1 COA        -0.0393
     78 H22         2.1670   12.0394    9.7221 H         1 COA        -0.0393
     79 HS1        -0.5165   12.1713    7.8088 H         1 COA         0.1718
@<TRIPOS>BOND
     1    1    2 ar
     2    1    6 ar
     3    2    3 ar
     4    2   49 1
     5    3    4 ar
     6    4    5 ar
     7    4   10 ar
     8    5    6 ar
     9    5    8 ar
    10    6    7 1
    11    7   50 1
    12    7   51 1
    13    8    9 ar
    14    9   10 ar
    15    9   52 1
    16   10   11 1
    17   11   12 1
    18   11   21 1
    19   11   53 1
    20   12   13 1
    21   12   14 1
    22   12   54 1
    23   14   15 1
    24   14   20 1
    25   14   55 1
    26   15   16 1
    27   16   17 2
    28   16   18 1
    29   16   19 1
    30   20   21 1
    31   20   22 1
    32   20   56 1
    33   22   23 1
    34   22   57 1
    35   22   58 1
    36   23   24 1
    37   24   25 2
    38   24   26 1
    39   24   27 1
    40   27   28 1
    41   28   29 2
    42   28   30 1
    43   28   31 1
    44   31   33 1
    45   32   33 1
    46   32   34 1
    47   32   35 1
    48   32   36 1
    49   33   59 1
    50   33   60 1
    51   34   61 1
    52   34   62 1
    53   34   63 1
    54   35   64 1
    55   35   65 1
    56   35   66 1
    57   36   37 1
    58   36   38 1
    59   36   67 1
    60   37   68 1
    61   38   39 2
    62   38   40 am
    63   40   41 1
    64   40   69 1
    65   41   42 1
    66   41   70 1
    67   41   71 1
    68   42   43 1
    69   42   72 1
    70   42   73 1
    71   43   44 2
    72   43   45 am
    73   45   46 1
    74   45   74 1
    75   46   47 1
    76   46   75 1
    77   46   76 1
    78   47   48 1
    79   47   77 1
    80   47   78 1
    81   48   79 1
@<TRIPOS>SUBSTRUCTURE
     1 COA         1 GROUP 0 A     ****
@<TRIPOS>MOLECULE
[5-(6-aminopurin-9-yl)-2-[[[[3-hydroxy-2,2-dimethyl-4-oxo-4-[[3-oxo-3-(2-sulfanylethylamino)propyl]amino]butoxy]-oxido-phosphoryl]oxy-oxido-phosphoryl]oxymethyl]-4-oxido-tetrahydrofuran-3-yl] phosphate
   79    81     1     0     0
SMALL
USER_CHARGES

@<TRIPOS>ATOM
      1 N1A        -3.9039    2.4517    1.8283 N.ar      1 COA        -0.5260
      2 C2A        -3.3295    3.2614    0.9063 C.ar      1 COA         0.6629
      3 N3A        -2.9870    2.9823   -0.3704 N.ar      1 COA        -0.5260
      4 C4A        -3.2951    1.7119   -0.6714 C.ar      1 COA         0.5212
      5 C5A        -3.8810    0.7714    0.1608 C.ar      1 COA         0.0088
      6 C6A        -4.1878    1.1807    1.4546 C.ar      1 COA         0.5212
      7 N6A        -4.7836    0.2924    2.3662 N.pl3     1 COA        -0.6025
      8 N7A        -4.0438   -0.4230   -0.4949 N.2       1 COA        -0.4271
      9 C8A        -3.5659   -0.2124   -1.7036 C.ar      1 COA         0.5691
     10 N9A        -3.1003    1.0663   -1.8591 N.pl3     1 COA        -0.5033
     11 C1B        -2.4828    1.6438   -3.1175 C.3       1 COA         0.2693
     12 C2B        -3.1527    2.8675   -3.7856 C.3       1 COA         0.2008
     13 O2B        -4.0894    2.4850   -4.6336 O.co2     1 COA        -0.1615
     14 C3B        -1.9491    3.4718   -4.5260 C.3       1 COA         0.1111
     15 O3B        -1.5961    2.7353   -5.7012 O.3       1 COA         0.1618
     16 P3B        -0.6948    3.4882   -6.8546 P.3       1 COA        -1.1921
     17 O7A        -1.5419    4.6766   -7.3000 O.co2     1 COA         0.3195
     18 O8A        -0.5270    2.4117   -7.9228 O.co2     1 COA         0.3195
     19 O9A         0.6037    3.8701   -6.1501 O.co2     1 COA         0.3195
     20 C4B        -0.8155    3.2705   -3.5257 C.3       1 COA         0.1111
     21 O4B        -1.1344    2.0698   -2.7962 O.3       1 COA        -0.1436
     22 C5B        -0.6774    4.4099   -2.5246 C.3       1 COA         0.1504
     23 O5B         0.3986    4.1249   -1.6460 O.3       1 COA         0.1618
     24 P1A         0.7670    5.1936   -0.4641 P.3       1 COA        -1.1062
     25 O1A         1.1289    6.5260   -1.0837 O.co2     1 COA         0.3195
     26 O2A         1.6876    4.5161    0.5275 O.co2     1 COA         0.3195
     27 O3A        -0.6886    5.3125    0.2679 O.3       1 COA         0.4672
     28 P2A        -1.1429    6.2040    1.5594 P.3       1 COA        -1.1062
     29 O4A        -2.6377    6.0612    1.7476 O.co2     1 COA         0.3195
     30 O5A        -0.1888    5.9134    2.6974 O.co2     1 COA         0.3195
     31 O6A        -0.8065    7.6957    0.9792 O.3       1 COA         0.1618
     32 CBP        -1.0090    9.5771   -0.5793 C.3       1 COA         0.0000
     33 CCP        -1.4652    8.1470   -0.1994 C.3       1 COA         0.1504
     34 CDP         0.5182    9.5632   -0.8289 C.3       1 COA         0.1179
     35 CEP        -1.6888   10.0085   -1.8940 C.3       1 COA         0.1179
     36 CAP        -1.3149   10.5877    0.5658 C.3       1 COA         0.0611
     37 OAP        -0.6287   10.1955    1.7518 O.3       1 COA        -0.2728
     38 C9P        -0.8916   12.0249    0.2699 C.2       1 COA         0.3561
     39 O9P         0.2422   12.4378    0.5067 O.2       1 COA        -0.2391
     40 N8P        -1.9050   12.7747   -0.3052 N.am      1 COA        -0.1909
     41 C7P        -1.7368   14.1547   -0.6986 C.3       1 COA         0.1160
     42 C6P        -2.1026   15.0674    0.4629 C.3       1 COA         0.0286
     43 C5P        -3.5409   14.8840    0.9130 C.2       1 COA         0.3561
     44 O5P        -4.3128   14.0858    0.3885 O.2       1 COA        -0.2391
     45 N4P        -3.8551   15.7237    1.9714 N.am      1 COA        -0.1909
     46 C3P        -5.1602   15.7533    2.5907 C.3       1 COA         0.1160
     47 C2P        -6.0991   16.7543    1.9374 C.3       1 COA         0.2607
     48 S1P        -5.4593   18.4549    2.0180 S.3       1 COA        -0.3539
     49 H2A        -3.1164    4.2717    1.2395 H         1 COA        -0.1369
     50 H61A       -4.9530    0.5922    3.3076 H         1 COA         0.2048
     51 H62A       -4.9456   -0.6585    2.0932 H         1 COA         0.2048
     52 H8A        -3.5298   -0.9412   -2.5018 H         1 COA        -0.1292
     53 H1B        -2.3698    0.7525   -3.8030 H         1 COA        -0.0393
     54 H2B        -3.4073    3.5789   -2.9846 H         1 COA        -0.0393
     55 H3B        -2.0891    4.5191   -4.8158 H         1 COA        -0.0393
     56 H4B         0.1478    3.1100   -4.0235 H         1 COA        -0.0393
     57 H51A       -1.5937    4.5171   -1.9365 H         1 COA        -0.0393
     58 H52A       -0.4707    5.3519   -3.0411 H         1 COA        -0.0393
     59 H121       -1.2324    7.4355   -0.9984 H         1 COA        -0.0393
     60 H122       -2.5440    8.1138   -0.0133 H         1 COA        -0.0393
     61 H131        0.8796   10.5616   -1.1013 H         1 COA        -0.0393
     62 H132        0.7886    8.8842   -1.6454 H         1 COA        -0.0393
     63 H133        1.0681    9.2399    0.0618 H         1 COA        -0.0393
     64 H141       -1.3855   11.0192   -2.1904 H         1 COA        -0.0393
     65 H142       -2.7797   10.0132   -1.7903 H         1 COA        -0.0393
     66 H143       -1.4280    9.3402   -2.7211 H         1 COA        -0.0393
     67 H10        -2.3880   10.5770    0.7950 H         1 COA        -0.0393
     68 HO1         0.3169   10.1957    1.5366 H         1 COA         0.2010
     69 HN8        -2.8042   12.3405   -0.4899 H         1 COA         0.0865
     70 H71        -0.6987   14.3172   -1.0054 H         1 COA        -0.0393
     71 H72        -2.3708   14.3611   -1.5667 H         1 COA        -0.0393
     72 H61        -1.9618   16.1170    0.1758 H         1 COA        -0.0393
     73 H62        -1.4448   14.8702    1.3186 H         1 COA        -0.0393
     74 HN4        -3.1353   16.3459    2.3272 H         1 COA         0.0865
     75 H31        -5.5689   14.7446    2.4886 H         1 COA        -0.0393
     76 H32        -5.0167   15.9539    3.6554 H         1 COA        -0.0393
     77 H21        -6.2756   16.4998    0.8873 H         1 COA        -0.0393
     78 H22        -7.0624   16.7381    2.4565 H         1 COA        -0.0393
     79 HS1        -4.3321   18.2113    1.3365 H         1 COA         0.1718
@<TRIPOS>BOND
     1    1    2 ar
     2    1    6 ar
     3    2    3 ar
     4    2   49 1
     5    3    4 ar
     6    4    5 ar
     7    4   10 ar
     8    5    6 ar
     9    5    8 ar
    10    6    7 1
    11    7   50 1
    12    7   51 1
    13    8    9 ar
    14    9   10 ar
    15    9   52 1
    16   10   11 1
    17   11   12 1
    18   11   21 1
    19   11   53 1
    20   12   13 1
    21   12   14 1
    22   12   54 1
    23   14   15 1
    24   14   20 1
    25   14   55 1
    26   15   16 1
    27   16   17 2
    28   16   18 1
    29   16   19 1
    30   20   21 1
    31   20   22 1
    32   20   56 1
    33   22   23 1
    34   22   57 1
    35   22   58 1
    36   23   24 1
    37   24   25 2
    38   24   26 1
    39   24   27 1
    40   27   28 1
    41   28   29 2
    42   28   30 1
    43   28   31 1
    44   31   33 1
    45   32   33 1
    46   32   34 1
    47   32   35 1
    48   32   36 1
    49   33   59 1
    50   33   60 1
    51   34   61 1
    52   34   62 1
    53   34   63 1
    54   35   64 1
    55   35   65 1
    56   35   66 1
    57   36   37 1
    58   36   38 1
    59   36   67 1
    60   37   68 1
    61   38   39 2
    62   38   40 am
    63   40   41 1
    64   40   69 1
    65   41   42 1
    66   41   70 1
    67   41   71 1
    68   42   43 1
    69   42   72 1
    70   42   73 1
    71   43   44 2
    72   43   45 am
    73   45   46 1
    74   45   74 1
    75   46   47 1
    76   46   75 1
    77   46   76 1
    78   47   48 1
    79   47   77 1
    80   47   78 1
    81   48   79 1
@<TRIPOS>SUBSTRUCTURE
     1 COA         1 GROUP 0 A     ****
@<TRIPOS>MOLECULE
[5-(6-aminopurin-9-yl)-2-[[[[3-hydroxy-2,2-dimethyl-4-oxo-4-[[3-oxo-3-(2-sulfanylethylamino)propyl]amino]butoxy]-oxido-phosphoryl]oxy-oxido-phosphoryl]oxymethyl]-4-oxido-tetrahydrofuran-3-yl] phosphate
   79    81     1     0     0
SMALL
USER_CHARGES

@<TRIPOS>ATOM
      1 N1A        -3.9039    2.4517    1.8283 N.ar      1 COA        -0.5260
      2 C2A        -3.3295    3.2614    0.9063 C.ar      1 COA         0.6629
      3 N3A        -2.9870    2.9823   -0.3704 N.ar      1 COA        -0.5260
      4 C4A        -3.2951    1.7119   -0.6714 C.ar      1 COA         0.5212
      5 C5A        -3.8810    0.7714    0.1608 C.ar      1 COA         0.0088
      6 C6A        -4.1878    1.1807    1.4546 C.ar      1 COA         0.5212
      7 N6A        -4.7836    0.2924    2.3662 N.pl3     1 COA        -0.6025
      8 N7A        -4.0438   -0.4230   -0.4949 N.2       1 COA        -0.4271
      9 C8A        -3.5659   -0.2124   -1.7036 C.ar      1 COA         0.5691
     10 N9A        -3.1003    1.0663   -1.8591 N.pl3     1 COA        -0.5033
     11 C1B        -2.4828    1.6438   -3.1175 C.3       1 COA         0.2693
     12 C2B        -3.1527    2.8675   -3.7856 C.3       1 COA         0.2008
     13 O2B        -4.0894    2.4850   -4.6336 O.co2     1 COA        -0.1615
     14 C3B        -1.9491    3.4718   -4.5260 C.3       1 COA         0.1111
     15 O3B        -1.5961    2.7353   -5.7012 O.3       1 COA         0.1618
     16 P3B        -0.6948    3.4882   -6.8546 P.3       1 COA        -1.1921
     17 O7A        -1.5419    4.6766   -7.3000 O.co2     1 COA         0.3195
     18 O8A        -0.5270    2.4117   -7.9228 O.co2     1 COA         0.3195
     19 O9A         0.6037    3.8701   -6.1501 O.co2     1 COA         0.3195
     20 C4B        -0.8155    3.2705   -3.5257 C.3       1 COA         0.1111
     21 O4B        -1.1344    2.0698   -2.7962 O.3       1 COA        -0.1436
     22 C5B        -0.6774    4.4099   -2.5246 C.3       1 COA         0.1504
     23 O5B         0.3986    4.1249   -1.6460 O.3       1 COA         0.1618
     24 P1A         0.7670    5.1936   -0.4641 P.3       1 COA        -1.1062
     25 O1A         1.1289    6.5260   -1.0837 O.co2     1 COA         0.3195
     26 O2A         1.6876    4.5161    0.5275 O.co2     1 COA         0.3195
     27 O3A        -0.6886    5.3125    0.2679 O.3       1 COA         0.4672
     28 P2A        -1.1429    6.2040    1.5594 P.3       1 COA        -1.1062
     29 O4A        -2.6377    6.0612    1.7476 O.co2     1 COA         0.3195
     30 O5A        -0.1888    5.9134    2.6974 O.co2     1 COA         0.3195
     31 O6A        -0.8065    7.6957    0.9792 O.3       1 COA         0.1618
     32 CBP        -1.0090    9.5771   -0.5793 C.3       1 COA         0.0000
     33 CCP        -1.4652    8.1470   -0.1994 C.3       1 COA         0.1504
     34 CDP         0.5182    9.5632   -0.8289 C.3       1 COA         0.1179
     35 CEP        -1.6888   10.0085   -1.8940 C.3       1 COA         0.1179
     36 CAP        -1.3149   10.5877    0.5658 C.3       1 COA         0.0611
     37 OAP        -0.6287   10.1955    1.7518 O.3       1 COA        -0.2728
     38 C9P        -0.8916   12.0249    0.2699 C.2       1 COA         0.3561
     39 O9P         0.2422   12.4378    0.5067 O.2       1 COA        -0.2391
     40 N8P        -1.9050   12.7747   -0.3052 N.am      1 COA        -0.1909
     41 C7P        -1.7368   14.1547   -0.6986 C.3       1 COA         0.1160
     42 C6P        -1.2514   14.2219   -2.1393 C.3       1 COA         0.0286
     43 C5P        -1.0533   15.6490   -2.6178 C.2       1 COA         0.3561
     44 O5P        -1.2665   16.6306   -1.9114 O.2       1 COA        -0.2391
     45 N4P        -0.6112   15.6896   -3.9320 N.am      1 COA        -0.1909
     46 C3P        -0.3453   16.9241   -4.6341 C.3       1 COA         0.1160
     47 C2P         1.0958   17.0351   -5.1044 C.3       1 COA         0.2607
     48 S1P         2.2790   16.9698   -3.7247 S.3       1 COA        -0.3539
     49 H2A        -3.1164    4.2717    1.2395 H         1 COA        -0.1369
     50 H61A       -4.9530    0.5922    3.3076 H         1 COA         0.2048
     51 H62A       -4.9456   -0.6585    2.0932 H         1 COA         0.2048
     52 H8A        -3.5298   -0.9412   -2.5018 H         1 COA        -0.1292
     53 H1B        -2.3698    0.7525   -3.8030 H         1 COA        -0.0393
     54 H2B        -3.4073    3.5789   -2.9846 H         1 COA        -0.0393
     55 H3B        -2.0891    4.5191   -4.8158 H         1 COA        -0.0393
     56 H4B         0.1478    3.1100   -4.0235 H         1 COA        -0.0393
     57 H51A       -1.5937    4.5171   -1.9365 H         1 COA        -0.0393
     58 H52A       -0.4707    5.3519   -3.0411 H         1 COA        -0.0393
     59 H121       -1.2324    7.4355   -0.9984 H         1 COA        -0.0393
     60 H122       -2.5440    8.1138   -0.0133 H         1 COA        -0.0393
     61 H131        0.8796   10.5616   -1.1013 H         1 COA        -0.0393
     62 H132        0.7886    8.8842   -1.6454 H         1 COA        -0.0393
     63 H133        1.0681    9.2399    0.0618 H         1 COA        -0.0393
     64 H141       -1.3855   11.0192   -2.1904 H         1 COA        -0.0393
     65 H142       -2.7797   10.0132   -1.7903 H         1 COA        -0.0393
     66 H143       -1.4280    9.3402   -2.7211 H         1 COA        -0.0393
     67 H10        -2.3880   10.5770    0.7950 H         1 COA        -0.0393
     68 HO1         0.3169   10.1957    1.5366 H         1 COA         0.2010
     69 HN8        -2.8042   12.3405   -0.4899 H         1 COA         0.0865
     70 H71        -2.6911   14.6793   -0.5876 H         1 COA        -0.0393
     71 H72        -1.0190   14.6354   -0.0263 H         1 COA        -0.0393
     72 H61        -1.9744   13.7322   -2.8035 H         1 COA        -0.0393
     73 H62        -0.2983   13.6879   -2.2410 H         1 COA        -0.0393
     74 HN4        -0.4679   14.8119   -4.4228 H         1 COA         0.0865
     75 H31        -1.0159   16.9342   -5.4973 H         1 COA        -0.0393
     76 H32        -0.6304   17.7477   -3.9747 H         1 COA        -0.0393
     77 H21         1.3415   16.2347   -5.8098 H         1 COA        -0.0393
     78 H22         1.2362   17.9924   -5.6158 H         1 COA        -0.0393
     79 HS1         1.8089   18.0505   -3.0878 H         1 COA         0.1718
@<TRIPOS>BOND
     1    1    2 ar
     2    1    6 ar
     3    2    3 ar
     4    2   49 1
     5    3    4 ar
     6    4    5 ar
     7    4   10 ar
     8    5    6 ar
     9    5    8 ar
    10    6    7 1
    11    7   50 1
    12    7   51 1
    13    8    9 ar
    14    9   10 ar
    15    9   52 1
    16   10   11 1
    17   11   12 1
    18   11   21 1
    19   11   53 1
    20   12   13 1
    21   12   14 1
    22   12   54 1
    23   14   15 1
    24   14   20 1
    25   14   55 1
    26   15   16 1
    27   16   17 2
    28   16   18 1
    29   16   19 1
    30   20   21 1
    31   20   22 1
    32   20   56 1
    33   22   23 1
    34   22   57 1
    35   22   58 1
    36   23   24 1
    37   24   25 2
    38   24   26 1
    39   24   27 1
    40   27   28 1
    41   28   29 2
    42   28   30 1
    43   28   31 1
    44   31   33 1
    45   32   33 1
    46   32   34 1
    47   32   35 1
    48   32   36 1
    49   33   59 1
    50   33   60 1
    51   34   61 1
    52   34   62 1
    53   34   63 1
    54   35   64 1
    55   35   65 1
    56   35   66 1
    57   36   37 1
    58   36   38 1
    59   36   67 1
    60   37   68 1
    61   38   39 2
    62   38   40 am
    63   40   41 1
    64   40   69 1
    65   41   42 1
    66   41   70 1
    67   41   71 1
    68   42   43 1
    69   42   72 1
    70   42   73 1
    71   43   44 2
    72   43   45 am
    73   45   46 1
    74   45   74 1
    75   46   47 1
    76   46   75 1
    77   46   76 1
    78   47   48 1
    79   47   77 1
    80   47   78 1
    81   48   79 1
@<TRIPOS>SUBSTRUCTURE
     1 COA         1 GROUP 0 A     ****
@<TRIPOS>MOLECULE
[5-(6-aminopurin-9-yl)-2-[[[[3-hydroxy-2,2-dimethyl-4-oxo-4-[[3-oxo-3-(2-sulfanylethylamino)propyl]amino]butoxy]-oxido-phosphoryl]oxy-oxido-phosphoryl]oxymethyl]-4-oxido-tetrahydrofuran-3-yl] phosphate
   79    81     1     0     0
SMALL
USER_CHARGES

@<TRIPOS>ATOM
      1 N1A         6.3197    3.3711    0.1967 N.ar      1 COA        -0.5260
      2 C2A         5.0033    3.3256    0.5141 C.ar      1 COA         0.6629
      3 N3A         4.0730    2.4196    0.1418 N.ar      1 COA        -0.5260
      4 C4A         4.6208    1.4811   -0.6447 C.ar      1 COA         0.5212
      5 C5A         5.9423    1.3962   -1.0530 C.ar      1 COA         0.0088
      6 C6A         6.8050    2.3902   -0.6021 C.ar      1 COA         0.5212
      7 N6A         8.1621    2.3826   -0.9671 N.pl3     1 COA        -0.6025
      8 N7A         6.1335    0.2987   -1.8543 N.2       1 COA        -0.4271
      9 C8A         4.9500   -0.2731   -1.9316 C.ar      1 COA         0.5691
     10 N9A         4.0006    0.4065   -1.2155 N.pl3     1 COA        -0.5033
     11 C1B         2.5376    0.0288   -1.0907 C.3       1 COA         0.2693
     12 C2B         1.9579   -0.2640    0.3131 C.3       1 COA         0.2008
     13 O2B         2.1299   -1.5323    0.6368 O.co2     1 COA        -0.1615
     14 C3B         0.4729    0.0487    0.0699 C.3       1 COA         0.1111
     15 O3B        -0.1943   -0.9780   -0.6709 O.3       1 COA         0.1618
     16 P3B        -1.8364   -1.0586   -0.5907 P.3       1 COA        -1.1921
     17 O7A        -2.1459   -1.2889    0.8856 O.co2     1 COA         0.3195
     18 O8A        -2.1706   -2.2476   -1.4866 O.co2     1 COA         0.3195
     19 O9A        -2.3217    0.2823   -1.1335 O.co2     1 COA         0.3195
     20 C4B         0.5412    1.2713   -0.8394 C.3       1 COA         0.1111
     21 O4B         1.7485    1.1278   -1.6124 O.3       1 COA        -0.1436
     22 C5B         0.6184    2.5901   -0.0816 C.3       1 COA         0.1504
     23 O5B         0.6777    3.6562   -1.0149 O.3       1 COA         0.1618
     24 P1A         0.7670    5.1936   -0.4641 P.3       1 COA        -1.1062
     25 O1A         0.8194    6.1476   -1.6376 O.co2     1 COA         0.3195
     26 O2A         1.8029    5.2507    0.6375 O.co2     1 COA         0.3195
     27 O3A        -0.6886    5.3125    0.2679 O.3       1 COA         0.4672
     28 P2A        -1.1429    6.2040    1.5594 P.3       1 COA        -1.1062
     29 O4A        -2.6377    6.0612    1.7476 O.co2     1 COA         0.3195
     30 O5A        -0.1888    5.9134    2.6974 O.co2     1 COA         0.3195
     31 O6A        -0.8065    7.6957    0.9792 O.3       1 COA         0.1618
     32 CBP        -1.0463    9.4480   -0.7182 C.3       1 COA         0.0000
     33 CCP        -1.7297    8.3208    0.0940 C.3       1 COA         0.1504
     34 CDP         0.1097    8.8359   -1.5452 C.3       1 COA         0.1179
     35 CEP        -2.0542   10.0578   -1.7127 C.3       1 COA         0.1179
     36 CAP        -0.4581   10.5415    0.2222 C.3       1 COA         0.0611
     37 OAP        -0.0749    9.9553    1.4635 O.3       1 COA        -0.2728
     38 C9P         0.7781   11.2496   -0.3278 C.2       1 COA         0.3561
     39 O9P         1.9147   10.8096   -0.1639 O.2       1 COA        -0.2391
     40 N8P         0.4670   12.3997   -1.0352 N.am      1 COA        -0.1909
     41 C7P         1.4661   13.2264   -1.6721 C.3       1 COA         0.1160
     42 C6P         1.6949   12.7477   -3.0984 C.3       1 COA         0.0286
     43 C5P         2.7373   13.5764   -3.8274 C.2       1 COA         0.3561
     44 O5P         2.9367   14.7648   -3.5911 O.2       1 COA        -0.2391
     45 N4P         3.4150   12.8242   -4.7756 N.am      1 COA        -0.1909
     46 C3P         4.4585   13.3701   -5.6127 C.3       1 COA         0.1160
     47 C2P         5.7914   12.6633   -5.4279 C.3       1 COA         0.2607
     48 S1P         5.6942   10.8916   -5.8268 S.3       1 COA        -0.3539
     49 H2A         4.6492    4.1260    1.1552 H         1 COA        -0.1369
     50 H61A        8.7564    3.1335   -0.6708 H         1 COA         0.2048
     51 H62A        8.4991    1.6788   -1.5963 H         1 COA         0.2048
     52 H8A         4.7208   -1.1726   -2.4865 H         1 COA        -0.1292
     53 H1B         2.4085   -0.8200   -1.8256 H         1 COA        -0.0393
     54 H2B         2.3286    0.5212    0.9904 H         1 COA        -0.0393
     55 H3B        -0.0977    0.2245    0.9885 H         1 COA        -0.0393
     56 H4B        -0.2996    1.3083   -1.5416 H         1 COA        -0.0393
     57 H51A        1.5144    2.6204    0.5455 H         1 COA        -0.0393
     58 H52A       -0.2654    2.7227    0.5494 H         1 COA        -0.0393
     59 H121       -2.1262    7.5446   -0.5686 H         1 COA        -0.0393
     60 H122       -2.5562    8.7139    0.6956 H         1 COA        -0.0393
     61 H131        0.6194    9.6060   -2.1356 H         1 COA        -0.0393
     62 H132       -0.2524    8.0744   -2.2449 H         1 COA        -0.0393
     63 H133        0.8566    8.3597   -0.9005 H         1 COA        -0.0393
     64 H141       -1.5995   10.8607   -2.3043 H         1 COA        -0.0393
     65 H142       -2.9149   10.4873   -1.1878 H         1 COA        -0.0393
     66 H143       -2.4255    9.3094   -2.4205 H         1 COA        -0.0393
     67 H10        -1.2254   11.2941    0.4437 H         1 COA        -0.0393
     68 HO1         0.5935    9.2836    1.2570 H         1 COA         0.2010
     69 HN8        -0.5053   12.6721   -1.1428 H         1 COA         0.0865
     70 H71         1.1298   14.2681   -1.6636 H         1 COA        -0.0393
     71 H72         2.3947   13.1777   -1.0946 H         1 COA        -0.0393
     72 H61         0.7574   12.7946   -3.6663 H         1 COA        -0.0393
     73 H62         2.0252   11.7013   -3.0960 H         1 COA        -0.0393
     74 HN4         3.1665   11.8456   -4.8865 H         1 COA         0.0865
     75 H31         4.1171   13.2480   -6.6440 H         1 COA        -0.0393
     76 H32         4.5248   14.4407   -5.4030 H         1 COA        -0.0393
     77 H21         6.5668   13.1174   -6.0534 H         1 COA        -0.0393
     78 H22         6.1048   12.7507   -4.3829 H         1 COA        -0.0393
     79 HS1         5.3157   11.0569   -7.1010 H         1 COA         0.1718
@<TRIPOS>BOND
     1    1    2 ar
     2    1    6 ar
     3    2    3 ar
     4    2   49 1
     5    3    4 ar
     6    4    5 ar
     7    4   10 ar
     8    5    6 ar
     9    5    8 ar
    10    6    7 1
    11    7   50 1
    12    7   51 1
    13    8    9 ar
    14    9   10 ar
    15    9   52 1
    16   10   11 1
    17   11   12 1
    18   11   21 1
    19   11   53 1
    20   12   13 1
    21   12   14 1
    22   12   54 1
    23   14   15 1
    24   14   20 1
    25   14   55 1
    26   15   16 1
    27   16   17 2
    28   16   18 1
    29   16   19 1
    30   20   21 1
    31   20   22 1
    32   20   56 1
    33   22   23 1
    34   22   57 1
    35   22   58 1
    36   23   24 1
    37   24   25 2
    38   24   26 1
    39   24   27 1
    40   27   28 1
    41   28   29 2
    42   28   30 1
    43   28   31 1
    44   31   33 1
    45   32   33 1
    46   32   34 1
    47   32   35 1
    48   32   36 1
    49   33   59 1
    50   33   60 1
    51   34   61 1
    52   34   62 1
    53   34   63 1
    54   35   64 1
    55   35   65 1
    56   35   66 1
    57   36   37 1
    58   36   38 1
    59   36   67 1
    60   37   68 1
    61   38   39 2
    62   38   40 am
    63   40   41 1
    64   40   69 1
    65   41   42 1
    66   41   70 1
    67   41   71 1
    68   42   43 1
    69   42   72 1
    70   42   73 1
    71   43   44 2
    72   43   45 am
    73   45   46 1
    74   45   74 1
    75   46   47 1
    76   46   75 1
    77   46   76 1
    78   47   48 1
    79   47   77 1
    80   47   78 1
    81   48   79 1
@<TRIPOS>SUBSTRUCTURE
     1 COA         1 GROUP 0 A     ****
@<TRIPOS>MOLECULE
[5-(6-aminopurin-9-yl)-2-[[[[3-hydroxy-2,2-dimethyl-4-oxo-4-[[3-oxo-3-(2-sulfanylethylamino)propyl]amino]butoxy]-oxido-phosphoryl]oxy-oxido-phosphoryl]oxymethyl]-4-oxido-tetrahydrofuran-3-yl] phosphate
   79    81     1     0     0
SMALL
USER_CHARGES

@<TRIPOS>ATOM
      1 N1A        -3.9039    2.4517    1.8283 N.ar      1 COA        -0.5260
      2 C2A        -3.3295    3.2614    0.9063 C.ar      1 COA         0.6629
      3 N3A        -2.9870    2.9823   -0.3704 N.ar      1 COA        -0.5260
      4 C4A        -3.2951    1.7119   -0.6714 C.ar      1 COA         0.5212
      5 C5A        -3.8810    0.7714    0.1608 C.ar      1 COA         0.0088
      6 C6A        -4.1878    1.1807    1.4546 C.ar      1 COA         0.5212
      7 N6A        -4.7836    0.2924    2.3662 N.pl3     1 COA        -0.6025
      8 N7A        -4.0438   -0.4230   -0.4949 N.2       1 COA        -0.4271
      9 C8A        -3.5659   -0.2124   -1.7036 C.ar      1 COA         0.5691
     10 N9A        -3.1003    1.0663   -1.8591 N.pl3     1 COA        -0.5033
     11 C1B        -2.4828    1.6438   -3.1175 C.3       1 COA         0.2693
     12 C2B        -3.1527    2.8675   -3.7856 C.3       1 COA         0.2008
     13 O2B        -4.0894    2.4850   -4.6336 O.co2     1 COA        -0.1615
     14 C3B        -1.9491    3.4718   -4.5260 C.3       1 COA         0.1111
     15 O3B        -1.5961    2.7353   -5.7012 O.3       1 COA         0.1618
     16 P3B        -0.6948    3.4882   -6.8546 P.3       1 COA        -1.1921
     17 O7A        -1.5419    4.6766   -7.3000 O.co2     1 COA         0.3195
     18 O8A        -0.5270    2.4117   -7.9228 O.co2     1 COA         0.3195
     19 O9A         0.6037    3.8701   -6.1501 O.co2     1 COA         0.3195
     20 C4B        -0.8155    3.2705   -3.5257 C.3       1 COA         0.1111
     21 O4B        -1.1344    2.0698   -2.7962 O.3       1 COA        -0.1436
     22 C5B        -0.6774    4.4099   -2.5246 C.3       1 COA         0.1504
     23 O5B         0.3986    4.1249   -1.6460 O.3       1 COA         0.1618
     24 P1A         0.7670    5.1936   -0.4641 P.3       1 COA        -1.1062
     25 O1A         1.1289    6.5260   -1.0837 O.co2     1 COA         0.3195
     26 O2A         1.6876    4.5161    0.5275 O.co2     1 COA         0.3195
     27 O3A        -0.6886    5.3125    0.2679 O.3       1 COA         0.4672
     28 P2A        -1.1429    6.2040    1.5594 P.3       1 COA        -1.1062
     29 O4A        -2.6377    6.0612    1.7476 O.co2     1 COA         0.3195
     30 O5A        -0.1888    5.9134    2.6974 O.co2     1 COA         0.3195
     31 O6A        -0.8065    7.6957    0.9792 O.3       1 COA         0.1618
     32 CBP        -1.0090    9.5771   -0.5793 C.3       1 COA         0.0000
     33 CCP        -1.4652    8.1470   -0.1994 C.3       1 COA         0.1504
     34 CDP         0.5182    9.5632   -0.8289 C.3       1 COA         0.1179
     35 CEP        -1.6888   10.0085   -1.8940 C.3       1 COA         0.1179
     36 CAP        -1.3149   10.5877    0.5658 C.3       1 COA         0.0611
     37 OAP        -2.7163   10.6149    0.8239 O.3       1 COA        -0.2728
     38 C9P        -0.6314   10.2649    1.8928 C.2       1 COA         0.3561
     39 O9P        -1.1331    9.5097    2.7236 O.2       1 COA        -0.2391
     40 N8P         0.5984   10.8887    2.0282 N.am      1 COA        -0.1909
     41 C7P         1.4450   10.7163    3.1861 C.3       1 COA         0.1160
     42 C6P         1.1093   11.7726    4.2289 C.3       1 COA         0.0286
     43 C5P         1.3130   13.1846    3.7096 C.2       1 COA         0.3561
     44 O5P         2.1523   13.4742    2.8613 O.2       1 COA        -0.2391
     45 N4P         0.4426   14.0804    4.3129 N.am      1 COA        -0.1909
     46 C3P         0.4265   15.4913    4.0019 C.3       1 COA         0.1160
     47 C2P        -0.5216   15.8323    2.8638 C.3       1 COA         0.2607
     48 S1P        -2.2415   15.3744    3.2377 S.3       1 COA        -0.3539
     49 H2A        -3.1164    4.2717    1.2395 H         1 COA        -0.1369
     50 H61A       -4.9530    0.5922    3.3076 H         1 COA         0.2048
     51 H62A       -4.9456   -0.6585    2.0932 H         1 COA         0.2048
     52 H8A        -3.5298   -0.9412   -2.5018 H         1 COA        -0.1292
     53 H1B        -2.3698    0.7525   -3.8030 H         1 COA        -0.0393
     54 H2B        -3.4073    3.5789   -2.9846 H         1 COA        -0.0393
     55 H3B        -2.0891    4.5191   -4.8158 H         1 COA        -0.0393
     56 H4B         0.1478    3.1100   -4.0235 H         1 COA        -0.0393
     57 H51A       -1.5937    4.5171   -1.9365 H         1 COA        -0.0393
     58 H52A       -0.4707    5.3519   -3.0411 H         1 COA        -0.0393
     59 H121       -1.2324    7.4355   -0.9984 H         1 COA        -0.0393
     60 H122       -2.5440    8.1138   -0.0133 H         1 COA        -0.0393
     61 H131        0.8796   10.5616   -1.1013 H         1 COA        -0.0393
     62 H132        0.7886    8.8842   -1.6454 H         1 COA        -0.0393
     63 H133        1.0681    9.2399    0.0618 H         1 COA        -0.0393
     64 H141       -1.3855   11.0192   -2.1904 H         1 COA        -0.0393
     65 H142       -2.7797   10.0132   -1.7903 H         1 COA        -0.0393
     66 H143       -1.4280    9.3402   -2.7211 H         1 COA        -0.0393
     67 H10        -1.0237   11.5996    0.2569 H         1 COA        -0.0393
     68 HO1        -2.9668    9.7148    1.0837 H         1 COA         0.2010
     69 HN8         0.9463   11.4752    1.2758 H         1 COA         0.0865
     70 H71         1.2973    9.7110    3.5932 H         1 COA        -0.0393
     71 H72         2.4931   10.7948    2.8803 H         1 COA        -0.0393
     72 H61         1.7381   11.6375    5.1178 H         1 COA        -0.0393
     73 H62         0.0644   11.6688    4.5472 H         1 COA        -0.0393
     74 HN4        -0.2130   13.7287    5.0045 H         1 COA         0.0865
     75 H31         0.1049   16.0008    4.9139 H         1 COA        -0.0393
     76 H32         1.4547   15.7950    3.7895 H         1 COA        -0.0393
     77 H21        -0.4900   16.9022    2.6335 H         1 COA        -0.0393
     78 H22        -0.2206   15.2834    1.9661 H         1 COA        -0.0393
     79 HS1        -2.0042   14.0662    3.4010 H         1 COA         0.1718
@<TRIPOS>BOND
     1    1    2 ar
     2    1    6 ar
     3    2    3 ar
     4    2   49 1
     5    3    4 ar
     6    4    5 ar
     7    4   10 ar
     8    5    6 ar
     9    5    8 ar
    10    6    7 1
    11    7   50 1
    12    7   51 1
    13    8    9 ar
    14    9   10 ar
    15    9   52 1
    16   10   11 1
    17   11   12 1
    18   11   21 1
    19   11   53 1
    20   12   13 1
    21   12   14 1
    22   12   54 1
    23   14   15 1
    24   14   20 1
    25   14   55 1
    26   15   16 1
    27   16   17 2
    28   16   18 1
    29   16   19 1
    30   20   21 1
    31   20   22 1
    32   20   56 1
    33   22   23 1
    34   22   57 1
    35   22   58 1
    36   23   24 1
    37   24   25 2
    38   24   26 1
    39   24   27 1
    40   27   28 1
    41   28   29 2
    42   28   30 1
    43   28   31 1
    44   31   33 1
    45   32   33 1
    46   32   34 1
    47   32   35 1
    48   32   36 1
    49   33   59 1
    50   33   60 1
    51   34   61 1
    52   34   62 1
    53   34   63 1
    54   35   64 1
    55   35   65 1
    56   35   66 1
    57   36   37 1
    58   36   38 1
    59   36   67 1
    60   37   68 1
    61   38   39 2
    62   38   40 am
    63   40   41 1
    64   40   69 1
    65   41   42 1
    66   41   70 1
    67   41   71 1
    68   42   43 1
    69   42   72 1
    70   42   73 1
    71   43   44 2
    72   43   45 am
    73   45   46 1
    74   45   74 1
    75   46   47 1
    76   46   75 1
    77   46   76 1
    78   47   48 1
    79   47   77 1
    80   47   78 1
    81   48   79 1
@<TRIPOS>SUBSTRUCTURE
     1 COA         1 GROUP 0 A     ****
@<TRIPOS>MOLECULE
[5-(6-aminopurin-9-yl)-2-[[[[3-hydroxy-2,2-dimethyl-4-oxo-4-[[3-oxo-3-(2-sulfanylethylamino)propyl]amino]butoxy]-oxido-phosphoryl]oxy-oxido-phosphoryl]oxymethyl]-4-oxido-tetrahydrofuran-3-yl] phosphate
   79    81     1     0     0
SMALL
USER_CHARGES

@<TRIPOS>ATOM
      1 N1A        -3.9039    2.4517    1.8283 N.ar      1 COA        -0.5260
      2 C2A        -3.3295    3.2614    0.9063 C.ar      1 COA         0.6629
      3 N3A        -2.9870    2.9823   -0.3704 N.ar      1 COA        -0.5260
      4 C4A        -3.2951    1.7119   -0.6714 C.ar      1 COA         0.5212
      5 C5A        -3.8810    0.7714    0.1608 C.ar      1 COA         0.0088
      6 C6A        -4.1878    1.1807    1.4546 C.ar      1 COA         0.5212
      7 N6A        -4.7836    0.2924    2.3662 N.pl3     1 COA        -0.6025
      8 N7A        -4.0438   -0.4230   -0.4949 N.2       1 COA        -0.4271
      9 C8A        -3.5659   -0.2124   -1.7036 C.ar      1 COA         0.5691
     10 N9A        -3.1003    1.0663   -1.8591 N.pl3     1 COA        -0.5033
     11 C1B        -2.4828    1.6438   -3.1175 C.3       1 COA         0.2693
     12 C2B        -3.1527    2.8675   -3.7856 C.3       1 COA         0.2008
     13 O2B        -4.0894    2.4850   -4.6336 O.co2     1 COA        -0.1615
     14 C3B        -1.9491    3.4718   -4.5260 C.3       1 COA         0.1111
     15 O3B        -1.5961    2.7353   -5.7012 O.3       1 COA         0.1618
     16 P3B        -0.6948    3.4882   -6.8546 P.3       1 COA        -1.1921
     17 O7A        -1.5419    4.6766   -7.3000 O.co2     1 COA         0.3195
     18 O8A        -0.5270    2.4117   -7.9228 O.co2     1 COA         0.3195
     19 O9A         0.6037    3.8701   -6.1501 O.co2     1 COA         0.3195
     20 C4B        -0.8155    3.2705   -3.5257 C.3       1 COA         0.1111
     21 O4B        -1.1344    2.0698   -2.7962 O.3       1 COA        -0.1436
     22 C5B        -0.6774    4.4099   -2.5246 C.3       1 COA         0.1504
     23 O5B         0.3986    4.1249   -1.6460 O.3       1 COA         0.1618
     24 P1A         0.7670    5.1936   -0.4641 P.3       1 COA        -1.1062
     25 O1A         1.1289    6.5260   -1.0837 O.co2     1 COA         0.3195
     26 O2A         1.6876    4.5161    0.5275 O.co2     1 COA         0.3195
     27 O3A        -0.6886    5.3125    0.2679 O.3       1 COA         0.4672
     28 P2A        -1.1429    6.2040    1.5594 P.3       1 COA        -1.1062
     29 O4A        -2.6377    6.0612    1.7476 O.co2     1 COA         0.3195
     30 O5A        -0.1888    5.9134    2.6974 O.co2     1 COA         0.3195
     31 O6A        -0.8065    7.6957    0.9792 O.3       1 COA         0.1618
     32 CBP        -1.0090    9.5771   -0.5793 C.3       1 COA         0.0000
     33 CCP        -1.4652    8.1470   -0.1994 C.3       1 COA         0.1504
     34 CDP         0.5182    9.5632   -0.8289 C.3       1 COA         0.1179
     35 CEP        -1.6888   10.0085   -1.8940 C.3       1 COA         0.1179
     36 CAP        -1.3149   10.5877    0.5658 C.3       1 COA         0.0611
     37 OAP        -0.6287   10.1955    1.7518 O.3       1 COA        -0.2728
     38 C9P        -0.8916   12.0249    0.2699 C.2       1 COA         0.3561
     39 O9P         0.2422   12.4378    0.5067 O.2       1 COA        -0.2391
     40 N8P        -1.9050   12.7747   -0.3052 N.am      1 COA        -0.1909
     41 C7P        -1.7368   14.1547   -0.6986 C.3       1 COA         0.1160
     42 C6P        -1.2514   14.2219   -2.1393 C.3       1 COA         0.0286
     43 C5P        -2.2251   13.5770   -3.1093 C.2       1 COA         0.3561
     44 O5P        -3.2821   13.0607   -2.7570 O.2       1 COA        -0.2391
     45 N4P        -1.7656   13.6483   -4.4162 N.am      1 COA        -0.1909
     46 C3P        -2.4991   13.1084   -5.5378 C.3       1 COA         0.1160
     47 C2P        -2.8575   14.1649   -6.5701 C.3       1 COA         0.2607
     48 S1P        -3.8941   15.4869   -5.8735 S.3       1 COA        -0.3539
     49 H2A        -3.1164    4.2717    1.2395 H         1 COA        -0.1369
     50 H61A       -4.9530    0.5922    3.3076 H         1 COA         0.2048
     51 H62A       -4.9456   -0.6585    2.0932 H         1 COA         0.2048
     52 H8A        -3.5298   -0.9412   -2.5018 H         1 COA        -0.1292
     53 H1B        -2.3698    0.7525   -3.8030 H         1 COA        -0.0393
     54 H2B        -3.4073    3.5789   -2.9846 H         1 COA        -0.0393
     55 H3B        -2.0891    4.5191   -4.8158 H         1 COA        -0.0393
     56 H4B         0.1478    3.1100   -4.0235 H         1 COA        -0.0393
     57 H51A       -1.5937    4.5171   -1.9365 H         1 COA        -0.0393
     58 H52A       -0.4707    5.3519   -3.0411 H         1 COA        -0.0393
     59 H121       -1.2324    7.4355   -0.9984 H         1 COA        -0.0393
     60 H122       -2.5440    8.1138   -0.0133 H         1 COA        -0.0393
     61 H131        0.8796   10.5616   -1.1013 H         1 COA        -0.0393
     62 H132        0.7886    8.8842   -1.6454 H         1 COA        -0.0393
     63 H133        1.0681    9.2399    0.0618 H         1 COA        -0.0393
     64 H141       -1.3855   11.0192   -2.1904 H         1 COA        -0.0393
     65 H142       -2.7797   10.0132   -1.7903 H         1 COA        -0.0393
     66 H143       -1.4280    9.3402   -2.7211 H         1 COA        -0.0393
     67 H10        -2.3880   10.5770    0.7950 H         1 COA        -0.0393
     68 HO1         0.3169   10.1957    1.5366 H         1 COA         0.2010
     69 HN8        -2.8042   12.3405   -0.4899 H         1 COA         0.0865
     70 H71        -2.6911   14.6793   -0.5876 H         1 COA        -0.0393
     71 H72        -1.0190   14.6354   -0.0263 H         1 COA        -0.0393
     72 H61        -0.2828   13.7155   -2.2344 H         1 COA        -0.0393
     73 H62        -1.1061   15.2673   -2.4393 H         1 COA        -0.0393
     74 HN4        -0.8732   14.1003   -4.5926 H         1 COA         0.0865
     75 H31        -1.8503   12.3551   -5.9922 H         1 COA        -0.0393
     76 H32        -3.3819   12.5999   -5.1420 H         1 COA        -0.0393
     77 H21        -1.9570   14.6189   -6.9964 H         1 COA        -0.0393
     78 H22        -3.4197   13.6980   -7.3848 H         1 COA        -0.0393
     79 HS1        -3.0114   15.8812   -4.9463 H         1 COA         0.1718
@<TRIPOS>BOND
     1    1    2 ar
     2    1    6 ar
     3    2    3 ar
     4    2   49 1
     5    3    4 ar
     6    4    5 ar
     7    4   10 ar
     8    5    6 ar
     9    5    8 ar
    10    6    7 1
    11    7   50 1
    12    7   51 1
    13    8    9 ar
    14    9   10 ar
    15    9   52 1
    16   10   11 1
    17   11   12 1
    18   11   21 1
    19   11   53 1
    20   12   13 1
    21   12   14 1
    22   12   54 1
    23   14   15 1
    24   14   20 1
    25   14   55 1
    26   15   16 1
    27   16   17 2
    28   16   18 1
    29   16   19 1
    30   20   21 1
    31   20   22 1
    32   20   56 1
    33   22   23 1
    34   22   57 1
    35   22   58 1
    36   23   24 1
    37   24   25 2
    38   24   26 1
    39   24   27 1
    40   27   28 1
    41   28   29 2
    42   28   30 1
    43   28   31 1
    44   31   33 1
    45   32   33 1
    46   32   34 1
    47   32   35 1
    48   32   36 1
    49   33   59 1
    50   33   60 1
    51   34   61 1
    52   34   62 1
    53   34   63 1
    54   35   64 1
    55   35   65 1
    56   35   66 1
    57   36   37 1
    58   36   38 1
    59   36   67 1
    60   37   68 1
    61   38   39 2
    62   38   40 am
    63   40   41 1
    64   40   69 1
    65   41   42 1
    66   41   70 1
    67   41   71 1
    68   42   43 1
    69   42   72 1
    70   42   73 1
    71   43   44 2
    72   43   45 am
    73   45   46 1
    74   45   74 1
    75   46   47 1
    76   46   75 1
    77   46   76 1
    78   47   48 1
    79   47   77 1
    80   47   78 1
    81   48   79 1
@<TRIPOS>SUBSTRUCTURE
     1 COA         1 GROUP 0 A     ****
@<TRIPOS>MOLECULE
[5-(6-aminopurin-9-yl)-2-[[[[3-hydroxy-2,2-dimethyl-4-oxo-4-[[3-oxo-3-(2-sulfanylethylamino)propyl]amino]butoxy]-oxido-phosphoryl]oxy-oxido-phosphoryl]oxymethyl]-4-oxido-tetrahydrofuran-3-yl] phosphate
   79    81     1     0     0
SMALL
USER_CHARGES

@<TRIPOS>ATOM
      1 N1A        -3.9039    2.4517    1.8283 N.ar      1 COA        -0.5260
      2 C2A        -3.3295    3.2614    0.9063 C.ar      1 COA         0.6629
      3 N3A        -2.9870    2.9823   -0.3704 N.ar      1 COA        -0.5260
      4 C4A        -3.2951    1.7119   -0.6714 C.ar      1 COA         0.5212
      5 C5A        -3.8810    0.7714    0.1608 C.ar      1 COA         0.0088
      6 C6A        -4.1878    1.1807    1.4546 C.ar      1 COA         0.5212
      7 N6A        -4.7836    0.2924    2.3662 N.pl3     1 COA        -0.6025
      8 N7A        -4.0438   -0.4230   -0.4949 N.2       1 COA        -0.4271
      9 C8A        -3.5659   -0.2124   -1.7036 C.ar      1 COA         0.5691
     10 N9A        -3.1003    1.0663   -1.8591 N.pl3     1 COA        -0.5033
     11 C1B        -2.4828    1.6438   -3.1175 C.3       1 COA         0.2693
     12 C2B        -3.1527    2.8675   -3.7856 C.3       1 COA         0.2008
     13 O2B        -4.0894    2.4850   -4.6336 O.co2     1 COA        -0.1615
     14 C3B        -1.9491    3.4718   -4.5260 C.3       1 COA         0.1111
     15 O3B        -1.5961    2.7353   -5.7012 O.3       1 COA         0.1618
     16 P3B        -0.6948    3.4882   -6.8546 P.3       1 COA        -1.1921
     17 O7A        -1.5419    4.6766   -7.3000 O.co2     1 COA         0.3195
     18 O8A        -0.5270    2.4117   -7.9228 O.co2     1 COA         0.3195
     19 O9A         0.6037    3.8701   -6.1501 O.co2     1 COA         0.3195
     20 C4B        -0.8155    3.2705   -3.5257 C.3       1 COA         0.1111
     21 O4B        -1.1344    2.0698   -2.7962 O.3       1 COA        -0.1436
     22 C5B        -0.6774    4.4099   -2.5246 C.3       1 COA         0.1504
     23 O5B         0.3986    4.1249   -1.6460 O.3       1 COA         0.1618
     24 P1A         0.7670    5.1936   -0.4641 P.3       1 COA        -1.1062
     25 O1A         1.1289    6.5260   -1.0837 O.co2     1 COA         0.3195
     26 O2A         1.6876    4.5161    0.5275 O.co2     1 COA         0.3195
     27 O3A        -0.6886    5.3125    0.2679 O.3       1 COA         0.4672
     28 P2A        -1.1429    6.2040    1.5594 P.3       1 COA        -1.1062
     29 O4A        -2.6377    6.0612    1.7476 O.co2     1 COA         0.3195
     30 O5A        -0.1888    5.9134    2.6974 O.co2     1 COA         0.3195
     31 O6A        -0.8065    7.6957    0.9792 O.3       1 COA         0.1618
     32 CBP        -1.0090    9.5771   -0.5793 C.3       1 COA         0.0000
     33 CCP        -1.4652    8.1470   -0.1994 C.3       1 COA         0.1504
     34 CDP         0.5182    9.5632   -0.8289 C.3       1 COA         0.1179
     35 CEP        -1.6888   10.0085   -1.8940 C.3       1 COA         0.1179
     36 CAP        -1.3149   10.5877    0.5658 C.3       1 COA         0.0611
     37 OAP        -0.8841   11.8921    0.1862 O.3       1 COA        -0.2728
     38 C9P        -2.7940   10.7032    0.9282 C.2       1 COA         0.3561
     39 O9P        -3.6570   10.0067    0.3969 O.2       1 COA        -0.2391
     40 N8P        -3.0315   11.6427    1.9186 N.am      1 COA        -0.1909
     41 C7P        -4.3486   11.9130    2.4473 C.3       1 COA         0.1160
     42 C6P        -5.0118   13.0149    1.6339 C.3       1 COA         0.0286
     43 C5P        -4.2232   14.3118    1.6641 C.2       1 COA         0.3561
     44 O5P        -3.5267   14.6530    2.6162 O.2       1 COA        -0.2391
     45 N4P        -4.3958   15.0411    0.4968 N.am      1 COA        -0.1909
     46 C3P        -3.7584   16.3169    0.2655 C.3       1 COA         0.1160
     47 C2P        -2.3982   16.1833   -0.3996 C.3       1 COA         0.2607
     48 S1P        -2.5000   15.3645   -2.0204 S.3       1 COA        -0.3539
     49 H2A        -3.1164    4.2717    1.2395 H         1 COA        -0.1369
     50 H61A       -4.9530    0.5922    3.3076 H         1 COA         0.2048
     51 H62A       -4.9456   -0.6585    2.0932 H         1 COA         0.2048
     52 H8A        -3.5298   -0.9412   -2.5018 H         1 COA        -0.1292
     53 H1B        -2.3698    0.7525   -3.8030 H         1 COA        -0.0393
     54 H2B        -3.4073    3.5789   -2.9846 H         1 COA        -0.0393
     55 H3B        -2.0891    4.5191   -4.8158 H         1 COA        -0.0393
     56 H4B         0.1478    3.1100   -4.0235 H         1 COA        -0.0393
     57 H51A       -1.5937    4.5171   -1.9365 H         1 COA        -0.0393
     58 H52A       -0.4707    5.3519   -3.0411 H         1 COA        -0.0393
     59 H121       -1.2324    7.4355   -0.9984 H         1 COA        -0.0393
     60 H122       -2.5440    8.1138   -0.0133 H         1 COA        -0.0393
     61 H131        0.8796   10.5616   -1.1013 H         1 COA        -0.0393
     62 H132        0.7886    8.8842   -1.6454 H         1 COA        -0.0393
     63 H133        1.0681    9.2399    0.0618 H         1 COA        -0.0393
     64 H141       -1.3855   11.0192   -2.1904 H         1 COA        -0.0393
     65 H142       -2.7797   10.0132   -1.7903 H         1 COA        -0.0393
     66 H143       -1.4280    9.3402   -2.7211 H         1 COA        -0.0393
     67 H10        -0.7524   10.3112    1.4665 H         1 COA        -0.0393
     68 HO1        -1.3767   12.1229   -0.6167 H         1 COA         0.2010
     69 HN8        -2.2509   12.1532    2.3202 H         1 COA         0.0865
     70 H71        -4.9450   10.9957    2.4135 H         1 COA        -0.0393
     71 H72        -4.2610   12.2077    3.4979 H         1 COA        -0.0393
     72 H61        -6.0190   13.2142    2.0205 H         1 COA        -0.0393
     73 H62        -5.1181   12.6993    0.5884 H         1 COA        -0.0393
     74 HN4        -4.9974   14.6610   -0.2281 H         1 COA         0.0865
     75 H31        -4.4322   16.8808   -0.3849 H         1 COA        -0.0393
     76 H32        -3.7009   16.8368    1.2251 H         1 COA        -0.0393
     77 H21        -1.9294   17.1633   -0.5352 H         1 COA        -0.0393
     78 H22        -1.7431   15.5793    0.2358 H         1 COA        -0.0393
     79 HS1        -3.0193   14.2173   -1.5637 H         1 COA         0.1718
@<TRIPOS>BOND
     1    1    2 ar
     2    1    6 ar
     3    2    3 ar
     4    2   49 1
     5    3    4 ar
     6    4    5 ar
     7    4   10 ar
     8    5    6 ar
     9    5    8 ar
    10    6    7 1
    11    7   50 1
    12    7   51 1
    13    8    9 ar
    14    9   10 ar
    15    9   52 1
    16   10   11 1
    17   11   12 1
    18   11   21 1
    19   11   53 1
    20   12   13 1
    21   12   14 1
    22   12   54 1
    23   14   15 1
    24   14   20 1
    25   14   55 1
    26   15   16 1
    27   16   17 2
    28   16   18 1
    29   16   19 1
    30   20   21 1
    31   20   22 1
    32   20   56 1
    33   22   23 1
    34   22   57 1
    35   22   58 1
    36   23   24 1
    37   24   25 2
    38   24   26 1
    39   24   27 1
    40   27   28 1
    41   28   29 2
    42   28   30 1
    43   28   31 1
    44   31   33 1
    45   32   33 1
    46   32   34 1
    47   32   35 1
    48   32   36 1
    49   33   59 1
    50   33   60 1
    51   34   61 1
    52   34   62 1
    53   34   63 1
    54   35   64 1
    55   35   65 1
    56   35   66 1
    57   36   37 1
    58   36   38 1
    59   36   67 1
    60   37   68 1
    61   38   39 2
    62   38   40 am
    63   40   41 1
    64   40   69 1
    65   41   42 1
    66   41   70 1
    67   41   71 1
    68   42   43 1
    69   42   72 1
    70   42   73 1
    71   43   44 2
    72   43   45 am
    73   45   46 1
    74   45   74 1
    75   46   47 1
    76   46   75 1
    77   46   76 1
    78   47   48 1
    79   47   77 1
    80   47   78 1
    81   48   79 1
@<TRIPOS>SUBSTRUCTURE
     1 COA         1 GROUP 0 A     ****
@<TRIPOS>MOLECULE
[5-(6-aminopurin-9-yl)-2-[[[[3-hydroxy-2,2-dimethyl-4-oxo-4-[[3-oxo-3-(2-sulfanylethylamino)propyl]amino]butoxy]-oxido-phosphoryl]oxy-oxido-phosphoryl]oxymethyl]-4-oxido-tetrahydrofuran-3-yl] phosphate
   79    81     1     0     0
SMALL
USER_CHARGES

@<TRIPOS>ATOM
      1 N1A        -3.9039    2.4517    1.8283 N.ar      1 COA        -0.5260
      2 C2A        -3.3295    3.2614    0.9063 C.ar      1 COA         0.6629
      3 N3A        -2.9870    2.9823   -0.3704 N.ar      1 COA        -0.5260
      4 C4A        -3.2951    1.7119   -0.6714 C.ar      1 COA         0.5212
      5 C5A        -3.8810    0.7714    0.1608 C.ar      1 COA         0.0088
      6 C6A        -4.1878    1.1807    1.4546 C.ar      1 COA         0.5212
      7 N6A        -4.7836    0.2924    2.3662 N.pl3     1 COA        -0.6025
      8 N7A        -4.0438   -0.4230   -0.4949 N.2       1 COA        -0.4271
      9 C8A        -3.5659   -0.2124   -1.7036 C.ar      1 COA         0.5691
     10 N9A        -3.1003    1.0663   -1.8591 N.pl3     1 COA        -0.5033
     11 C1B        -2.4828    1.6438   -3.1175 C.3       1 COA         0.2693
     12 C2B        -3.1527    2.8675   -3.7856 C.3       1 COA         0.2008
     13 O2B        -4.0894    2.4850   -4.6336 O.co2     1 COA        -0.1615
     14 C3B        -1.9491    3.4718   -4.5260 C.3       1 COA         0.1111
     15 O3B        -1.5961    2.7353   -5.7012 O.3       1 COA         0.1618
     16 P3B        -0.6948    3.4882   -6.8546 P.3       1 COA        -1.1921
     17 O7A        -1.5419    4.6766   -7.3000 O.co2     1 COA         0.3195
     18 O8A        -0.5270    2.4117   -7.9228 O.co2     1 COA         0.3195
     19 O9A         0.6037    3.8701   -6.1501 O.co2     1 COA         0.3195
     20 C4B        -0.8155    3.2705   -3.5257 C.3       1 COA         0.1111
     21 O4B        -1.1344    2.0698   -2.7962 O.3       1 COA        -0.1436
     22 C5B        -0.6774    4.4099   -2.5246 C.3       1 COA         0.1504
     23 O5B         0.3986    4.1249   -1.6460 O.3       1 COA         0.1618
     24 P1A         0.7670    5.1936   -0.4641 P.3       1 COA        -1.1062
     25 O1A         1.1289    6.5260   -1.0837 O.co2     1 COA         0.3195
     26 O2A         1.6876    4.5161    0.5275 O.co2     1 COA         0.3195
     27 O3A        -0.6886    5.3125    0.2679 O.3       1 COA         0.4672
     28 P2A        -1.1429    6.2040    1.5594 P.3       1 COA        -1.1062
     29 O4A        -2.6377    6.0612    1.7476 O.co2     1 COA         0.3195
     30 O5A        -0.1888    5.9134    2.6974 O.co2     1 COA         0.3195
     31 O6A        -0.8065    7.6957    0.9792 O.3       1 COA         0.1618
     32 CBP        -1.0090    9.5771   -0.5793 C.3       1 COA         0.0000
     33 CCP        -1.4652    8.1470   -0.1994 C.3       1 COA         0.1504
     34 CDP         0.5182    9.5632   -0.8289 C.3       1 COA         0.1179
     35 CEP        -1.6888   10.0085   -1.8940 C.3       1 COA         0.1179
     36 CAP        -1.3149   10.5877    0.5658 C.3       1 COA         0.0611
     37 OAP        -0.3519   11.6382    0.5524 O.3       1 COA        -0.2728
     38 C9P        -2.6876   11.2507    0.4734 C.2       1 COA         0.3561
     39 O9P        -2.8806   12.2731   -0.1822 O.2       1 COA        -0.2391
     40 N8P        -3.6636   10.5632    1.1768 N.am      1 COA        -0.1909
     41 C7P        -5.0458   10.9816    1.2180 C.3       1 COA         0.1160
     42 C6P        -5.8119   10.3347    0.0732 C.3       1 COA         0.0286
     43 C5P        -7.2766   10.7336    0.0579 C.2       1 COA         0.3561
     44 O5P        -7.7751   11.4930    0.8842 O.2       1 COA        -0.2391
     45 N4P        -7.9575   10.1345   -0.9917 N.am      1 COA        -0.1909
     46 C3P        -9.3662   10.3429   -1.2357 C.3       1 COA         0.1160
     47 C2P       -10.2442    9.3341   -0.5134 C.3       1 COA         0.2607
     48 S1P        -9.8885    7.6234   -1.0180 S.3       1 COA        -0.3539
     49 H2A        -3.1164    4.2717    1.2395 H         1 COA        -0.1369
     50 H61A       -4.9530    0.5922    3.3076 H         1 COA         0.2048
     51 H62A       -4.9456   -0.6585    2.0932 H         1 COA         0.2048
     52 H8A        -3.5298   -0.9412   -2.5018 H         1 COA        -0.1292
     53 H1B        -2.3698    0.7525   -3.8030 H         1 COA        -0.0393
     54 H2B        -3.4073    3.5789   -2.9846 H         1 COA        -0.0393
     55 H3B        -2.0891    4.5191   -4.8158 H         1 COA        -0.0393
     56 H4B         0.1478    3.1100   -4.0235 H         1 COA        -0.0393
     57 H51A       -1.5937    4.5171   -1.9365 H         1 COA        -0.0393
     58 H52A       -0.4707    5.3519   -3.0411 H         1 COA        -0.0393
     59 H121       -1.2324    7.4355   -0.9984 H         1 COA        -0.0393
     60 H122       -2.5440    8.1138   -0.0133 H         1 COA        -0.0393
     61 H131        0.8796   10.5616   -1.1013 H         1 COA        -0.0393
     62 H132        0.7886    8.8842   -1.6454 H         1 COA        -0.0393
     63 H133        1.0681    9.2399    0.0618 H         1 COA        -0.0393
     64 H141       -1.3855   11.0192   -2.1904 H         1 COA        -0.0393
     65 H142       -2.7797   10.0132   -1.7903 H         1 COA        -0.0393
     66 H143       -1.4280    9.3402   -2.7211 H         1 COA        -0.0393
     67 H10        -1.2314   10.0854    1.5378 H         1 COA        -0.0393
     68 HO1        -0.4241   12.0681   -0.3139 H         1 COA         0.2010
     69 HN8        -3.4169    9.7096    1.6684 H         1 COA         0.0865
     70 H71        -5.4791   10.6972    2.1821 H         1 COA        -0.0393
     71 H72        -5.0936   12.0728    1.1469 H         1 COA        -0.0393
     72 H61        -5.7524    9.2419    0.1503 H         1 COA        -0.0393
     73 H62        -5.3658   10.6206   -0.8876 H         1 COA        -0.0393
     74 HN4        -7.4425    9.5215   -1.6169 H         1 COA         0.0865
     75 H31        -9.5918   11.3506   -0.8769 H         1 COA        -0.0393
     76 H32        -9.5206   10.3267   -2.3175 H         1 COA        -0.0393
     77 H21       -10.1177    9.4089    0.5715 H         1 COA        -0.0393
     78 H22       -11.2942    9.5365   -0.7468 H         1 COA        -0.0393
     79 HS1        -8.6050    7.6300   -0.6349 H         1 COA         0.1718
@<TRIPOS>BOND
     1    1    2 ar
     2    1    6 ar
     3    2    3 ar
     4    2   49 1
     5    3    4 ar
     6    4    5 ar
     7    4   10 ar
     8    5    6 ar
     9    5    8 ar
    10    6    7 1
    11    7   50 1
    12    7   51 1
    13    8    9 ar
    14    9   10 ar
    15    9   52 1
    16   10   11 1
    17   11   12 1
    18   11   21 1
    19   11   53 1
    20   12   13 1
    21   12   14 1
    22   12   54 1
    23   14   15 1
    24   14   20 1
    25   14   55 1
    26   15   16 1
    27   16   17 2
    28   16   18 1
    29   16   19 1
    30   20   21 1
    31   20   22 1
    32   20   56 1
    33   22   23 1
    34   22   57 1
    35   22   58 1
    36   23   24 1
    37   24   25 2
    38   24   26 1
    39   24   27 1
    40   27   28 1
    41   28   29 2
    42   28   30 1
    43   28   31 1
    44   31   33 1
    45   32   33 1
    46   32   34 1
    47   32   35 1
    48   32   36 1
    49   33   59 1
    50   33   60 1
    51   34   61 1
    52   34   62 1
    53   34   63 1
    54   35   64 1
    55   35   65 1
    56   35   66 1
    57   36   37 1
    58   36   38 1
    59   36   67 1
    60   37   68 1
    61   38   39 2
    62   38   40 am
    63   40   41 1
    64   40   69 1
    65   41   42 1
    66   41   70 1
    67   41   71 1
    68   42   43 1
    69   42   72 1
    70   42   73 1
    71   43   44 2
    72   43   45 am
    73   45   46 1
    74   45   74 1
    75   46   47 1
    76   46   75 1
    77   46   76 1
    78   47   48 1
    79   47   77 1
    80   47   78 1
    81   48   79 1
@<TRIPOS>SUBSTRUCTURE
     1 COA         1 GROUP 0 A     ****
@<TRIPOS>MOLECULE
[5-(6-aminopurin-9-yl)-2-[[[[3-hydroxy-2,2-dimethyl-4-oxo-4-[[3-oxo-3-(2-sulfanylethylamino)propyl]amino]butoxy]-oxido-phosphoryl]oxy-oxido-phosphoryl]oxymethyl]-4-oxido-tetrahydrofuran-3-yl] phosphate
   79    81     1     0     0
SMALL
USER_CHARGES

@<TRIPOS>ATOM
      1 N1A         6.1093    3.4221   -2.1706 N.ar      1 COA        -0.5260
      2 C2A         4.9028    3.1932   -1.5982 C.ar      1 COA         0.6629
      3 N3A         3.8250    2.5648   -2.1163 N.ar      1 COA        -0.5260
      4 C4A         4.0802    2.1492   -3.3659 C.ar      1 COA         0.5212
      5 C5A         5.2577    2.3095   -4.0788 C.ar      1 COA         0.0088
      6 C6A         6.2970    2.9741   -3.4353 C.ar      1 COA         0.5212
      7 N6A         7.5267    3.1813   -4.0834 N.pl3     1 COA        -0.6025
      8 N7A         5.1483    1.7539   -5.3288 N.2       1 COA        -0.4271
      9 C8A         3.9267    1.2647   -5.3749 C.ar      1 COA         0.5691
     10 N9A         3.2402    1.4796   -4.2093 N.pl3     1 COA        -0.5033
     11 C1B         1.8139    1.0528   -3.9225 C.3       1 COA         0.2693
     12 C2B         1.5441    0.0924   -2.7404 C.3       1 COA         0.2008
     13 O2B         1.6560   -1.1661   -3.1231 O.co2     1 COA        -0.1615
     14 C3B         0.0825    0.4469   -2.4241 C.3       1 COA         0.1111
     15 O3B        -0.8371   -0.0985   -3.3754 O.3       1 COA         0.1618
     16 P3B        -2.4169   -0.2494   -2.9382 P.3       1 COA        -1.1921
     17 O7A        -2.4022   -1.1842   -1.7323 O.co2     1 COA         0.3195
     18 O8A        -3.0660   -0.8511   -4.1810 O.co2     1 COA         0.3195
     19 O9A        -2.8748    1.1724   -2.6264 O.co2     1 COA         0.3195
     20 C4B         0.0646    1.9600   -2.6151 C.3       1 COA         0.1111
     21 O4B         1.0421    2.2460   -3.6341 O.3       1 COA        -0.1436
     22 C5B         0.4465    2.7364   -1.3618 C.3       1 COA         0.1504
     23 O5B         0.3986    4.1249   -1.6460 O.3       1 COA         0.1618
     24 P1A         0.7670    5.1936   -0.4641 P.3       1 COA        -1.1062
     25 O1A         1.1289    6.5260   -1.0837 O.co2     1 COA         0.3195
     26 O2A         1.6876    4.5161    0.5275 O.co2     1 COA         0.3195
     27 O3A        -0.6886    5.3125    0.2679 O.3       1 COA         0.4672
     28 P2A        -1.1429    6.2040    1.5594 P.3       1 COA        -1.1062
     29 O4A        -2.6377    6.0612    1.7476 O.co2     1 COA         0.3195
     30 O5A        -0.1888    5.9134    2.6974 O.co2     1 COA         0.3195
     31 O6A        -0.8065    7.6957    0.9792 O.3       1 COA         0.1618
     32 CBP        -1.0090    9.5771   -0.5793 C.3       1 COA         0.0000
     33 CCP        -1.4652    8.1470   -0.1994 C.3       1 COA         0.1504
     34 CDP         0.5182    9.5632   -0.8289 C.3       1 COA         0.1179
     35 CEP        -1.6888   10.0085   -1.8940 C.3       1 COA         0.1179
     36 CAP        -1.3149   10.5877    0.5658 C.3       1 COA         0.0611
     37 OAP        -0.8841   11.8921    0.1862 O.3       1 COA        -0.2728
     38 C9P        -2.7940   10.7032    0.9282 C.2       1 COA         0.3561
     39 O9P        -3.6519   11.0028    0.0998 O.2       1 COA        -0.2391
     40 N8P        -3.0442   10.4114    2.2595 N.am      1 COA        -0.1909
     41 C7P        -4.3702   10.4275    2.8329 C.3       1 COA         0.1160
     42 C6P        -5.0021    9.0493    2.7028 C.3       1 COA         0.0286
     43 C5P        -4.2003    7.9748    3.4150 C.2       1 COA         0.3561
     44 O5P        -3.1585    8.2054    4.0230 O.2       1 COA        -0.2391
     45 N4P        -4.7917    6.7268    3.2853 N.am      1 COA        -0.1909
     46 C3P        -4.2328    5.5278    3.8664 C.3       1 COA         0.1160
     47 C2P        -4.5592    4.2781    3.0652 C.3       1 COA         0.2607
     48 S1P        -6.3502    3.9916    2.9325 S.3       1 COA        -0.3539
     49 H2A         4.7878    3.5651   -0.5856 H         1 COA        -0.1369
     50 H61A        8.2460    3.7037   -3.6204 H         1 COA         0.2048
     51 H62A        7.6376    2.8871   -5.0353 H         1 COA         0.2048
     52 H8A         3.4866    0.7495   -6.2177 H         1 COA        -0.1292
     53 H1B         1.4348    0.6728   -4.9170 H         1 COA        -0.0393
     54 H2B         2.1376    0.4515   -1.8851 H         1 COA        -0.0393
     55 H3B        -0.2421    0.1333   -1.4258 H         1 COA        -0.0393
     56 H4B        -0.9063    2.3168   -2.9777 H         1 COA        -0.0393
     57 H51A        1.4605    2.4765   -1.0434 H         1 COA        -0.0393
     58 H52A       -0.2515    2.5189   -0.5478 H         1 COA        -0.0393
     59 H121       -1.2324    7.4355   -0.9984 H         1 COA        -0.0393
     60 H122       -2.5440    8.1138   -0.0133 H         1 COA        -0.0393
     61 H131        0.8796   10.5616   -1.1013 H         1 COA        -0.0393
     62 H132        0.7886    8.8842   -1.6454 H         1 COA        -0.0393
     63 H133        1.0681    9.2399    0.0618 H         1 COA        -0.0393
     64 H141       -1.3855   11.0192   -2.1904 H         1 COA        -0.0393
     65 H142       -2.7797   10.0132   -1.7903 H         1 COA        -0.0393
     66 H143       -1.4280    9.3402   -2.7211 H         1 COA        -0.0393
     67 H10        -0.7524   10.3112    1.4665 H         1 COA        -0.0393
     68 HO1        -1.3767   12.1229   -0.6167 H         1 COA         0.2010
     69 HN8        -2.2741   10.1459    2.8657 H         1 COA         0.0865
     70 H71        -4.3037   10.7243    3.8844 H         1 COA        -0.0393
     71 H72        -4.9756   11.1803    2.3180 H         1 COA        -0.0393
     72 H61        -5.0872    8.7723    1.6447 H         1 COA        -0.0393
     73 H62        -6.0161    9.0588    3.1221 H         1 COA        -0.0393
     74 HN4        -5.6566    6.6524    2.7579 H         1 COA         0.0865
     75 H31        -3.1502    5.6770    3.8908 H         1 COA        -0.0393
     76 H32        -4.5885    5.4632    4.8978 H         1 COA        -0.0393
     77 H21        -4.1421    4.3392    2.0548 H         1 COA        -0.0393
     78 H22        -4.1203    3.4064    3.5607 H         1 COA        -0.0393
     79 HS1        -6.5724    3.8909    4.2496 H         1 COA         0.1718
@<TRIPOS>BOND
     1    1    2 ar
     2    1    6 ar
     3    2    3 ar
     4    2   49 1
     5    3    4 ar
     6    4    5 ar
     7    4   10 ar
     8    5    6 ar
     9    5    8 ar
    10    6    7 1
    11    7   50 1
    12    7   51 1
    13    8    9 ar
    14    9   10 ar
    15    9   52 1
    16   10   11 1
    17   11   12 1
    18   11   21 1
    19   11   53 1
    20   12   13 1
    21   12   14 1
    22   12   54 1
    23   14   15 1
    24   14   20 1
    25   14   55 1
    26   15   16 1
    27   16   17 2
    28   16   18 1
    29   16   19 1
    30   20   21 1
    31   20   22 1
    32   20   56 1
    33   22   23 1
    34   22   57 1
    35   22   58 1
    36   23   24 1
    37   24   25 2
    38   24   26 1
    39   24   27 1
    40   27   28 1
    41   28   29 2
    42   28   30 1
    43   28   31 1
    44   31   33 1
    45   32   33 1
    46   32   34 1
    47   32   35 1
    48   32   36 1
    49   33   59 1
    50   33   60 1
    51   34   61 1
    52   34   62 1
    53   34   63 1
    54   35   64 1
    55   35   65 1
    56   35   66 1
    57   36   37 1
    58   36   38 1
    59   36   67 1
    60   37   68 1
    61   38   39 2
    62   38   40 am
    63   40   41 1
    64   40   69 1
    65   41   42 1
    66   41   70 1
    67   41   71 1
    68   42   43 1
    69   42   72 1
    70   42   73 1
    71   43   44 2
    72   43   45 am
    73   45   46 1
    74   45   74 1
    75   46   47 1
    76   46   75 1
    77   46   76 1
    78   47   48 1
    79   47   77 1
    80   47   78 1
    81   48   79 1
@<TRIPOS>SUBSTRUCTURE
     1 COA         1 GROUP 0 A     ****
@<TRIPOS>MOLECULE
[5-(6-aminopurin-9-yl)-2-[[[[3-hydroxy-2,2-dimethyl-4-oxo-4-[[3-oxo-3-(2-sulfanylethylamino)propyl]amino]butoxy]-oxido-phosphoryl]oxy-oxido-phosphoryl]oxymethyl]-4-oxido-tetrahydrofuran-3-yl] phosphate
   79    81     1     0     0
SMALL
USER_CHARGES

@<TRIPOS>ATOM
      1 N1A        -3.9039    2.4517    1.8283 N.ar      1 COA        -0.5260
      2 C2A        -3.3295    3.2614    0.9063 C.ar      1 COA         0.6629
      3 N3A        -2.9870    2.9823   -0.3704 N.ar      1 COA        -0.5260
      4 C4A        -3.2951    1.7119   -0.6714 C.ar      1 COA         0.5212
      5 C5A        -3.8810    0.7714    0.1608 C.ar      1 COA         0.0088
      6 C6A        -4.1878    1.1807    1.4546 C.ar      1 COA         0.5212
      7 N6A        -4.7836    0.2924    2.3662 N.pl3     1 COA        -0.6025
      8 N7A        -4.0438   -0.4230   -0.4949 N.2       1 COA        -0.4271
      9 C8A        -3.5659   -0.2124   -1.7036 C.ar      1 COA         0.5691
     10 N9A        -3.1003    1.0663   -1.8591 N.pl3     1 COA        -0.5033
     11 C1B        -2.4828    1.6438   -3.1175 C.3       1 COA         0.2693
     12 C2B        -3.1527    2.8675   -3.7856 C.3       1 COA         0.2008
     13 O2B        -4.0894    2.4850   -4.6336 O.co2     1 COA        -0.1615
     14 C3B        -1.9491    3.4718   -4.5260 C.3       1 COA         0.1111
     15 O3B        -1.5961    2.7353   -5.7012 O.3       1 COA         0.1618
     16 P3B        -0.6948    3.4882   -6.8546 P.3       1 COA        -1.1921
     17 O7A        -1.5419    4.6766   -7.3000 O.co2     1 COA         0.3195
     18 O8A        -0.5270    2.4117   -7.9228 O.co2     1 COA         0.3195
     19 O9A         0.6037    3.8701   -6.1501 O.co2     1 COA         0.3195
     20 C4B        -0.8155    3.2705   -3.5257 C.3       1 COA         0.1111
     21 O4B        -1.1344    2.0698   -2.7962 O.3       1 COA        -0.1436
     22 C5B        -0.6774    4.4099   -2.5246 C.3       1 COA         0.1504
     23 O5B         0.3986    4.1249   -1.6460 O.3       1 COA         0.1618
     24 P1A         0.7670    5.1936   -0.4641 P.3       1 COA        -1.1062
     25 O1A         1.1289    6.5260   -1.0837 O.co2     1 COA         0.3195
     26 O2A         1.6876    4.5161    0.5275 O.co2     1 COA         0.3195
     27 O3A        -0.6886    5.3125    0.2679 O.3       1 COA         0.4672
     28 P2A        -1.1429    6.2040    1.5594 P.3       1 COA        -1.1062
     29 O4A        -2.6377    6.0612    1.7476 O.co2     1 COA         0.3195
     30 O5A        -0.1888    5.9134    2.6974 O.co2     1 COA         0.3195
     31 O6A        -0.8065    7.6957    0.9792 O.3       1 COA         0.1618
     32 CBP        -1.0090    9.5771   -0.5793 C.3       1 COA         0.0000
     33 CCP        -1.4652    8.1470   -0.1994 C.3       1 COA         0.1504
     34 CDP         0.5182    9.5632   -0.8289 C.3       1 COA         0.1179
     35 CEP        -1.6888   10.0085   -1.8940 C.3       1 COA         0.1179
     36 CAP        -1.3149   10.5877    0.5658 C.3       1 COA         0.0611
     37 OAP        -0.8841   11.8921    0.1862 O.3       1 COA        -0.2728
     38 C9P        -2.7940   10.7032    0.9282 C.2       1 COA         0.3561
     39 O9P        -3.6570   10.0067    0.3969 O.2       1 COA        -0.2391
     40 N8P        -3.0315   11.6427    1.9186 N.am      1 COA        -0.1909
     41 C7P        -4.3486   11.9130    2.4473 C.3       1 COA         0.1160
     42 C6P        -4.6208   11.0029    3.6363 C.3       1 COA         0.0286
     43 C5P        -5.9933   11.2358    4.2418 C.2       1 COA         0.3561
     44 O5P        -6.7851   12.0700    3.8115 O.2       1 COA        -0.2391
     45 N4P        -6.2226   10.3978    5.3232 N.am      1 COA        -0.1909
     46 C3P        -7.4511   10.4140    6.0835 C.3       1 COA         0.1160
     47 C2P        -7.4061   11.3823    7.2542 C.3       1 COA         0.2607
     48 S1P        -6.0830   10.9772    8.4344 S.3       1 COA        -0.3539
     49 H2A        -3.1164    4.2717    1.2395 H         1 COA        -0.1369
     50 H61A       -4.9530    0.5922    3.3076 H         1 COA         0.2048
     51 H62A       -4.9456   -0.6585    2.0932 H         1 COA         0.2048
     52 H8A        -3.5298   -0.9412   -2.5018 H         1 COA        -0.1292
     53 H1B        -2.3698    0.7525   -3.8030 H         1 COA        -0.0393
     54 H2B        -3.4073    3.5789   -2.9846 H         1 COA        -0.0393
     55 H3B        -2.0891    4.5191   -4.8158 H         1 COA        -0.0393
     56 H4B         0.1478    3.1100   -4.0235 H         1 COA        -0.0393
     57 H51A       -1.5937    4.5171   -1.9365 H         1 COA        -0.0393
     58 H52A       -0.4707    5.3519   -3.0411 H         1 COA        -0.0393
     59 H121       -1.2324    7.4355   -0.9984 H         1 COA        -0.0393
     60 H122       -2.5440    8.1138   -0.0133 H         1 COA        -0.0393
     61 H131        0.8796   10.5616   -1.1013 H         1 COA        -0.0393
     62 H132        0.7886    8.8842   -1.6454 H         1 COA        -0.0393
     63 H133        1.0681    9.2399    0.0618 H         1 COA        -0.0393
     64 H141       -1.3855   11.0192   -2.1904 H         1 COA        -0.0393
     65 H142       -2.7797   10.0132   -1.7903 H         1 COA        -0.0393
     66 H143       -1.4280    9.3402   -2.7211 H         1 COA        -0.0393
     67 H10        -0.7524   10.3112    1.4665 H         1 COA        -0.0393
     68 HO1        -1.3767   12.1229   -0.6167 H         1 COA         0.2010
     69 HN8        -2.2509   12.1532    2.3202 H         1 COA         0.0865
     70 H71        -4.4081   12.9648    2.7445 H         1 COA        -0.0393
     71 H72        -5.0921   11.7528    1.6601 H         1 COA        -0.0393
     72 H61        -3.8669   11.1668    4.4163 H         1 COA        -0.0393
     73 H62        -4.5522    9.9517    3.3294 H         1 COA        -0.0393
     74 HN4        -5.4940    9.7434    5.5927 H         1 COA         0.0865
     75 H31        -8.2371   10.7158    5.3863 H         1 COA        -0.0393
     76 H32        -7.6568    9.3888    6.4017 H         1 COA        -0.0393
     77 H21        -7.2589   12.4105    6.9080 H         1 COA        -0.0393
     78 H22        -8.3566   11.3397    7.7951 H         1 COA        -0.0393
     79 HS1        -5.0751   11.1016    7.5608 H         1 COA         0.1718
@<TRIPOS>BOND
     1    1    2 ar
     2    1    6 ar
     3    2    3 ar
     4    2   49 1
     5    3    4 ar
     6    4    5 ar
     7    4   10 ar
     8    5    6 ar
     9    5    8 ar
    10    6    7 1
    11    7   50 1
    12    7   51 1
    13    8    9 ar
    14    9   10 ar
    15    9   52 1
    16   10   11 1
    17   11   12 1
    18   11   21 1
    19   11   53 1
    20   12   13 1
    21   12   14 1
    22   12   54 1
    23   14   15 1
    24   14   20 1
    25   14   55 1
    26   15   16 1
    27   16   17 2
    28   16   18 1
    29   16   19 1
    30   20   21 1
    31   20   22 1
    32   20   56 1
    33   22   23 1
    34   22   57 1
    35   22   58 1
    36   23   24 1
    37   24   25 2
    38   24   26 1
    39   24   27 1
    40   27   28 1
    41   28   29 2
    42   28   30 1
    43   28   31 1
    44   31   33 1
    45   32   33 1
    46   32   34 1
    47   32   35 1
    48   32   36 1
    49   33   59 1
    50   33   60 1
    51   34   61 1
    52   34   62 1
    53   34   63 1
    54   35   64 1
    55   35   65 1
    56   35   66 1
    57   36   37 1
    58   36   38 1
    59   36   67 1
    60   37   68 1
    61   38   39 2
    62   38   40 am
    63   40   41 1
    64   40   69 1
    65   41   42 1
    66   41   70 1
    67   41   71 1
    68   42   43 1
    69   42   72 1
    70   42   73 1
    71   43   44 2
    72   43   45 am
    73   45   46 1
    74   45   74 1
    75   46   47 1
    76   46   75 1
    77   46   76 1
    78   47   48 1
    79   47   77 1
    80   47   78 1
    81   48   79 1
@<TRIPOS>SUBSTRUCTURE
     1 COA         1 GROUP 0 A     ****
@<TRIPOS>MOLECULE
[5-(6-aminopurin-9-yl)-2-[[[[3-hydroxy-2,2-dimethyl-4-oxo-4-[[3-oxo-3-(2-sulfanylethylamino)propyl]amino]butoxy]-oxido-phosphoryl]oxy-oxido-phosphoryl]oxymethyl]-4-oxido-tetrahydrofuran-3-yl] phosphate
   79    81     1     0     0
SMALL
USER_CHARGES

@<TRIPOS>ATOM
      1 N1A        -3.9039    2.4517    1.8283 N.ar      1 COA        -0.5260
      2 C2A        -3.3295    3.2614    0.9063 C.ar      1 COA         0.6629
      3 N3A        -2.9870    2.9823   -0.3704 N.ar      1 COA        -0.5260
      4 C4A        -3.2951    1.7119   -0.6714 C.ar      1 COA         0.5212
      5 C5A        -3.8810    0.7714    0.1608 C.ar      1 COA         0.0088
      6 C6A        -4.1878    1.1807    1.4546 C.ar      1 COA         0.5212
      7 N6A        -4.7836    0.2924    2.3662 N.pl3     1 COA        -0.6025
      8 N7A        -4.0438   -0.4230   -0.4949 N.2       1 COA        -0.4271
      9 C8A        -3.5659   -0.2124   -1.7036 C.ar      1 COA         0.5691
     10 N9A        -3.1003    1.0663   -1.8591 N.pl3     1 COA        -0.5033
     11 C1B        -2.4828    1.6438   -3.1175 C.3       1 COA         0.2693
     12 C2B        -3.1527    2.8675   -3.7856 C.3       1 COA         0.2008
     13 O2B        -4.0894    2.4850   -4.6336 O.co2     1 COA        -0.1615
     14 C3B        -1.9491    3.4718   -4.5260 C.3       1 COA         0.1111
     15 O3B        -1.5961    2.7353   -5.7012 O.3       1 COA         0.1618
     16 P3B        -0.6948    3.4882   -6.8546 P.3       1 COA        -1.1921
     17 O7A        -1.5419    4.6766   -7.3000 O.co2     1 COA         0.3195
     18 O8A        -0.5270    2.4117   -7.9228 O.co2     1 COA         0.3195
     19 O9A         0.6037    3.8701   -6.1501 O.co2     1 COA         0.3195
     20 C4B        -0.8155    3.2705   -3.5257 C.3       1 COA         0.1111
     21 O4B        -1.1344    2.0698   -2.7962 O.3       1 COA        -0.1436
     22 C5B        -0.6774    4.4099   -2.5246 C.3       1 COA         0.1504
     23 O5B         0.3986    4.1249   -1.6460 O.3       1 COA         0.1618
     24 P1A         0.7670    5.1936   -0.4641 P.3       1 COA        -1.1062
     25 O1A         1.1289    6.5260   -1.0837 O.co2     1 COA         0.3195
     26 O2A         1.6876    4.5161    0.5275 O.co2     1 COA         0.3195
     27 O3A        -0.6886    5.3125    0.2679 O.3       1 COA         0.4672
     28 P2A        -1.1429    6.2040    1.5594 P.3       1 COA        -1.1062
     29 O4A        -2.6377    6.0612    1.7476 O.co2     1 COA         0.3195
     30 O5A        -0.1888    5.9134    2.6974 O.co2     1 COA         0.3195
     31 O6A        -0.8065    7.6957    0.9792 O.3       1 COA         0.1618
     32 CBP        -1.0090    9.5771   -0.5793 C.3       1 COA         0.0000
     33 CCP        -1.4652    8.1470   -0.1994 C.3       1 COA         0.1504
     34 CDP         0.5182    9.5632   -0.8289 C.3       1 COA         0.1179
     35 CEP        -1.6888   10.0085   -1.8940 C.3       1 COA         0.1179
     36 CAP        -1.3149   10.5877    0.5658 C.3       1 COA         0.0611
     37 OAP        -0.8841   11.8921    0.1862 O.3       1 COA        -0.2728
     38 C9P        -2.7940   10.7032    0.9282 C.2       1 COA         0.3561
     39 O9P        -3.6570   10.0067    0.3969 O.2       1 COA        -0.2391
     40 N8P        -3.0315   11.6427    1.9186 N.am      1 COA        -0.1909
     41 C7P        -4.3486   11.9130    2.4473 C.3       1 COA         0.1160
     42 C6P        -5.0118   13.0149    1.6339 C.3       1 COA         0.0286
     43 C5P        -6.4041   13.3494    2.1383 C.2       1 COA         0.3561
     44 O5P        -6.9257   12.7846    3.0959 O.2       1 COA        -0.2391
     45 N4P        -6.9917   14.3550    1.3849 N.am      1 COA        -0.1909
     46 C3P        -8.3180   14.8631    1.6502 C.3       1 COA         0.1160
     47 C2P        -9.3996   14.1074    0.8956 C.3       1 COA         0.2607
     48 S1P        -9.1728   14.1945   -0.9068 S.3       1 COA        -0.3539
     49 H2A        -3.1164    4.2717    1.2395 H         1 COA        -0.1369
     50 H61A       -4.9530    0.5922    3.3076 H         1 COA         0.2048
     51 H62A       -4.9456   -0.6585    2.0932 H         1 COA         0.2048
     52 H8A        -3.5298   -0.9412   -2.5018 H         1 COA        -0.1292
     53 H1B        -2.3698    0.7525   -3.8030 H         1 COA        -0.0393
     54 H2B        -3.4073    3.5789   -2.9846 H         1 COA        -0.0393
     55 H3B        -2.0891    4.5191   -4.8158 H         1 COA        -0.0393
     56 H4B         0.1478    3.1100   -4.0235 H         1 COA        -0.0393
     57 H51A       -1.5937    4.5171   -1.9365 H         1 COA        -0.0393
     58 H52A       -0.4707    5.3519   -3.0411 H         1 COA        -0.0393
     59 H121       -1.2324    7.4355   -0.9984 H         1 COA        -0.0393
     60 H122       -2.5440    8.1138   -0.0133 H         1 COA        -0.0393
     61 H131        0.8796   10.5616   -1.1013 H         1 COA        -0.0393
     62 H132        0.7886    8.8842   -1.6454 H         1 COA        -0.0393
     63 H133        1.0681    9.2399    0.0618 H         1 COA        -0.0393
     64 H141       -1.3855   11.0192   -2.1904 H         1 COA        -0.0393
     65 H142       -2.7797   10.0132   -1.7903 H         1 COA        -0.0393
     66 H143       -1.4280    9.3402   -2.7211 H         1 COA        -0.0393
     67 H10        -0.7524   10.3112    1.4665 H         1 COA        -0.0393
     68 HO1        -1.3767   12.1229   -0.6167 H         1 COA         0.2010
     69 HN8        -2.2509   12.1532    2.3202 H         1 COA         0.0865
     70 H71        -4.9450   10.9957    2.4135 H         1 COA        -0.0393
     71 H72        -4.2610   12.2077    3.4979 H         1 COA        -0.0393
     72 H61        -5.0890   12.7122    0.5822 H         1 COA        -0.0393
     73 H62        -4.4031   13.9272    1.6689 H         1 COA        -0.0393
     74 HN4        -6.4659   14.7521    0.6118 H         1 COA         0.0865
     75 H31        -8.4761   14.7550    2.7264 H         1 COA        -0.0393
     76 H32        -8.3168   15.9302    1.4141 H         1 COA        -0.0393
     77 H21        -9.4218   13.0536    1.1917 H         1 COA        -0.0393
     78 H22       -10.3753   14.5453    1.1280 H         1 COA        -0.0393
     79 HS1        -7.9650   13.6155   -0.9226 H         1 COA         0.1718
@<TRIPOS>BOND
     1    1    2 ar
     2    1    6 ar
     3    2    3 ar
     4    2   49 1
     5    3    4 ar
     6    4    5 ar
     7    4   10 ar
     8    5    6 ar
     9    5    8 ar
    10    6    7 1
    11    7   50 1
    12    7   51 1
    13    8    9 ar
    14    9   10 ar
    15    9   52 1
    16   10   11 1
    17   11   12 1
    18   11   21 1
    19   11   53 1
    20   12   13 1
    21   12   14 1
    22   12   54 1
    23   14   15 1
    24   14   20 1
    25   14   55 1
    26   15   16 1
    27   16   17 2
    28   16   18 1
    29   16   19 1
    30   20   21 1
    31   20   22 1
    32   20   56 1
    33   22   23 1
    34   22   57 1
    35   22   58 1
    36   23   24 1
    37   24   25 2
    38   24   26 1
    39   24   27 1
    40   27   28 1
    41   28   29 2
    42   28   30 1
    43   28   31 1
    44   31   33 1
    45   32   33 1
    46   32   34 1
    47   32   35 1
    48   32   36 1
    49   33   59 1
    50   33   60 1
    51   34   61 1
    52   34   62 1
    53   34   63 1
    54   35   64 1
    55   35   65 1
    56   35   66 1
    57   36   37 1
    58   36   38 1
    59   36   67 1
    60   37   68 1
    61   38   39 2
    62   38   40 am
    63   40   41 1
    64   40   69 1
    65   41   42 1
    66   41   70 1
    67   41   71 1
    68   42   43 1
    69   42   72 1
    70   42   73 1
    71   43   44 2
    72   43   45 am
    73   45   46 1
    74   45   74 1
    75   46   47 1
    76   46   75 1
    77   46   76 1
    78   47   48 1
    79   47   77 1
    80   47   78 1
    81   48   79 1
@<TRIPOS>SUBSTRUCTURE
     1 COA         1 GROUP 0 A     ****
@<TRIPOS>MOLECULE
[5-(6-aminopurin-9-yl)-2-[[[[3-hydroxy-2,2-dimethyl-4-oxo-4-[[3-oxo-3-(2-sulfanylethylamino)propyl]amino]butoxy]-oxido-phosphoryl]oxy-oxido-phosphoryl]oxymethyl]-4-oxido-tetrahydrofuran-3-yl] phosphate
   79    81     1     0     0
SMALL
USER_CHARGES

@<TRIPOS>ATOM
      1 N1A        -3.9039    2.4517    1.8283 N.ar      1 COA        -0.5260
      2 C2A        -3.3295    3.2614    0.9063 C.ar      1 COA         0.6629
      3 N3A        -2.9870    2.9823   -0.3704 N.ar      1 COA        -0.5260
      4 C4A        -3.2951    1.7119   -0.6714 C.ar      1 COA         0.5212
      5 C5A        -3.8810    0.7714    0.1608 C.ar      1 COA         0.0088
      6 C6A        -4.1878    1.1807    1.4546 C.ar      1 COA         0.5212
      7 N6A        -4.7836    0.2924    2.3662 N.pl3     1 COA        -0.6025
      8 N7A        -4.0438   -0.4230   -0.4949 N.2       1 COA        -0.4271
      9 C8A        -3.5659   -0.2124   -1.7036 C.ar      1 COA         0.5691
     10 N9A        -3.1003    1.0663   -1.8591 N.pl3     1 COA        -0.5033
     11 C1B        -2.4828    1.6438   -3.1175 C.3       1 COA         0.2693
     12 C2B        -3.1527    2.8675   -3.7856 C.3       1 COA         0.2008
     13 O2B        -4.0894    2.4850   -4.6336 O.co2     1 COA        -0.1615
     14 C3B        -1.9491    3.4718   -4.5260 C.3       1 COA         0.1111
     15 O3B        -1.5961    2.7353   -5.7012 O.3       1 COA         0.1618
     16 P3B        -0.6948    3.4882   -6.8546 P.3       1 COA        -1.1921
     17 O7A        -1.5419    4.6766   -7.3000 O.co2     1 COA         0.3195
     18 O8A        -0.5270    2.4117   -7.9228 O.co2     1 COA         0.3195
     19 O9A         0.6037    3.8701   -6.1501 O.co2     1 COA         0.3195
     20 C4B        -0.8155    3.2705   -3.5257 C.3       1 COA         0.1111
     21 O4B        -1.1344    2.0698   -2.7962 O.3       1 COA        -0.1436
     22 C5B        -0.6774    4.4099   -2.5246 C.3       1 COA         0.1504
     23 O5B         0.3986    4.1249   -1.6460 O.3       1 COA         0.1618
     24 P1A         0.7670    5.1936   -0.4641 P.3       1 COA        -1.1062
     25 O1A         1.1289    6.5260   -1.0837 O.co2     1 COA         0.3195
     26 O2A         1.6876    4.5161    0.5275 O.co2     1 COA         0.3195
     27 O3A        -0.6886    5.3125    0.2679 O.3       1 COA         0.4672
     28 P2A        -1.1429    6.2040    1.5594 P.3       1 COA        -1.1062
     29 O4A        -2.6377    6.0612    1.7476 O.co2     1 COA         0.3195
     30 O5A        -0.1888    5.9134    2.6974 O.co2     1 COA         0.3195
     31 O6A        -0.8065    7.6957    0.9792 O.3       1 COA         0.1618
     32 CBP        -1.0090    9.5771   -0.5793 C.3       1 COA         0.0000
     33 CCP        -1.4652    8.1470   -0.1994 C.3       1 COA         0.1504
     34 CDP         0.5182    9.5632   -0.8289 C.3       1 COA         0.1179
     35 CEP        -1.6888   10.0085   -1.8940 C.3       1 COA         0.1179
     36 CAP        -1.3149   10.5877    0.5658 C.3       1 COA         0.0611
     37 OAP        -2.7163   10.6149    0.8239 O.3       1 COA        -0.2728
     38 C9P        -0.6314   10.2649    1.8928 C.2       1 COA         0.3561
     39 O9P        -1.1331    9.5097    2.7236 O.2       1 COA        -0.2391
     40 N8P         0.5984   10.8887    2.0282 N.am      1 COA        -0.1909
     41 C7P         1.4450   10.7163    3.1861 C.3       1 COA         0.1160
     42 C6P         1.1093   11.7726    4.2289 C.3       1 COA         0.0286
     43 C5P         1.3130   13.1846    3.7096 C.2       1 COA         0.3561
     44 O5P         1.7071   13.4325    2.5733 O.2       1 COA        -0.2391
     45 N4P         1.0022   14.1324    4.6736 N.am      1 COA        -0.1909
     46 C3P         1.1103   15.5543    4.4415 C.3       1 COA         0.1160
     47 C2P         2.4800   16.1068    4.8007 C.3       1 COA         0.2607
     48 S1P         2.8920   15.8448    6.5527 S.3       1 COA        -0.3539
     49 H2A        -3.1164    4.2717    1.2395 H         1 COA        -0.1369
     50 H61A       -4.9530    0.5922    3.3076 H         1 COA         0.2048
     51 H62A       -4.9456   -0.6585    2.0932 H         1 COA         0.2048
     52 H8A        -3.5298   -0.9412   -2.5018 H         1 COA        -0.1292
     53 H1B        -2.3698    0.7525   -3.8030 H         1 COA        -0.0393
     54 H2B        -3.4073    3.5789   -2.9846 H         1 COA        -0.0393
     55 H3B        -2.0891    4.5191   -4.8158 H         1 COA        -0.0393
     56 H4B         0.1478    3.1100   -4.0235 H         1 COA        -0.0393
     57 H51A       -1.5937    4.5171   -1.9365 H         1 COA        -0.0393
     58 H52A       -0.4707    5.3519   -3.0411 H         1 COA        -0.0393
     59 H121       -1.2324    7.4355   -0.9984 H         1 COA        -0.0393
     60 H122       -2.5440    8.1138   -0.0133 H         1 COA        -0.0393
     61 H131        0.8796   10.5616   -1.1013 H         1 COA        -0.0393
     62 H132        0.7886    8.8842   -1.6454 H         1 COA        -0.0393
     63 H133        1.0681    9.2399    0.0618 H         1 COA        -0.0393
     64 H141       -1.3855   11.0192   -2.1904 H         1 COA        -0.0393
     65 H142       -2.7797   10.0132   -1.7903 H         1 COA        -0.0393
     66 H143       -1.4280    9.3402   -2.7211 H         1 COA        -0.0393
     67 H10        -1.0237   11.5996    0.2569 H         1 COA        -0.0393
     68 HO1        -2.9668    9.7148    1.0837 H         1 COA         0.2010
     69 HN8         0.9463   11.4752    1.2758 H         1 COA         0.0865
     70 H71         1.2973    9.7110    3.5932 H         1 COA        -0.0393
     71 H72         2.4931   10.7948    2.8803 H         1 COA        -0.0393
     72 H61         1.7381   11.6375    5.1178 H         1 COA        -0.0393
     73 H62         0.0644   11.6688    4.5472 H         1 COA        -0.0393
     74 HN4         0.6841   13.8123    5.5836 H         1 COA         0.0865
     75 H31         0.9211   15.7044    3.3754 H         1 COA        -0.0393
     76 H32         0.3074   16.0426    4.9994 H         1 COA        -0.0393
     77 H21         3.2621   15.6467    4.1881 H         1 COA        -0.0393
     78 H22         2.4946   17.1853    4.6150 H         1 COA        -0.0393
     79 HS1         2.8156   14.5079    6.5145 H         1 COA         0.1718
@<TRIPOS>BOND
     1    1    2 ar
     2    1    6 ar
     3    2    3 ar
     4    2   49 1
     5    3    4 ar
     6    4    5 ar
     7    4   10 ar
     8    5    6 ar
     9    5    8 ar
    10    6    7 1
    11    7   50 1
    12    7   51 1
    13    8    9 ar
    14    9   10 ar
    15    9   52 1
    16   10   11 1
    17   11   12 1
    18   11   21 1
    19   11   53 1
    20   12   13 1
    21   12   14 1
    22   12   54 1
    23   14   15 1
    24   14   20 1
    25   14   55 1
    26   15   16 1
    27   16   17 2
    28   16   18 1
    29   16   19 1
    30   20   21 1
    31   20   22 1
    32   20   56 1
    33   22   23 1
    34   22   57 1
    35   22   58 1
    36   23   24 1
    37   24   25 2
    38   24   26 1
    39   24   27 1
    40   27   28 1
    41   28   29 2
    42   28   30 1
    43   28   31 1
    44   31   33 1
    45   32   33 1
    46   32   34 1
    47   32   35 1
    48   32   36 1
    49   33   59 1
    50   33   60 1
    51   34   61 1
    52   34   62 1
    53   34   63 1
    54   35   64 1
    55   35   65 1
    56   35   66 1
    57   36   37 1
    58   36   38 1
    59   36   67 1
    60   37   68 1
    61   38   39 2
    62   38   40 am
    63   40   41 1
    64   40   69 1
    65   41   42 1
    66   41   70 1
    67   41   71 1
    68   42   43 1
    69   42   72 1
    70   42   73 1
    71   43   44 2
    72   43   45 am
    73   45   46 1
    74   45   74 1
    75   46   47 1
    76   46   75 1
    77   46   76 1
    78   47   48 1
    79   47   77 1
    80   47   78 1
    81   48   79 1
@<TRIPOS>SUBSTRUCTURE
     1 COA         1 GROUP 0 A     ****
@<TRIPOS>MOLECULE
[5-(6-aminopurin-9-yl)-2-[[[[3-hydroxy-2,2-dimethyl-4-oxo-4-[[3-oxo-3-(2-sulfanylethylamino)propyl]amino]butoxy]-oxido-phosphoryl]oxy-oxido-phosphoryl]oxymethyl]-4-oxido-tetrahydrofuran-3-yl] phosphate
   79    81     1     0     0
SMALL
USER_CHARGES

@<TRIPOS>ATOM
      1 N1A        -3.9039    2.4517    1.8283 N.ar      1 COA        -0.5260
      2 C2A        -3.3295    3.2614    0.9063 C.ar      1 COA         0.6629
      3 N3A        -2.9870    2.9823   -0.3704 N.ar      1 COA        -0.5260
      4 C4A        -3.2951    1.7119   -0.6714 C.ar      1 COA         0.5212
      5 C5A        -3.8810    0.7714    0.1608 C.ar      1 COA         0.0088
      6 C6A        -4.1878    1.1807    1.4546 C.ar      1 COA         0.5212
      7 N6A        -4.7836    0.2924    2.3662 N.pl3     1 COA        -0.6025
      8 N7A        -4.0438   -0.4230   -0.4949 N.2       1 COA        -0.4271
      9 C8A        -3.5659   -0.2124   -1.7036 C.ar      1 COA         0.5691
     10 N9A        -3.1003    1.0663   -1.8591 N.pl3     1 COA        -0.5033
     11 C1B        -2.4828    1.6438   -3.1175 C.3       1 COA         0.2693
     12 C2B        -3.1527    2.8675   -3.7856 C.3       1 COA         0.2008
     13 O2B        -4.0894    2.4850   -4.6336 O.co2     1 COA        -0.1615
     14 C3B        -1.9491    3.4718   -4.5260 C.3       1 COA         0.1111
     15 O3B        -1.5961    2.7353   -5.7012 O.3       1 COA         0.1618
     16 P3B        -0.6948    3.4882   -6.8546 P.3       1 COA        -1.1921
     17 O7A        -1.5419    4.6766   -7.3000 O.co2     1 COA         0.3195
     18 O8A        -0.5270    2.4117   -7.9228 O.co2     1 COA         0.3195
     19 O9A         0.6037    3.8701   -6.1501 O.co2     1 COA         0.3195
     20 C4B        -0.8155    3.2705   -3.5257 C.3       1 COA         0.1111
     21 O4B        -1.1344    2.0698   -2.7962 O.3       1 COA        -0.1436
     22 C5B        -0.6774    4.4099   -2.5246 C.3       1 COA         0.1504
     23 O5B         0.3986    4.1249   -1.6460 O.3       1 COA         0.1618
     24 P1A         0.7670    5.1936   -0.4641 P.3       1 COA        -1.1062
     25 O1A         1.1289    6.5260   -1.0837 O.co2     1 COA         0.3195
     26 O2A         1.6876    4.5161    0.5275 O.co2     1 COA         0.3195
     27 O3A        -0.6886    5.3125    0.2679 O.3       1 COA         0.4672
     28 P2A        -1.1429    6.2040    1.5594 P.3       1 COA        -1.1062
     29 O4A        -2.6377    6.0612    1.7476 O.co2     1 COA         0.3195
     30 O5A        -0.1888    5.9134    2.6974 O.co2     1 COA         0.3195
     31 O6A        -0.8065    7.6957    0.9792 O.3       1 COA         0.1618
     32 CBP        -1.0090    9.5771   -0.5793 C.3       1 COA         0.0000
     33 CCP        -1.4652    8.1470   -0.1994 C.3       1 COA         0.1504
     34 CDP         0.5182    9.5632   -0.8289 C.3       1 COA         0.1179
     35 CEP        -1.6888   10.0085   -1.8940 C.3       1 COA         0.1179
     36 CAP        -1.3149   10.5877    0.5658 C.3       1 COA         0.0611
     37 OAP        -0.8841   11.8921    0.1862 O.3       1 COA        -0.2728
     38 C9P        -2.7940   10.7032    0.9282 C.2       1 COA         0.3561
     39 O9P        -3.6519   11.0028    0.0998 O.2       1 COA        -0.2391
     40 N8P        -3.0442   10.4114    2.2595 N.am      1 COA        -0.1909
     41 C7P        -4.3702   10.4275    2.8329 C.3       1 COA         0.1160
     42 C6P        -5.0021    9.0493    2.7028 C.3       1 COA         0.0286
     43 C5P        -6.4020    8.9964    3.2879 C.2       1 COA         0.3561
     44 O5P        -6.9507    9.9646    3.8069 O.2       1 COA        -0.2391
     45 N4P        -6.9609    7.7332    3.1600 N.am      1 COA        -0.1909
     46 C3P        -8.2857    7.4080    3.6359 C.3       1 COA         0.1160
     47 C2P        -8.4417    7.6194    5.1330 C.3       1 COA         0.2607
     48 S1P       -10.1135    7.2063    5.7178 S.3       1 COA        -0.3539
     49 H2A        -3.1164    4.2717    1.2395 H         1 COA        -0.1369
     50 H61A       -4.9530    0.5922    3.3076 H         1 COA         0.2048
     51 H62A       -4.9456   -0.6585    2.0932 H         1 COA         0.2048
     52 H8A        -3.5298   -0.9412   -2.5018 H         1 COA        -0.1292
     53 H1B        -2.3698    0.7525   -3.8030 H         1 COA        -0.0393
     54 H2B        -3.4073    3.5789   -2.9846 H         1 COA        -0.0393
     55 H3B        -2.0891    4.5191   -4.8158 H         1 COA        -0.0393
     56 H4B         0.1478    3.1100   -4.0235 H         1 COA        -0.0393
     57 H51A       -1.5937    4.5171   -1.9365 H         1 COA        -0.0393
     58 H52A       -0.4707    5.3519   -3.0411 H         1 COA        -0.0393
     59 H121       -1.2324    7.4355   -0.9984 H         1 COA        -0.0393
     60 H122       -2.5440    8.1138   -0.0133 H         1 COA        -0.0393
     61 H131        0.8796   10.5616   -1.1013 H         1 COA        -0.0393
     62 H132        0.7886    8.8842   -1.6454 H         1 COA        -0.0393
     63 H133        1.0681    9.2399    0.0618 H         1 COA        -0.0393
     64 H141       -1.3855   11.0192   -2.1904 H         1 COA        -0.0393
     65 H142       -2.7797   10.0132   -1.7903 H         1 COA        -0.0393
     66 H143       -1.4280    9.3402   -2.7211 H         1 COA        -0.0393
     67 H10        -0.7524   10.3112    1.4665 H         1 COA        -0.0393
     68 HO1        -1.3767   12.1229   -0.6167 H         1 COA         0.2010
     69 HN8        -2.2741   10.1459    2.8657 H         1 COA         0.0865
     70 H71        -4.3037   10.7243    3.8844 H         1 COA        -0.0393
     71 H72        -4.9756   11.1803    2.3180 H         1 COA        -0.0393
     72 H61        -4.3847    8.3019    3.2165 H         1 COA        -0.0393
     73 H62        -5.0579    8.7587    1.6463 H         1 COA        -0.0393
     74 HN4        -6.4141    7.0041    2.7115 H         1 COA         0.0865
     75 H31        -8.9730    8.0660    3.0978 H         1 COA        -0.0393
     76 H32        -8.5007    6.3785    3.3384 H         1 COA        -0.0393
     77 H21        -7.7198    7.0156    5.6923 H         1 COA        -0.0393
     78 H22        -8.2588    8.6721    5.3702 H         1 COA        -0.0393
     79 HS1       -10.7530    8.1005    4.9525 H         1 COA         0.1718
@<TRIPOS>BOND
     1    1    2 ar
     2    1    6 ar
     3    2    3 ar
     4    2   49 1
     5    3    4 ar
     6    4    5 ar
     7    4   10 ar
     8    5    6 ar
     9    5    8 ar
    10    6    7 1
    11    7   50 1
    12    7   51 1
    13    8    9 ar
    14    9   10 ar
    15    9   52 1
    16   10   11 1
    17   11   12 1
    18   11   21 1
    19   11   53 1
    20   12   13 1
    21   12   14 1
    22   12   54 1
    23   14   15 1
    24   14   20 1
    25   14   55 1
    26   15   16 1
    27   16   17 2
    28   16   18 1
    29   16   19 1
    30   20   21 1
    31   20   22 1
    32   20   56 1
    33   22   23 1
    34   22   57 1
    35   22   58 1
    36   23   24 1
    37   24   25 2
    38   24   26 1
    39   24   27 1
    40   27   28 1
    41   28   29 2
    42   28   30 1
    43   28   31 1
    44   31   33 1
    45   32   33 1
    46   32   34 1
    47   32   35 1
    48   32   36 1
    49   33   59 1
    50   33   60 1
    51   34   61 1
    52   34   62 1
    53   34   63 1
    54   35   64 1
    55   35   65 1
    56   35   66 1
    57   36   37 1
    58   36   38 1
    59   36   67 1
    60   37   68 1
    61   38   39 2
    62   38   40 am
    63   40   41 1
    64   40   69 1
    65   41   42 1
    66   41   70 1
    67   41   71 1
    68   42   43 1
    69   42   72 1
    70   42   73 1
    71   43   44 2
    72   43   45 am
    73   45   46 1
    74   45   74 1
    75   46   47 1
    76   46   75 1
    77   46   76 1
    78   47   48 1
    79   47   77 1
    80   47   78 1
    81   48   79 1
@<TRIPOS>SUBSTRUCTURE
     1 COA         1 GROUP 0 A     ****
@<TRIPOS>MOLECULE
[5-(6-aminopurin-9-yl)-2-[[[[3-hydroxy-2,2-dimethyl-4-oxo-4-[[3-oxo-3-(2-sulfanylethylamino)propyl]amino]butoxy]-oxido-phosphoryl]oxy-oxido-phosphoryl]oxymethyl]-4-oxido-tetrahydrofuran-3-yl] phosphate
   79    81     1     0     0
SMALL
USER_CHARGES

@<TRIPOS>ATOM
      1 N1A         6.3197    3.3711    0.1967 N.ar      1 COA        -0.5260
      2 C2A         5.0033    3.3256    0.5141 C.ar      1 COA         0.6629
      3 N3A         4.0730    2.4196    0.1418 N.ar      1 COA        -0.5260
      4 C4A         4.6208    1.4811   -0.6447 C.ar      1 COA         0.5212
      5 C5A         5.9423    1.3962   -1.0530 C.ar      1 COA         0.0088
      6 C6A         6.8050    2.3902   -0.6021 C.ar      1 COA         0.5212
      7 N6A         8.1621    2.3826   -0.9671 N.pl3     1 COA        -0.6025
      8 N7A         6.1335    0.2987   -1.8543 N.2       1 COA        -0.4271
      9 C8A         4.9500   -0.2731   -1.9316 C.ar      1 COA         0.5691
     10 N9A         4.0006    0.4065   -1.2155 N.pl3     1 COA        -0.5033
     11 C1B         2.5376    0.0288   -1.0907 C.3       1 COA         0.2693
     12 C2B         1.9579   -0.2640    0.3131 C.3       1 COA         0.2008
     13 O2B         2.1299   -1.5323    0.6368 O.co2     1 COA        -0.1615
     14 C3B         0.4729    0.0487    0.0699 C.3       1 COA         0.1111
     15 O3B        -0.1943   -0.9780   -0.6709 O.3       1 COA         0.1618
     16 P3B        -1.8364   -1.0586   -0.5907 P.3       1 COA        -1.1921
     17 O7A        -2.1459   -1.2889    0.8856 O.co2     1 COA         0.3195
     18 O8A        -2.1706   -2.2476   -1.4866 O.co2     1 COA         0.3195
     19 O9A        -2.3217    0.2823   -1.1335 O.co2     1 COA         0.3195
     20 C4B         0.5412    1.2713   -0.8394 C.3       1 COA         0.1111
     21 O4B         1.7485    1.1278   -1.6124 O.3       1 COA        -0.1436
     22 C5B         0.6184    2.5901   -0.0816 C.3       1 COA         0.1504
     23 O5B         0.6777    3.6562   -1.0149 O.3       1 COA         0.1618
     24 P1A         0.7670    5.1936   -0.4641 P.3       1 COA        -1.1062
     25 O1A         0.8194    6.1476   -1.6376 O.co2     1 COA         0.3195
     26 O2A         1.8029    5.2507    0.6375 O.co2     1 COA         0.3195
     27 O3A        -0.6886    5.3125    0.2679 O.3       1 COA         0.4672
     28 P2A        -1.1429    6.2040    1.5594 P.3       1 COA        -1.1062
     29 O4A        -2.6377    6.0612    1.7476 O.co2     1 COA         0.3195
     30 O5A        -0.1888    5.9134    2.6974 O.co2     1 COA         0.3195
     31 O6A        -0.8065    7.6957    0.9792 O.3       1 COA         0.1618
     32 CBP        -1.0463    9.4480   -0.7182 C.3       1 COA         0.0000
     33 CCP        -1.7297    8.3208    0.0940 C.3       1 COA         0.1504
     34 CDP         0.1097    8.8359   -1.5452 C.3       1 COA         0.1179
     35 CEP        -2.0542   10.0578   -1.7127 C.3       1 COA         0.1179
     36 CAP        -0.4581   10.5415    0.2222 C.3       1 COA         0.0611
     37 OAP         0.1628   11.5628   -0.5541 O.3       1 COA        -0.2728
     38 C9P        -1.4903   11.2331    1.1103 C.2       1 COA         0.3561
     39 O9P        -2.4782   10.6465    1.5487 O.2       1 COA        -0.2391
     40 N8P        -1.1708   12.5553    1.3741 N.am      1 COA        -0.1909
     41 C7P        -1.9814   13.4088    2.2118 C.3       1 COA         0.1160
     42 C6P        -1.1590   13.8962    3.3957 C.3       1 COA         0.0286
     43 C5P        -1.9538   14.8014    4.3198 C.2       1 COA         0.3561
     44 O5P        -3.1282   15.1003    4.1212 O.2       1 COA        -0.2391
     45 N4P        -1.1879   15.2350    5.3919 N.am      1 COA        -0.1909
     46 C3P        -1.7004   16.1098    6.4212 C.3       1 COA         0.1160
     47 C2P        -0.9322   17.4177    6.5184 C.3       1 COA         0.2607
     48 S1P         0.8267   17.1583    6.9010 S.3       1 COA        -0.3539
     49 H2A         4.6492    4.1260    1.1552 H         1 COA        -0.1369
     50 H61A        8.7564    3.1335   -0.6708 H         1 COA         0.2048
     51 H62A        8.4991    1.6788   -1.5963 H         1 COA         0.2048
     52 H8A         4.7208   -1.1726   -2.4865 H         1 COA        -0.1292
     53 H1B         2.4085   -0.8200   -1.8256 H         1 COA        -0.0393
     54 H2B         2.3286    0.5212    0.9904 H         1 COA        -0.0393
     55 H3B        -0.0977    0.2245    0.9885 H         1 COA        -0.0393
     56 H4B        -0.2996    1.3083   -1.5416 H         1 COA        -0.0393
     57 H51A        1.5144    2.6204    0.5455 H         1 COA        -0.0393
     58 H52A       -0.2654    2.7227    0.5494 H         1 COA        -0.0393
     59 H121       -2.1262    7.5446   -0.5686 H         1 COA        -0.0393
     60 H122       -2.5562    8.7139    0.6956 H         1 COA        -0.0393
     61 H131        0.6194    9.6060   -2.1356 H         1 COA        -0.0393
     62 H132       -0.2524    8.0744   -2.2449 H         1 COA        -0.0393
     63 H133        0.8566    8.3597   -0.9005 H         1 COA        -0.0393
     64 H141       -1.5995   10.8607   -2.3043 H         1 COA        -0.0393
     65 H142       -2.9149   10.4873   -1.1878 H         1 COA        -0.0393
     66 H143       -2.4255    9.3094   -2.4205 H         1 COA        -0.0393
     67 H10         0.3192   10.1040    0.8613 H         1 COA        -0.0393
     68 HO1        -0.5280   11.9349   -1.1241 H         1 COA         0.2010
     69 HN8        -0.3169   12.9488    0.9903 H         1 COA         0.0865
     70 H71        -2.3444   14.2546    1.6192 H         1 COA        -0.0393
     71 H72        -2.8577   12.8492    2.5543 H         1 COA        -0.0393
     72 H61        -0.2805   14.4500    3.0416 H         1 COA        -0.0393
     73 H62        -0.7948   13.0411    3.9789 H         1 COA        -0.0393
     74 HN4        -0.2232   14.9236    5.4562 H         1 COA         0.0865
     75 H31        -2.7416   16.3132    6.1577 H         1 COA        -0.0393
     76 H32        -1.6922   15.5538    7.3622 H         1 COA        -0.0393
     77 H21        -1.0038   17.9855    5.5850 H         1 COA        -0.0393
     78 H22        -1.3588   18.0286    7.3201 H         1 COA        -0.0393
     79 HS1         1.0982   16.4244    5.8138 H         1 COA         0.1718
@<TRIPOS>BOND
     1    1    2 ar
     2    1    6 ar
     3    2    3 ar
     4    2   49 1
     5    3    4 ar
     6    4    5 ar
     7    4   10 ar
     8    5    6 ar
     9    5    8 ar
    10    6    7 1
    11    7   50 1
    12    7   51 1
    13    8    9 ar
    14    9   10 ar
    15    9   52 1
    16   10   11 1
    17   11   12 1
    18   11   21 1
    19   11   53 1
    20   12   13 1
    21   12   14 1
    22   12   54 1
    23   14   15 1
    24   14   20 1
    25   14   55 1
    26   15   16 1
    27   16   17 2
    28   16   18 1
    29   16   19 1
    30   20   21 1
    31   20   22 1
    32   20   56 1
    33   22   23 1
    34   22   57 1
    35   22   58 1
    36   23   24 1
    37   24   25 2
    38   24   26 1
    39   24   27 1
    40   27   28 1
    41   28   29 2
    42   28   30 1
    43   28   31 1
    44   31   33 1
    45   32   33 1
    46   32   34 1
    47   32   35 1
    48   32   36 1
    49   33   59 1
    50   33   60 1
    51   34   61 1
    52   34   62 1
    53   34   63 1
    54   35   64 1
    55   35   65 1
    56   35   66 1
    57   36   37 1
    58   36   38 1
    59   36   67 1
    60   37   68 1
    61   38   39 2
    62   38   40 am
    63   40   41 1
    64   40   69 1
    65   41   42 1
    66   41   70 1
    67   41   71 1
    68   42   43 1
    69   42   72 1
    70   42   73 1
    71   43   44 2
    72   43   45 am
    73   45   46 1
    74   45   74 1
    75   46   47 1
    76   46   75 1
    77   46   76 1
    78   47   48 1
    79   47   77 1
    80   47   78 1
    81   48   79 1
@<TRIPOS>SUBSTRUCTURE
     1 COA         1 GROUP 0 A     ****
@<TRIPOS>MOLECULE
[5-(6-aminopurin-9-yl)-2-[[[[3-hydroxy-2,2-dimethyl-4-oxo-4-[[3-oxo-3-(2-sulfanylethylamino)propyl]amino]butoxy]-oxido-phosphoryl]oxy-oxido-phosphoryl]oxymethyl]-4-oxido-tetrahydrofuran-3-yl] phosphate
   79    81     1     0     0
SMALL
USER_CHARGES

@<TRIPOS>ATOM
      1 N1A        -3.9039    2.4517    1.8283 N.ar      1 COA        -0.5260
      2 C2A        -3.3295    3.2614    0.9063 C.ar      1 COA         0.6629
      3 N3A        -2.9870    2.9823   -0.3704 N.ar      1 COA        -0.5260
      4 C4A        -3.2951    1.7119   -0.6714 C.ar      1 COA         0.5212
      5 C5A        -3.8810    0.7714    0.1608 C.ar      1 COA         0.0088
      6 C6A        -4.1878    1.1807    1.4546 C.ar      1 COA         0.5212
      7 N6A        -4.7836    0.2924    2.3662 N.pl3     1 COA        -0.6025
      8 N7A        -4.0438   -0.4230   -0.4949 N.2       1 COA        -0.4271
      9 C8A        -3.5659   -0.2124   -1.7036 C.ar      1 COA         0.5691
     10 N9A        -3.1003    1.0663   -1.8591 N.pl3     1 COA        -0.5033
     11 C1B        -2.4828    1.6438   -3.1175 C.3       1 COA         0.2693
     12 C2B        -3.1527    2.8675   -3.7856 C.3       1 COA         0.2008
     13 O2B        -4.0894    2.4850   -4.6336 O.co2     1 COA        -0.1615
     14 C3B        -1.9491    3.4718   -4.5260 C.3       1 COA         0.1111
     15 O3B        -1.5961    2.7353   -5.7012 O.3       1 COA         0.1618
     16 P3B        -0.6948    3.4882   -6.8546 P.3       1 COA        -1.1921
     17 O7A        -1.5419    4.6766   -7.3000 O.co2     1 COA         0.3195
     18 O8A        -0.5270    2.4117   -7.9228 O.co2     1 COA         0.3195
     19 O9A         0.6037    3.8701   -6.1501 O.co2     1 COA         0.3195
     20 C4B        -0.8155    3.2705   -3.5257 C.3       1 COA         0.1111
     21 O4B        -1.1344    2.0698   -2.7962 O.3       1 COA        -0.1436
     22 C5B        -0.6774    4.4099   -2.5246 C.3       1 COA         0.1504
     23 O5B         0.3986    4.1249   -1.6460 O.3       1 COA         0.1618
     24 P1A         0.7670    5.1936   -0.4641 P.3       1 COA        -1.1062
     25 O1A         1.1289    6.5260   -1.0837 O.co2     1 COA         0.3195
     26 O2A         1.6876    4.5161    0.5275 O.co2     1 COA         0.3195
     27 O3A        -0.6886    5.3125    0.2679 O.3       1 COA         0.4672
     28 P2A        -1.1429    6.2040    1.5594 P.3       1 COA        -1.1062
     29 O4A        -2.6377    6.0612    1.7476 O.co2     1 COA         0.3195
     30 O5A        -0.1888    5.9134    2.6974 O.co2     1 COA         0.3195
     31 O6A        -0.8065    7.6957    0.9792 O.3       1 COA         0.1618
     32 CBP        -1.0090    9.5771   -0.5793 C.3       1 COA         0.0000
     33 CCP        -1.4652    8.1470   -0.1994 C.3       1 COA         0.1504
     34 CDP         0.5182    9.5632   -0.8289 C.3       1 COA         0.1179
     35 CEP        -1.6888   10.0085   -1.8940 C.3       1 COA         0.1179
     36 CAP        -1.3149   10.5877    0.5658 C.3       1 COA         0.0611
     37 OAP        -0.6287   10.1955    1.7518 O.3       1 COA        -0.2728
     38 C9P        -0.8916   12.0249    0.2699 C.2       1 COA         0.3561
     39 O9P         0.2422   12.4378    0.5067 O.2       1 COA        -0.2391
     40 N8P        -1.9050   12.7747   -0.3052 N.am      1 COA        -0.1909
     41 C7P        -1.7368   14.1547   -0.6986 C.3       1 COA         0.1160
     42 C6P        -3.0657   14.8869   -0.5824 C.3       1 COA         0.0286
     43 C5P        -2.9592   16.3476   -0.9823 C.2       1 COA         0.3561
     44 O5P        -1.9110   16.8679   -1.3544 O.2       1 COA        -0.2391
     45 N4P        -4.1796   16.9975   -0.8699 N.am      1 COA        -0.1909
     46 C3P        -4.3575   18.3959   -1.1865 C.3       1 COA         0.1160
     47 C2P        -4.7324   18.6270   -2.6412 C.3       1 COA         0.2607
     48 S1P        -6.2890   17.8015   -3.0921 S.3       1 COA        -0.3539
     49 H2A        -3.1164    4.2717    1.2395 H         1 COA        -0.1369
     50 H61A       -4.9530    0.5922    3.3076 H         1 COA         0.2048
     51 H62A       -4.9456   -0.6585    2.0932 H         1 COA         0.2048
     52 H8A        -3.5298   -0.9412   -2.5018 H         1 COA        -0.1292
     53 H1B        -2.3698    0.7525   -3.8030 H         1 COA        -0.0393
     54 H2B        -3.4073    3.5789   -2.9846 H         1 COA        -0.0393
     55 H3B        -2.0891    4.5191   -4.8158 H         1 COA        -0.0393
     56 H4B         0.1478    3.1100   -4.0235 H         1 COA        -0.0393
     57 H51A       -1.5937    4.5171   -1.9365 H         1 COA        -0.0393
     58 H52A       -0.4707    5.3519   -3.0411 H         1 COA        -0.0393
     59 H121       -1.2324    7.4355   -0.9984 H         1 COA        -0.0393
     60 H122       -2.5440    8.1138   -0.0133 H         1 COA        -0.0393
     61 H131        0.8796   10.5616   -1.1013 H         1 COA        -0.0393
     62 H132        0.7886    8.8842   -1.6454 H         1 COA        -0.0393
     63 H133        1.0681    9.2399    0.0618 H         1 COA        -0.0393
     64 H141       -1.3855   11.0192   -2.1904 H         1 COA        -0.0393
     65 H142       -2.7797   10.0132   -1.7903 H         1 COA        -0.0393
     66 H143       -1.4280    9.3402   -2.7211 H         1 COA        -0.0393
     67 H10        -2.3880   10.5770    0.7950 H         1 COA        -0.0393
     68 HO1         0.3169   10.1957    1.5366 H         1 COA         0.2010
     69 HN8        -2.8042   12.3405   -0.4899 H         1 COA         0.0865
     70 H71        -0.9813   14.6216   -0.0586 H         1 COA        -0.0393
     71 H72        -1.3634   14.1927   -1.7268 H         1 COA        -0.0393
     72 H61        -3.4340   14.8375    0.4499 H         1 COA        -0.0393
     73 H62        -3.8172   14.4074   -1.2221 H         1 COA        -0.0393
     74 HN4        -4.9844   16.4663   -0.5505 H         1 COA         0.0865
     75 H31        -5.1605   18.7555   -0.5379 H         1 COA        -0.0393
     76 H32        -3.4385   18.9178   -0.9077 H         1 COA        -0.0393
     77 H21        -4.8320   19.6959   -2.8562 H         1 COA        -0.0393
     78 H22        -3.9452   18.2237   -3.2857 H         1 COA        -0.0393
     79 HS1        -5.8751   16.5599   -2.8070 H         1 COA         0.1718
@<TRIPOS>BOND
     1    1    2 ar
     2    1    6 ar
     3    2    3 ar
     4    2   49 1
     5    3    4 ar
     6    4    5 ar
     7    4   10 ar
     8    5    6 ar
     9    5    8 ar
    10    6    7 1
    11    7   50 1
    12    7   51 1
    13    8    9 ar
    14    9   10 ar
    15    9   52 1
    16   10   11 1
    17   11   12 1
    18   11   21 1
    19   11   53 1
    20   12   13 1
    21   12   14 1
    22   12   54 1
    23   14   15 1
    24   14   20 1
    25   14   55 1
    26   15   16 1
    27   16   17 2
    28   16   18 1
    29   16   19 1
    30   20   21 1
    31   20   22 1
    32   20   56 1
    33   22   23 1
    34   22   57 1
    35   22   58 1
    36   23   24 1
    37   24   25 2
    38   24   26 1
    39   24   27 1
    40   27   28 1
    41   28   29 2
    42   28   30 1
    43   28   31 1
    44   31   33 1
    45   32   33 1
    46   32   34 1
    47   32   35 1
    48   32   36 1
    49   33   59 1
    50   33   60 1
    51   34   61 1
    52   34   62 1
    53   34   63 1
    54   35   64 1
    55   35   65 1
    56   35   66 1
    57   36   37 1
    58   36   38 1
    59   36   67 1
    60   37   68 1
    61   38   39 2
    62   38   40 am
    63   40   41 1
    64   40   69 1
    65   41   42 1
    66   41   70 1
    67   41   71 1
    68   42   43 1
    69   42   72 1
    70   42   73 1
    71   43   44 2
    72   43   45 am
    73   45   46 1
    74   45   74 1
    75   46   47 1
    76   46   75 1
    77   46   76 1
    78   47   48 1
    79   47   77 1
    80   47   78 1
    81   48   79 1
@<TRIPOS>SUBSTRUCTURE
     1 COA         1 GROUP 0 A     ****
@<TRIPOS>MOLECULE
[5-(6-aminopurin-9-yl)-2-[[[[3-hydroxy-2,2-dimethyl-4-oxo-4-[[3-oxo-3-(2-sulfanylethylamino)propyl]amino]butoxy]-oxido-phosphoryl]oxy-oxido-phosphoryl]oxymethyl]-4-oxido-tetrahydrofuran-3-yl] phosphate
   79    81     1     0     0
SMALL
USER_CHARGES

@<TRIPOS>ATOM
      1 N1A        -3.9039    2.4517    1.8283 N.ar      1 COA        -0.5260
      2 C2A        -3.3295    3.2614    0.9063 C.ar      1 COA         0.6629
      3 N3A        -2.9870    2.9823   -0.3704 N.ar      1 COA        -0.5260
      4 C4A        -3.2951    1.7119   -0.6714 C.ar      1 COA         0.5212
      5 C5A        -3.8810    0.7714    0.1608 C.ar      1 COA         0.0088
      6 C6A        -4.1878    1.1807    1.4546 C.ar      1 COA         0.5212
      7 N6A        -4.7836    0.2924    2.3662 N.pl3     1 COA        -0.6025
      8 N7A        -4.0438   -0.4230   -0.4949 N.2       1 COA        -0.4271
      9 C8A        -3.5659   -0.2124   -1.7036 C.ar      1 COA         0.5691
     10 N9A        -3.1003    1.0663   -1.8591 N.pl3     1 COA        -0.5033
     11 C1B        -2.4828    1.6438   -3.1175 C.3       1 COA         0.2693
     12 C2B        -3.1527    2.8675   -3.7856 C.3       1 COA         0.2008
     13 O2B        -4.0894    2.4850   -4.6336 O.co2     1 COA        -0.1615
     14 C3B        -1.9491    3.4718   -4.5260 C.3       1 COA         0.1111
     15 O3B        -1.5961    2.7353   -5.7012 O.3       1 COA         0.1618
     16 P3B        -0.6948    3.4882   -6.8546 P.3       1 COA        -1.1921
     17 O7A        -1.5419    4.6766   -7.3000 O.co2     1 COA         0.3195
     18 O8A        -0.5270    2.4117   -7.9228 O.co2     1 COA         0.3195
     19 O9A         0.6037    3.8701   -6.1501 O.co2     1 COA         0.3195
     20 C4B        -0.8155    3.2705   -3.5257 C.3       1 COA         0.1111
     21 O4B        -1.1344    2.0698   -2.7962 O.3       1 COA        -0.1436
     22 C5B        -0.6774    4.4099   -2.5246 C.3       1 COA         0.1504
     23 O5B         0.3986    4.1249   -1.6460 O.3       1 COA         0.1618
     24 P1A         0.7670    5.1936   -0.4641 P.3       1 COA        -1.1062
     25 O1A         1.1289    6.5260   -1.0837 O.co2     1 COA         0.3195
     26 O2A         1.6876    4.5161    0.5275 O.co2     1 COA         0.3195
     27 O3A        -0.6886    5.3125    0.2679 O.3       1 COA         0.4672
     28 P2A        -1.1429    6.2040    1.5594 P.3       1 COA        -1.1062
     29 O4A        -2.6377    6.0612    1.7476 O.co2     1 COA         0.3195
     30 O5A        -0.1888    5.9134    2.6974 O.co2     1 COA         0.3195
     31 O6A        -0.8065    7.6957    0.9792 O.3       1 COA         0.1618
     32 CBP        -1.0090    9.5771   -0.5793 C.3       1 COA         0.0000
     33 CCP        -1.4652    8.1470   -0.1994 C.3       1 COA         0.1504
     34 CDP         0.5182    9.5632   -0.8289 C.3       1 COA         0.1179
     35 CEP        -1.6888   10.0085   -1.8940 C.3       1 COA         0.1179
     36 CAP        -1.3149   10.5877    0.5658 C.3       1 COA         0.0611
     37 OAP        -0.8841   11.8921    0.1862 O.3       1 COA        -0.2728
     38 C9P        -2.7940   10.7032    0.9282 C.2       1 COA         0.3561
     39 O9P        -3.6570   10.0067    0.3969 O.2       1 COA        -0.2391
     40 N8P        -3.0315   11.6427    1.9186 N.am      1 COA        -0.1909
     41 C7P        -4.3486   11.9130    2.4473 C.3       1 COA         0.1160
     42 C6P        -5.0118   13.0149    1.6339 C.3       1 COA         0.0286
     43 C5P        -4.2232   14.3118    1.6641 C.2       1 COA         0.3561
     44 O5P        -3.1700   14.4439    2.2816 O.2       1 COA        -0.2391
     45 N4P        -4.8430   15.3032    0.9177 N.am      1 COA        -0.1909
     46 C3P        -4.3039   16.6366    0.7802 C.3       1 COA         0.1160
     47 C2P        -4.8002   17.5861    1.8584 C.3       1 COA         0.2607
     48 S1P        -6.6100   17.7650    1.8407 S.3       1 COA        -0.3539
     49 H2A        -3.1164    4.2717    1.2395 H         1 COA        -0.1369
     50 H61A       -4.9530    0.5922    3.3076 H         1 COA         0.2048
     51 H62A       -4.9456   -0.6585    2.0932 H         1 COA         0.2048
     52 H8A        -3.5298   -0.9412   -2.5018 H         1 COA        -0.1292
     53 H1B        -2.3698    0.7525   -3.8030 H         1 COA        -0.0393
     54 H2B        -3.4073    3.5789   -2.9846 H         1 COA        -0.0393
     55 H3B        -2.0891    4.5191   -4.8158 H         1 COA        -0.0393
     56 H4B         0.1478    3.1100   -4.0235 H         1 COA        -0.0393
     57 H51A       -1.5937    4.5171   -1.9365 H         1 COA        -0.0393
     58 H52A       -0.4707    5.3519   -3.0411 H         1 COA        -0.0393
     59 H121       -1.2324    7.4355   -0.9984 H         1 COA        -0.0393
     60 H122       -2.5440    8.1138   -0.0133 H         1 COA        -0.0393
     61 H131        0.8796   10.5616   -1.1013 H         1 COA        -0.0393
     62 H132        0.7886    8.8842   -1.6454 H         1 COA        -0.0393
     63 H133        1.0681    9.2399    0.0618 H         1 COA        -0.0393
     64 H141       -1.3855   11.0192   -2.1904 H         1 COA        -0.0393
     65 H142       -2.7797   10.0132   -1.7903 H         1 COA        -0.0393
     66 H143       -1.4280    9.3402   -2.7211 H         1 COA        -0.0393
     67 H10        -0.7524   10.3112    1.4665 H         1 COA        -0.0393
     68 HO1        -1.3767   12.1229   -0.6167 H         1 COA         0.2010
     69 HN8        -2.2509   12.1532    2.3202 H         1 COA         0.0865
     70 H71        -4.9450   10.9957    2.4135 H         1 COA        -0.0393
     71 H72        -4.2610   12.2077    3.4979 H         1 COA        -0.0393
     72 H61        -6.0190   13.2142    2.0205 H         1 COA        -0.0393
     73 H62        -5.1181   12.6993    0.5884 H         1 COA        -0.0393
     74 HN4        -5.7152   15.0817    0.4465 H         1 COA         0.0865
     75 H31        -3.2178   16.5351    0.8509 H         1 COA        -0.0393
     76 H32        -4.5459   16.9893   -0.2256 H         1 COA        -0.0393
     77 H21        -4.4954   17.2449    2.8530 H         1 COA        -0.0393
     78 H22        -4.3680   18.5779    1.6933 H         1 COA        -0.0393
     79 HS1        -6.8793   16.4715    2.0611 H         1 COA         0.1718
@<TRIPOS>BOND
     1    1    2 ar
     2    1    6 ar
     3    2    3 ar
     4    2   49 1
     5    3    4 ar
     6    4    5 ar
     7    4   10 ar
     8    5    6 ar
     9    5    8 ar
    10    6    7 1
    11    7   50 1
    12    7   51 1
    13    8    9 ar
    14    9   10 ar
    15    9   52 1
    16   10   11 1
    17   11   12 1
    18   11   21 1
    19   11   53 1
    20   12   13 1
    21   12   14 1
    22   12   54 1
    23   14   15 1
    24   14   20 1
    25   14   55 1
    26   15   16 1
    27   16   17 2
    28   16   18 1
    29   16   19 1
    30   20   21 1
    31   20   22 1
    32   20   56 1
    33   22   23 1
    34   22   57 1
    35   22   58 1
    36   23   24 1
    37   24   25 2
    38   24   26 1
    39   24   27 1
    40   27   28 1
    41   28   29 2
    42   28   30 1
    43   28   31 1
    44   31   33 1
    45   32   33 1
    46   32   34 1
    47   32   35 1
    48   32   36 1
    49   33   59 1
    50   33   60 1
    51   34   61 1
    52   34   62 1
    53   34   63 1
    54   35   64 1
    55   35   65 1
    56   35   66 1
    57   36   37 1
    58   36   38 1
    59   36   67 1
    60   37   68 1
    61   38   39 2
    62   38   40 am
    63   40   41 1
    64   40   69 1
    65   41   42 1
    66   41   70 1
    67   41   71 1
    68   42   43 1
    69   42   72 1
    70   42   73 1
    71   43   44 2
    72   43   45 am
    73   45   46 1
    74   45   74 1
    75   46   47 1
    76   46   75 1
    77   46   76 1
    78   47   48 1
    79   47   77 1
    80   47   78 1
    81   48   79 1
@<TRIPOS>SUBSTRUCTURE
     1 COA         1 GROUP 0 A     ****
@<TRIPOS>MOLECULE
[5-(6-aminopurin-9-yl)-2-[[[[3-hydroxy-2,2-dimethyl-4-oxo-4-[[3-oxo-3-(2-sulfanylethylamino)propyl]amino]butoxy]-oxido-phosphoryl]oxy-oxido-phosphoryl]oxymethyl]-4-oxido-tetrahydrofuran-3-yl] phosphate
   79    81     1     0     0
SMALL
USER_CHARGES

@<TRIPOS>ATOM
      1 N1A         6.3197    3.3711    0.1967 N.ar      1 COA        -0.5260
      2 C2A         5.0033    3.3256    0.5141 C.ar      1 COA         0.6629
      3 N3A         4.0730    2.4196    0.1418 N.ar      1 COA        -0.5260
      4 C4A         4.6208    1.4811   -0.6447 C.ar      1 COA         0.5212
      5 C5A         5.9423    1.3962   -1.0530 C.ar      1 COA         0.0088
      6 C6A         6.8050    2.3902   -0.6021 C.ar      1 COA         0.5212
      7 N6A         8.1621    2.3826   -0.9671 N.pl3     1 COA        -0.6025
      8 N7A         6.1335    0.2987   -1.8543 N.2       1 COA        -0.4271
      9 C8A         4.9500   -0.2731   -1.9316 C.ar      1 COA         0.5691
     10 N9A         4.0006    0.4065   -1.2155 N.pl3     1 COA        -0.5033
     11 C1B         2.5376    0.0288   -1.0907 C.3       1 COA         0.2693
     12 C2B         1.9579   -0.2640    0.3131 C.3       1 COA         0.2008
     13 O2B         2.1299   -1.5323    0.6368 O.co2     1 COA        -0.1615
     14 C3B         0.4729    0.0487    0.0699 C.3       1 COA         0.1111
     15 O3B        -0.1943   -0.9780   -0.6709 O.3       1 COA         0.1618
     16 P3B        -1.8364   -1.0586   -0.5907 P.3       1 COA        -1.1921
     17 O7A        -2.1459   -1.2889    0.8856 O.co2     1 COA         0.3195
     18 O8A        -2.1706   -2.2476   -1.4866 O.co2     1 COA         0.3195
     19 O9A        -2.3217    0.2823   -1.1335 O.co2     1 COA         0.3195
     20 C4B         0.5412    1.2713   -0.8394 C.3       1 COA         0.1111
     21 O4B         1.7485    1.1278   -1.6124 O.3       1 COA        -0.1436
     22 C5B         0.6184    2.5901   -0.0816 C.3       1 COA         0.1504
     23 O5B         0.6777    3.6562   -1.0149 O.3       1 COA         0.1618
     24 P1A         0.7670    5.1936   -0.4641 P.3       1 COA        -1.1062
     25 O1A         0.8194    6.1476   -1.6376 O.co2     1 COA         0.3195
     26 O2A         1.8029    5.2507    0.6375 O.co2     1 COA         0.3195
     27 O3A        -0.6886    5.3125    0.2679 O.3       1 COA         0.4672
     28 P2A        -1.1429    6.2040    1.5594 P.3       1 COA        -1.1062
     29 O4A        -2.6377    6.0612    1.7476 O.co2     1 COA         0.3195
     30 O5A        -0.1888    5.9134    2.6974 O.co2     1 COA         0.3195
     31 O6A        -0.8065    7.6957    0.9792 O.3       1 COA         0.1618
     32 CBP        -1.0090    9.5771   -0.5793 C.3       1 COA         0.0000
     33 CCP        -1.4652    8.1470   -0.1994 C.3       1 COA         0.1504
     34 CDP         0.5182    9.5632   -0.8289 C.3       1 COA         0.1179
     35 CEP        -1.6888   10.0085   -1.8940 C.3       1 COA         0.1179
     36 CAP        -1.3149   10.5877    0.5658 C.3       1 COA         0.0611
     37 OAP        -0.8841   11.8921    0.1862 O.3       1 COA        -0.2728
     38 C9P        -2.7940   10.7032    0.9282 C.2       1 COA         0.3561
     39 O9P        -3.4252   11.7490    0.7870 O.2       1 COA        -0.2391
     40 N8P        -3.3259    9.5125    1.3963 N.am      1 COA        -0.1909
     41 C7P        -4.7115    9.3659    1.7784 C.3       1 COA         0.1160
     42 C6P        -4.8739    9.6939    3.2555 C.3       1 COA         0.0286
     43 C5P        -4.0470    8.7833    4.1454 C.2       1 COA         0.3561
     44 O5P        -3.7734    7.6231    3.8507 O.2       1 COA        -0.2391
     45 N4P        -3.6549    9.4270    5.3099 N.am      1 COA        -0.1909
     46 C3P        -2.8599    8.7868    6.3325 C.3       1 COA         0.1160
     47 C2P        -3.7059    8.0887    7.3847 C.3       1 COA         0.2607
     48 S1P        -4.8178    9.2384    8.2505 S.3       1 COA        -0.3539
     49 H2A         4.6492    4.1260    1.1552 H         1 COA        -0.1369
     50 H61A        8.7564    3.1335   -0.6708 H         1 COA         0.2048
     51 H62A        8.4991    1.6788   -1.5963 H         1 COA         0.2048
     52 H8A         4.7208   -1.1726   -2.4865 H         1 COA        -0.1292
     53 H1B         2.4085   -0.8200   -1.8256 H         1 COA        -0.0393
     54 H2B         2.3286    0.5212    0.9904 H         1 COA        -0.0393
     55 H3B        -0.0977    0.2245    0.9885 H         1 COA        -0.0393
     56 H4B        -0.2996    1.3083   -1.5416 H         1 COA        -0.0393
     57 H51A        1.5144    2.6204    0.5455 H         1 COA        -0.0393
     58 H52A       -0.2654    2.7227    0.5494 H         1 COA        -0.0393
     59 H121       -1.2324    7.4355   -0.9984 H         1 COA        -0.0393
     60 H122       -2.5440    8.1138   -0.0133 H         1 COA        -0.0393
     61 H131        0.8796   10.5616   -1.1013 H         1 COA        -0.0393
     62 H132        0.7886    8.8842   -1.6454 H         1 COA        -0.0393
     63 H133        1.0681    9.2399    0.0618 H         1 COA        -0.0393
     64 H141       -1.3855   11.0192   -2.1904 H         1 COA        -0.0393
     65 H142       -2.7797   10.0132   -1.7903 H         1 COA        -0.0393
     66 H143       -1.4280    9.3402   -2.7211 H         1 COA        -0.0393
     67 H10        -0.7524   10.3112    1.4665 H         1 COA        -0.0393
     68 HO1        -1.3767   12.1229   -0.6167 H         1 COA         0.2010
     69 HN8        -2.7340    8.6894    1.4534 H         1 COA         0.0865
     70 H71        -5.3262   10.0323    1.1649 H         1 COA        -0.0393
     71 H72        -5.0349    8.3406    1.5725 H         1 COA        -0.0393
     72 H61        -5.9269    9.5999    3.5486 H         1 COA        -0.0393
     73 H62        -4.5714   10.7313    3.4464 H         1 COA        -0.0393
     74 HN4        -3.9395   10.3920    5.4500 H         1 COA         0.0865
     75 H31        -2.2342    8.0533    5.8174 H         1 COA        -0.0393
     76 H32        -2.2040    9.5462    6.7655 H         1 COA        -0.0393
     77 H21        -4.3102    7.2925    6.9379 H         1 COA        -0.0393
     78 H22        -3.0493    7.6358    8.1340 H         1 COA        -0.0393
     79 HS1        -3.8503   10.0268    8.7371 H         1 COA         0.1718
@<TRIPOS>BOND
     1    1    2 ar
     2    1    6 ar
     3    2    3 ar
     4    2   49 1
     5    3    4 ar
     6    4    5 ar
     7    4   10 ar
     8    5    6 ar
     9    5    8 ar
    10    6    7 1
    11    7   50 1
    12    7   51 1
    13    8    9 ar
    14    9   10 ar
    15    9   52 1
    16   10   11 1
    17   11   12 1
    18   11   21 1
    19   11   53 1
    20   12   13 1
    21   12   14 1
    22   12   54 1
    23   14   15 1
    24   14   20 1
    25   14   55 1
    26   15   16 1
    27   16   17 2
    28   16   18 1
    29   16   19 1
    30   20   21 1
    31   20   22 1
    32   20   56 1
    33   22   23 1
    34   22   57 1
    35   22   58 1
    36   23   24 1
    37   24   25 2
    38   24   26 1
    39   24   27 1
    40   27   28 1
    41   28   29 2
    42   28   30 1
    43   28   31 1
    44   31   33 1
    45   32   33 1
    46   32   34 1
    47   32   35 1
    48   32   36 1
    49   33   59 1
    50   33   60 1
    51   34   61 1
    52   34   62 1
    53   34   63 1
    54   35   64 1
    55   35   65 1
    56   35   66 1
    57   36   37 1
    58   36   38 1
    59   36   67 1
    60   37   68 1
    61   38   39 2
    62   38   40 am
    63   40   41 1
    64   40   69 1
    65   41   42 1
    66   41   70 1
    67   41   71 1
    68   42   43 1
    69   42   72 1
    70   42   73 1
    71   43   44 2
    72   43   45 am
    73   45   46 1
    74   45   74 1
    75   46   47 1
    76   46   75 1
    77   46   76 1
    78   47   48 1
    79   47   77 1
    80   47   78 1
    81   48   79 1
@<TRIPOS>SUBSTRUCTURE
     1 COA         1 GROUP 0 A     ****
@<TRIPOS>MOLECULE
[5-(6-aminopurin-9-yl)-2-[[[[3-hydroxy-2,2-dimethyl-4-oxo-4-[[3-oxo-3-(2-sulfanylethylamino)propyl]amino]butoxy]-oxido-phosphoryl]oxy-oxido-phosphoryl]oxymethyl]-4-oxido-tetrahydrofuran-3-yl] phosphate
   79    81     1     0     0
SMALL
USER_CHARGES

@<TRIPOS>ATOM
      1 N1A         6.3197    3.3711    0.1967 N.ar      1 COA        -0.5260
      2 C2A         5.0033    3.3256    0.5141 C.ar      1 COA         0.6629
      3 N3A         4.0730    2.4196    0.1418 N.ar      1 COA        -0.5260
      4 C4A         4.6208    1.4811   -0.6447 C.ar      1 COA         0.5212
      5 C5A         5.9423    1.3962   -1.0530 C.ar      1 COA         0.0088
      6 C6A         6.8050    2.3902   -0.6021 C.ar      1 COA         0.5212
      7 N6A         8.1621    2.3826   -0.9671 N.pl3     1 COA        -0.6025
      8 N7A         6.1335    0.2987   -1.8543 N.2       1 COA        -0.4271
      9 C8A         4.9500   -0.2731   -1.9316 C.ar      1 COA         0.5691
     10 N9A         4.0006    0.4065   -1.2155 N.pl3     1 COA        -0.5033
     11 C1B         2.5376    0.0288   -1.0907 C.3       1 COA         0.2693
     12 C2B         1.9579   -0.2640    0.3131 C.3       1 COA         0.2008
     13 O2B         2.1299   -1.5323    0.6368 O.co2     1 COA        -0.1615
     14 C3B         0.4729    0.0487    0.0699 C.3       1 COA         0.1111
     15 O3B        -0.1943   -0.9780   -0.6709 O.3       1 COA         0.1618
     16 P3B        -1.8364   -1.0586   -0.5907 P.3       1 COA        -1.1921
     17 O7A        -2.1459   -1.2889    0.8856 O.co2     1 COA         0.3195
     18 O8A        -2.1706   -2.2476   -1.4866 O.co2     1 COA         0.3195
     19 O9A        -2.3217    0.2823   -1.1335 O.co2     1 COA         0.3195
     20 C4B         0.5412    1.2713   -0.8394 C.3       1 COA         0.1111
     21 O4B         1.7485    1.1278   -1.6124 O.3       1 COA        -0.1436
     22 C5B         0.6184    2.5901   -0.0816 C.3       1 COA         0.1504
     23 O5B         0.6777    3.6562   -1.0149 O.3       1 COA         0.1618
     24 P1A         0.7670    5.1936   -0.4641 P.3       1 COA        -1.1062
     25 O1A         0.8194    6.1476   -1.6376 O.co2     1 COA         0.3195
     26 O2A         1.8029    5.2507    0.6375 O.co2     1 COA         0.3195
     27 O3A        -0.6886    5.3125    0.2679 O.3       1 COA         0.4672
     28 P2A        -1.1429    6.2040    1.5594 P.3       1 COA        -1.1062
     29 O4A        -2.6377    6.0612    1.7476 O.co2     1 COA         0.3195
     30 O5A        -0.1888    5.9134    2.6974 O.co2     1 COA         0.3195
     31 O6A        -0.8065    7.6957    0.9792 O.3       1 COA         0.1618
     32 CBP        -1.0463    9.4480   -0.7182 C.3       1 COA         0.0000
     33 CCP        -1.7297    8.3208    0.0940 C.3       1 COA         0.1504
     34 CDP         0.1097    8.8359   -1.5452 C.3       1 COA         0.1179
     35 CEP        -2.0542   10.0578   -1.7127 C.3       1 COA         0.1179
     36 CAP        -0.4581   10.5415    0.2222 C.3       1 COA         0.0611
     37 OAP        -0.0749    9.9553    1.4635 O.3       1 COA        -0.2728
     38 C9P         0.7781   11.2496   -0.3278 C.2       1 COA         0.3561
     39 O9P         1.9147   10.8096   -0.1639 O.2       1 COA        -0.2391
     40 N8P         0.4670   12.3997   -1.0352 N.am      1 COA        -0.1909
     41 C7P         1.4661   13.2264   -1.6721 C.3       1 COA         0.1160
     42 C6P         2.4436   13.7461   -0.6279 C.3       1 COA         0.0286
     43 C5P         3.5237   14.6252   -1.2322 C.2       1 COA         0.3561
     44 O5P         3.5907   14.8791   -2.4318 O.2       1 COA        -0.2391
     45 N4P         4.4041   15.0888   -0.2657 N.am      1 COA        -0.1909
     46 C3P         5.5275   15.9445   -0.5712 C.3       1 COA         0.1160
     47 C2P         6.7923   15.1641   -0.8895 C.3       1 COA         0.2607
     48 S1P         7.3189   14.1086    0.4948 S.3       1 COA        -0.3539
     49 H2A         4.6492    4.1260    1.1552 H         1 COA        -0.1369
     50 H61A        8.7564    3.1335   -0.6708 H         1 COA         0.2048
     51 H62A        8.4991    1.6788   -1.5963 H         1 COA         0.2048
     52 H8A         4.7208   -1.1726   -2.4865 H         1 COA        -0.1292
     53 H1B         2.4085   -0.8200   -1.8256 H         1 COA        -0.0393
     54 H2B         2.3286    0.5212    0.9904 H         1 COA        -0.0393
     55 H3B        -0.0977    0.2245    0.9885 H         1 COA        -0.0393
     56 H4B        -0.2996    1.3083   -1.5416 H         1 COA        -0.0393
     57 H51A        1.5144    2.6204    0.5455 H         1 COA        -0.0393
     58 H52A       -0.2654    2.7227    0.5494 H         1 COA        -0.0393
     59 H121       -2.1262    7.5446   -0.5686 H         1 COA        -0.0393
     60 H122       -2.5562    8.7139    0.6956 H         1 COA        -0.0393
     61 H131        0.6194    9.6060   -2.1356 H         1 COA        -0.0393
     62 H132       -0.2524    8.0744   -2.2449 H         1 COA        -0.0393
     63 H133        0.8566    8.3597   -0.9005 H         1 COA        -0.0393
     64 H141       -1.5995   10.8607   -2.3043 H         1 COA        -0.0393
     65 H142       -2.9149   10.4873   -1.1878 H         1 COA        -0.0393
     66 H143       -2.4255    9.3094   -2.4205 H         1 COA        -0.0393
     67 H10        -1.2254   11.2941    0.4437 H         1 COA        -0.0393
     68 HO1         0.5935    9.2836    1.2570 H         1 COA         0.2010
     69 HN8        -0.5053   12.6721   -1.1428 H         1 COA         0.0865
     70 H71         1.9896   12.6372   -2.4317 H         1 COA        -0.0393
     71 H72         0.9716   14.0571   -2.1856 H         1 COA        -0.0393
     72 H61         2.9287   12.9061   -0.1152 H         1 COA        -0.0393
     73 H62         1.9082   14.3293    0.1319 H         1 COA        -0.0393
     74 HN4         4.2522   14.8142    0.7005 H         1 COA         0.0865
     75 H31         5.2317   16.5367   -1.4411 H         1 COA        -0.0393
     76 H32         5.6628   16.6265    0.2720 H         1 COA        -0.0393
     77 H21         6.6525   14.5328   -1.7730 H         1 COA        -0.0393
     78 H22         7.6062   15.8651   -1.0994 H         1 COA        -0.0393
     79 HS1         6.1999   13.3737    0.5422 H         1 COA         0.1718
@<TRIPOS>BOND
     1    1    2 ar
     2    1    6 ar
     3    2    3 ar
     4    2   49 1
     5    3    4 ar
     6    4    5 ar
     7    4   10 ar
     8    5    6 ar
     9    5    8 ar
    10    6    7 1
    11    7   50 1
    12    7   51 1
    13    8    9 ar
    14    9   10 ar
    15    9   52 1
    16   10   11 1
    17   11   12 1
    18   11   21 1
    19   11   53 1
    20   12   13 1
    21   12   14 1
    22   12   54 1
    23   14   15 1
    24   14   20 1
    25   14   55 1
    26   15   16 1
    27   16   17 2
    28   16   18 1
    29   16   19 1
    30   20   21 1
    31   20   22 1
    32   20   56 1
    33   22   23 1
    34   22   57 1
    35   22   58 1
    36   23   24 1
    37   24   25 2
    38   24   26 1
    39   24   27 1
    40   27   28 1
    41   28   29 2
    42   28   30 1
    43   28   31 1
    44   31   33 1
    45   32   33 1
    46   32   34 1
    47   32   35 1
    48   32   36 1
    49   33   59 1
    50   33   60 1
    51   34   61 1
    52   34   62 1
    53   34   63 1
    54   35   64 1
    55   35   65 1
    56   35   66 1
    57   36   37 1
    58   36   38 1
    59   36   67 1
    60   37   68 1
    61   38   39 2
    62   38   40 am
    63   40   41 1
    64   40   69 1
    65   41   42 1
    66   41   70 1
    67   41   71 1
    68   42   43 1
    69   42   72 1
    70   42   73 1
    71   43   44 2
    72   43   45 am
    73   45   46 1
    74   45   74 1
    75   46   47 1
    76   46   75 1
    77   46   76 1
    78   47   48 1
    79   47   77 1
    80   47   78 1
    81   48   79 1
@<TRIPOS>SUBSTRUCTURE
     1 COA         1 GROUP 0 A     ****
@<TRIPOS>MOLECULE
[5-(6-aminopurin-9-yl)-2-[[[[3-hydroxy-2,2-dimethyl-4-oxo-4-[[3-oxo-3-(2-sulfanylethylamino)propyl]amino]butoxy]-oxido-phosphoryl]oxy-oxido-phosphoryl]oxymethyl]-4-oxido-tetrahydrofuran-3-yl] phosphate
   79    81     1     0     0
SMALL
USER_CHARGES

@<TRIPOS>ATOM
      1 N1A        -3.9039    2.4517    1.8283 N.ar      1 COA        -0.5260
      2 C2A        -3.3295    3.2614    0.9063 C.ar      1 COA         0.6629
      3 N3A        -2.9870    2.9823   -0.3704 N.ar      1 COA        -0.5260
      4 C4A        -3.2951    1.7119   -0.6714 C.ar      1 COA         0.5212
      5 C5A        -3.8810    0.7714    0.1608 C.ar      1 COA         0.0088
      6 C6A        -4.1878    1.1807    1.4546 C.ar      1 COA         0.5212
      7 N6A        -4.7836    0.2924    2.3662 N.pl3     1 COA        -0.6025
      8 N7A        -4.0438   -0.4230   -0.4949 N.2       1 COA        -0.4271
      9 C8A        -3.5659   -0.2124   -1.7036 C.ar      1 COA         0.5691
     10 N9A        -3.1003    1.0663   -1.8591 N.pl3     1 COA        -0.5033
     11 C1B        -2.4828    1.6438   -3.1175 C.3       1 COA         0.2693
     12 C2B        -3.1527    2.8675   -3.7856 C.3       1 COA         0.2008
     13 O2B        -4.0894    2.4850   -4.6336 O.co2     1 COA        -0.1615
     14 C3B        -1.9491    3.4718   -4.5260 C.3       1 COA         0.1111
     15 O3B        -1.5961    2.7353   -5.7012 O.3       1 COA         0.1618
     16 P3B        -0.6948    3.4882   -6.8546 P.3       1 COA        -1.1921
     17 O7A        -1.5419    4.6766   -7.3000 O.co2     1 COA         0.3195
     18 O8A        -0.5270    2.4117   -7.9228 O.co2     1 COA         0.3195
     19 O9A         0.6037    3.8701   -6.1501 O.co2     1 COA         0.3195
     20 C4B        -0.8155    3.2705   -3.5257 C.3       1 COA         0.1111
     21 O4B        -1.1344    2.0698   -2.7962 O.3       1 COA        -0.1436
     22 C5B        -0.6774    4.4099   -2.5246 C.3       1 COA         0.1504
     23 O5B         0.3986    4.1249   -1.6460 O.3       1 COA         0.1618
     24 P1A         0.7670    5.1936   -0.4641 P.3       1 COA        -1.1062
     25 O1A         1.1289    6.5260   -1.0837 O.co2     1 COA         0.3195
     26 O2A         1.6876    4.5161    0.5275 O.co2     1 COA         0.3195
     27 O3A        -0.6886    5.3125    0.2679 O.3       1 COA         0.4672
     28 P2A        -1.1429    6.2040    1.5594 P.3       1 COA        -1.1062
     29 O4A        -2.6377    6.0612    1.7476 O.co2     1 COA         0.3195
     30 O5A        -0.1888    5.9134    2.6974 O.co2     1 COA         0.3195
     31 O6A        -0.8065    7.6957    0.9792 O.3       1 COA         0.1618
     32 CBP        -1.0090    9.5771   -0.5793 C.3       1 COA         0.0000
     33 CCP        -1.4652    8.1470   -0.1994 C.3       1 COA         0.1504
     34 CDP         0.5182    9.5632   -0.8289 C.3       1 COA         0.1179
     35 CEP        -1.6888   10.0085   -1.8940 C.3       1 COA         0.1179
     36 CAP        -1.3149   10.5877    0.5658 C.3       1 COA         0.0611
     37 OAP        -2.7163   10.6149    0.8239 O.3       1 COA        -0.2728
     38 C9P        -0.6314   10.2649    1.8928 C.2       1 COA         0.3561
     39 O9P        -1.1331    9.5097    2.7236 O.2       1 COA        -0.2391
     40 N8P         0.5984   10.8887    2.0282 N.am      1 COA        -0.1909
     41 C7P         1.4450   10.7163    3.1861 C.3       1 COA         0.1160
     42 C6P         2.9047   10.8585    2.7801 C.3       1 COA         0.0286
     43 C5P         3.8519   10.6879    3.9543 C.2       1 COA         0.3561
     44 O5P         3.4693   10.4624    5.0992 O.2       1 COA        -0.2391
     45 N4P         5.1765   10.8208    3.5646 N.am      1 COA        -0.1909
     46 C3P         6.2826   10.7057    4.4870 C.3       1 COA         0.1160
     47 C2P         6.6683   12.0363    5.1124 C.3       1 COA         0.2607
     48 S1P         7.1697   13.2642    3.8681 S.3       1 COA        -0.3539
     49 H2A        -3.1164    4.2717    1.2395 H         1 COA        -0.1369
     50 H61A       -4.9530    0.5922    3.3076 H         1 COA         0.2048
     51 H62A       -4.9456   -0.6585    2.0932 H         1 COA         0.2048
     52 H8A        -3.5298   -0.9412   -2.5018 H         1 COA        -0.1292
     53 H1B        -2.3698    0.7525   -3.8030 H         1 COA        -0.0393
     54 H2B        -3.4073    3.5789   -2.9846 H         1 COA        -0.0393
     55 H3B        -2.0891    4.5191   -4.8158 H         1 COA        -0.0393
     56 H4B         0.1478    3.1100   -4.0235 H         1 COA        -0.0393
     57 H51A       -1.5937    4.5171   -1.9365 H         1 COA        -0.0393
     58 H52A       -0.4707    5.3519   -3.0411 H         1 COA        -0.0393
     59 H121       -1.2324    7.4355   -0.9984 H         1 COA        -0.0393
     60 H122       -2.5440    8.1138   -0.0133 H         1 COA        -0.0393
     61 H131        0.8796   10.5616   -1.1013 H         1 COA        -0.0393
     62 H132        0.7886    8.8842   -1.6454 H         1 COA        -0.0393
     63 H133        1.0681    9.2399    0.0618 H         1 COA        -0.0393
     64 H141       -1.3855   11.0192   -2.1904 H         1 COA        -0.0393
     65 H142       -2.7797   10.0132   -1.7903 H         1 COA        -0.0393
     66 H143       -1.4280    9.3402   -2.7211 H         1 COA        -0.0393
     67 H10        -1.0237   11.5996    0.2569 H         1 COA        -0.0393
     68 HO1        -2.9668    9.7148    1.0837 H         1 COA         0.2010
     69 HN8         0.9463   11.4752    1.2758 H         1 COA         0.0865
     70 H71         1.1793   11.4637    3.9404 H         1 COA        -0.0393
     71 H72         1.2600    9.7300    3.6233 H         1 COA        -0.0393
     72 H61         3.0779   11.8474    2.3377 H         1 COA        -0.0393
     73 H62         3.1588   10.1097    2.0195 H         1 COA        -0.0393
     74 HN4         5.3780   11.0076    2.5867 H         1 COA         0.0865
     75 H31         5.9577   10.0127    5.2675 H         1 COA        -0.0393
     76 H32         7.1148   10.2439    3.9498 H         1 COA        -0.0393
     77 H21         5.8394   12.4515    5.6948 H         1 COA        -0.0393
     78 H22         7.5154   11.8855    5.7888 H         1 COA        -0.0393
     79 HS1         6.0071   13.2699    3.2028 H         1 COA         0.1718
@<TRIPOS>BOND
     1    1    2 ar
     2    1    6 ar
     3    2    3 ar
     4    2   49 1
     5    3    4 ar
     6    4    5 ar
     7    4   10 ar
     8    5    6 ar
     9    5    8 ar
    10    6    7 1
    11    7   50 1
    12    7   51 1
    13    8    9 ar
    14    9   10 ar
    15    9   52 1
    16   10   11 1
    17   11   12 1
    18   11   21 1
    19   11   53 1
    20   12   13 1
    21   12   14 1
    22   12   54 1
    23   14   15 1
    24   14   20 1
    25   14   55 1
    26   15   16 1
    27   16   17 2
    28   16   18 1
    29   16   19 1
    30   20   21 1
    31   20   22 1
    32   20   56 1
    33   22   23 1
    34   22   57 1
    35   22   58 1
    36   23   24 1
    37   24   25 2
    38   24   26 1
    39   24   27 1
    40   27   28 1
    41   28   29 2
    42   28   30 1
    43   28   31 1
    44   31   33 1
    45   32   33 1
    46   32   34 1
    47   32   35 1
    48   32   36 1
    49   33   59 1
    50   33   60 1
    51   34   61 1
    52   34   62 1
    53   34   63 1
    54   35   64 1
    55   35   65 1
    56   35   66 1
    57   36   37 1
    58   36   38 1
    59   36   67 1
    60   37   68 1
    61   38   39 2
    62   38   40 am
    63   40   41 1
    64   40   69 1
    65   41   42 1
    66   41   70 1
    67   41   71 1
    68   42   43 1
    69   42   72 1
    70   42   73 1
    71   43   44 2
    72   43   45 am
    73   45   46 1
    74   45   74 1
    75   46   47 1
    76   46   75 1
    77   46   76 1
    78   47   48 1
    79   47   77 1
    80   47   78 1
    81   48   79 1
@<TRIPOS>SUBSTRUCTURE
     1 COA         1 GROUP 0 A     ****
@<TRIPOS>MOLECULE
[5-(6-aminopurin-9-yl)-2-[[[[3-hydroxy-2,2-dimethyl-4-oxo-4-[[3-oxo-3-(2-sulfanylethylamino)propyl]amino]butoxy]-oxido-phosphoryl]oxy-oxido-phosphoryl]oxymethyl]-4-oxido-tetrahydrofuran-3-yl] phosphate
   79    81     1     0     0
SMALL
USER_CHARGES

@<TRIPOS>ATOM
      1 N1A        -3.9039    2.4517    1.8283 N.ar      1 COA        -0.5260
      2 C2A        -3.3295    3.2614    0.9063 C.ar      1 COA         0.6629
      3 N3A        -2.9870    2.9823   -0.3704 N.ar      1 COA        -0.5260
      4 C4A        -3.2951    1.7119   -0.6714 C.ar      1 COA         0.5212
      5 C5A        -3.8810    0.7714    0.1608 C.ar      1 COA         0.0088
      6 C6A        -4.1878    1.1807    1.4546 C.ar      1 COA         0.5212
      7 N6A        -4.7836    0.2924    2.3662 N.pl3     1 COA        -0.6025
      8 N7A        -4.0438   -0.4230   -0.4949 N.2       1 COA        -0.4271
      9 C8A        -3.5659   -0.2124   -1.7036 C.ar      1 COA         0.5691
     10 N9A        -3.1003    1.0663   -1.8591 N.pl3     1 COA        -0.5033
     11 C1B        -2.4828    1.6438   -3.1175 C.3       1 COA         0.2693
     12 C2B        -3.1527    2.8675   -3.7856 C.3       1 COA         0.2008
     13 O2B        -4.0894    2.4850   -4.6336 O.co2     1 COA        -0.1615
     14 C3B        -1.9491    3.4718   -4.5260 C.3       1 COA         0.1111
     15 O3B        -1.5961    2.7353   -5.7012 O.3       1 COA         0.1618
     16 P3B        -0.6948    3.4882   -6.8546 P.3       1 COA        -1.1921
     17 O7A        -1.5419    4.6766   -7.3000 O.co2     1 COA         0.3195
     18 O8A        -0.5270    2.4117   -7.9228 O.co2     1 COA         0.3195
     19 O9A         0.6037    3.8701   -6.1501 O.co2     1 COA         0.3195
     20 C4B        -0.8155    3.2705   -3.5257 C.3       1 COA         0.1111
     21 O4B        -1.1344    2.0698   -2.7962 O.3       1 COA        -0.1436
     22 C5B        -0.6774    4.4099   -2.5246 C.3       1 COA         0.1504
     23 O5B         0.3986    4.1249   -1.6460 O.3       1 COA         0.1618
     24 P1A         0.7670    5.1936   -0.4641 P.3       1 COA        -1.1062
     25 O1A         1.1289    6.5260   -1.0837 O.co2     1 COA         0.3195
     26 O2A         1.6876    4.5161    0.5275 O.co2     1 COA         0.3195
     27 O3A        -0.6886    5.3125    0.2679 O.3       1 COA         0.4672
     28 P2A        -1.1429    6.2040    1.5594 P.3       1 COA        -1.1062
     29 O4A        -2.6377    6.0612    1.7476 O.co2     1 COA         0.3195
     30 O5A        -0.1888    5.9134    2.6974 O.co2     1 COA         0.3195
     31 O6A        -0.8065    7.6957    0.9792 O.3       1 COA         0.1618
     32 CBP        -1.0090    9.5771   -0.5793 C.3       1 COA         0.0000
     33 CCP        -1.4652    8.1470   -0.1994 C.3       1 COA         0.1504
     34 CDP         0.5182    9.5632   -0.8289 C.3       1 COA         0.1179
     35 CEP        -1.6888   10.0085   -1.8940 C.3       1 COA         0.1179
     36 CAP        -1.3149   10.5877    0.5658 C.3       1 COA         0.0611
     37 OAP        -0.8841   11.8921    0.1862 O.3       1 COA        -0.2728
     38 C9P        -2.7940   10.7032    0.9282 C.2       1 COA         0.3561
     39 O9P        -3.6570   10.0067    0.3969 O.2       1 COA        -0.2391
     40 N8P        -3.0315   11.6427    1.9186 N.am      1 COA        -0.1909
     41 C7P        -4.3486   11.9130    2.4473 C.3       1 COA         0.1160
     42 C6P        -4.6208   11.0029    3.6363 C.3       1 COA         0.0286
     43 C5P        -5.9933   11.2358    4.2418 C.2       1 COA         0.3561
     44 O5P        -6.5611   12.3245    4.2215 O.2       1 COA        -0.2391
     45 N4P        -6.5038   10.0775    4.8092 N.am      1 COA        -0.1909
     46 C3P        -7.7943   10.0218    5.4564 C.3       1 COA         0.1160
     47 C2P        -8.9185    9.6643    4.4979 C.3       1 COA         0.2607
     48 S1P        -8.6702    8.0400    3.7182 S.3       1 COA        -0.3539
     49 H2A        -3.1164    4.2717    1.2395 H         1 COA        -0.1369
     50 H61A       -4.9530    0.5922    3.3076 H         1 COA         0.2048
     51 H62A       -4.9456   -0.6585    2.0932 H         1 COA         0.2048
     52 H8A        -3.5298   -0.9412   -2.5018 H         1 COA        -0.1292
     53 H1B        -2.3698    0.7525   -3.8030 H         1 COA        -0.0393
     54 H2B        -3.4073    3.5789   -2.9846 H         1 COA        -0.0393
     55 H3B        -2.0891    4.5191   -4.8158 H         1 COA        -0.0393
     56 H4B         0.1478    3.1100   -4.0235 H         1 COA        -0.0393
     57 H51A       -1.5937    4.5171   -1.9365 H         1 COA        -0.0393
     58 H52A       -0.4707    5.3519   -3.0411 H         1 COA        -0.0393
     59 H121       -1.2324    7.4355   -0.9984 H         1 COA        -0.0393
     60 H122       -2.5440    8.1138   -0.0133 H         1 COA        -0.0393
     61 H131        0.8796   10.5616   -1.1013 H         1 COA        -0.0393
     62 H132        0.7886    8.8842   -1.6454 H         1 COA        -0.0393
     63 H133        1.0681    9.2399    0.0618 H         1 COA        -0.0393
     64 H141       -1.3855   11.0192   -2.1904 H         1 COA        -0.0393
     65 H142       -2.7797   10.0132   -1.7903 H         1 COA        -0.0393
     66 H143       -1.4280    9.3402   -2.7211 H         1 COA        -0.0393
     67 H10        -0.7524   10.3112    1.4665 H         1 COA        -0.0393
     68 HO1        -1.3767   12.1229   -0.6167 H         1 COA         0.2010
     69 HN8        -2.2509   12.1532    2.3202 H         1 COA         0.0865
     70 H71        -4.4081   12.9648    2.7445 H         1 COA        -0.0393
     71 H72        -5.0921   11.7528    1.6601 H         1 COA        -0.0393
     72 H61        -3.8669   11.1668    4.4163 H         1 COA        -0.0393
     73 H62        -4.5522    9.9517    3.3294 H         1 COA        -0.0393
     74 HN4        -5.9450    9.2302    4.7678 H         1 COA         0.0865
     75 H31        -7.7138    9.2552    6.2315 H         1 COA        -0.0393
     76 H32        -7.9596   10.9838    5.9481 H         1 COA        -0.0393
     77 H21        -9.8854    9.6581    5.0114 H         1 COA        -0.0393
     78 H22        -8.9637   10.4113    3.6993 H         1 COA        -0.0393
     79 HS1        -7.5049    8.3444    3.1319 H         1 COA         0.1718
@<TRIPOS>BOND
     1    1    2 ar
     2    1    6 ar
     3    2    3 ar
     4    2   49 1
     5    3    4 ar
     6    4    5 ar
     7    4   10 ar
     8    5    6 ar
     9    5    8 ar
    10    6    7 1
    11    7   50 1
    12    7   51 1
    13    8    9 ar
    14    9   10 ar
    15    9   52 1
    16   10   11 1
    17   11   12 1
    18   11   21 1
    19   11   53 1
    20   12   13 1
    21   12   14 1
    22   12   54 1
    23   14   15 1
    24   14   20 1
    25   14   55 1
    26   15   16 1
    27   16   17 2
    28   16   18 1
    29   16   19 1
    30   20   21 1
    31   20   22 1
    32   20   56 1
    33   22   23 1
    34   22   57 1
    35   22   58 1
    36   23   24 1
    37   24   25 2
    38   24   26 1
    39   24   27 1
    40   27   28 1
    41   28   29 2
    42   28   30 1
    43   28   31 1
    44   31   33 1
    45   32   33 1
    46   32   34 1
    47   32   35 1
    48   32   36 1
    49   33   59 1
    50   33   60 1
    51   34   61 1
    52   34   62 1
    53   34   63 1
    54   35   64 1
    55   35   65 1
    56   35   66 1
    57   36   37 1
    58   36   38 1
    59   36   67 1
    60   37   68 1
    61   38   39 2
    62   38   40 am
    63   40   41 1
    64   40   69 1
    65   41   42 1
    66   41   70 1
    67   41   71 1
    68   42   43 1
    69   42   72 1
    70   42   73 1
    71   43   44 2
    72   43   45 am
    73   45   46 1
    74   45   74 1
    75   46   47 1
    76   46   75 1
    77   46   76 1
    78   47   48 1
    79   47   77 1
    80   47   78 1
    81   48   79 1
@<TRIPOS>SUBSTRUCTURE
     1 COA         1 GROUP 0 A     ****
@<TRIPOS>MOLECULE
[5-(6-aminopurin-9-yl)-2-[[[[3-hydroxy-2,2-dimethyl-4-oxo-4-[[3-oxo-3-(2-sulfanylethylamino)propyl]amino]butoxy]-oxido-phosphoryl]oxy-oxido-phosphoryl]oxymethyl]-4-oxido-tetrahydrofuran-3-yl] phosphate
   79    81     1     0     0
SMALL
USER_CHARGES

@<TRIPOS>ATOM
      1 N1A        -3.9039    2.4517    1.8283 N.ar      1 COA        -0.5260
      2 C2A        -3.3295    3.2614    0.9063 C.ar      1 COA         0.6629
      3 N3A        -2.9870    2.9823   -0.3704 N.ar      1 COA        -0.5260
      4 C4A        -3.2951    1.7119   -0.6714 C.ar      1 COA         0.5212
      5 C5A        -3.8810    0.7714    0.1608 C.ar      1 COA         0.0088
      6 C6A        -4.1878    1.1807    1.4546 C.ar      1 COA         0.5212
      7 N6A        -4.7836    0.2924    2.3662 N.pl3     1 COA        -0.6025
      8 N7A        -4.0438   -0.4230   -0.4949 N.2       1 COA        -0.4271
      9 C8A        -3.5659   -0.2124   -1.7036 C.ar      1 COA         0.5691
     10 N9A        -3.1003    1.0663   -1.8591 N.pl3     1 COA        -0.5033
     11 C1B        -2.4828    1.6438   -3.1175 C.3       1 COA         0.2693
     12 C2B        -3.1527    2.8675   -3.7856 C.3       1 COA         0.2008
     13 O2B        -4.0894    2.4850   -4.6336 O.co2     1 COA        -0.1615
     14 C3B        -1.9491    3.4718   -4.5260 C.3       1 COA         0.1111
     15 O3B        -1.5961    2.7353   -5.7012 O.3       1 COA         0.1618
     16 P3B        -0.6948    3.4882   -6.8546 P.3       1 COA        -1.1921
     17 O7A        -1.5419    4.6766   -7.3000 O.co2     1 COA         0.3195
     18 O8A        -0.5270    2.4117   -7.9228 O.co2     1 COA         0.3195
     19 O9A         0.6037    3.8701   -6.1501 O.co2     1 COA         0.3195
     20 C4B        -0.8155    3.2705   -3.5257 C.3       1 COA         0.1111
     21 O4B        -1.1344    2.0698   -2.7962 O.3       1 COA        -0.1436
     22 C5B        -0.6774    4.4099   -2.5246 C.3       1 COA         0.1504
     23 O5B         0.3986    4.1249   -1.6460 O.3       1 COA         0.1618
     24 P1A         0.7670    5.1936   -0.4641 P.3       1 COA        -1.1062
     25 O1A         1.1289    6.5260   -1.0837 O.co2     1 COA         0.3195
     26 O2A         1.6876    4.5161    0.5275 O.co2     1 COA         0.3195
     27 O3A        -0.6886    5.3125    0.2679 O.3       1 COA         0.4672
     28 P2A        -1.1429    6.2040    1.5594 P.3       1 COA        -1.1062
     29 O4A        -2.6377    6.0612    1.7476 O.co2     1 COA         0.3195
     30 O5A        -0.1888    5.9134    2.6974 O.co2     1 COA         0.3195
     31 O6A        -0.8065    7.6957    0.9792 O.3       1 COA         0.1618
     32 CBP        -1.0090    9.5771   -0.5793 C.3       1 COA         0.0000
     33 CCP        -1.4652    8.1470   -0.1994 C.3       1 COA         0.1504
     34 CDP         0.5182    9.5632   -0.8289 C.3       1 COA         0.1179
     35 CEP        -1.6888   10.0085   -1.8940 C.3       1 COA         0.1179
     36 CAP        -1.3149   10.5877    0.5658 C.3       1 COA         0.0611
     37 OAP        -0.8841   11.8921    0.1862 O.3       1 COA        -0.2728
     38 C9P        -2.7940   10.7032    0.9282 C.2       1 COA         0.3561
     39 O9P        -3.6891   10.4664    0.1190 O.2       1 COA        -0.2391
     40 N8P        -2.9952   11.0709    2.2489 N.am      1 COA        -0.1909
     41 C7P        -4.3082   11.2196    2.8331 C.3       1 COA         0.1160
     42 C6P        -4.7902   12.6519    2.6541 C.3       1 COA         0.0286
     43 C5P        -6.1691   12.8776    3.2477 C.2       1 COA         0.3561
     44 O5P        -6.8136   11.9938    3.8057 O.2       1 COA        -0.2391
     45 N4P        -6.5907   14.1878    3.0747 N.am      1 COA        -0.1909
     46 C3P        -7.8688   14.6708    3.5444 C.3       1 COA         0.1160
     47 C2P        -7.8070   15.2168    4.9616 C.3       1 COA         0.2607
     48 S1P        -9.4222   15.8209    5.5394 S.3       1 COA        -0.3539
     49 H2A        -3.1164    4.2717    1.2395 H         1 COA        -0.1369
     50 H61A       -4.9530    0.5922    3.3076 H         1 COA         0.2048
     51 H62A       -4.9456   -0.6585    2.0932 H         1 COA         0.2048
     52 H8A        -3.5298   -0.9412   -2.5018 H         1 COA        -0.1292
     53 H1B        -2.3698    0.7525   -3.8030 H         1 COA        -0.0393
     54 H2B        -3.4073    3.5789   -2.9846 H         1 COA        -0.0393
     55 H3B        -2.0891    4.5191   -4.8158 H         1 COA        -0.0393
     56 H4B         0.1478    3.1100   -4.0235 H         1 COA        -0.0393
     57 H51A       -1.5937    4.5171   -1.9365 H         1 COA        -0.0393
     58 H52A       -0.4707    5.3519   -3.0411 H         1 COA        -0.0393
     59 H121       -1.2324    7.4355   -0.9984 H         1 COA        -0.0393
     60 H122       -2.5440    8.1138   -0.0133 H         1 COA        -0.0393
     61 H131        0.8796   10.5616   -1.1013 H         1 COA        -0.0393
     62 H132        0.7886    8.8842   -1.6454 H         1 COA        -0.0393
     63 H133        1.0681    9.2399    0.0618 H         1 COA        -0.0393
     64 H141       -1.3855   11.0192   -2.1904 H         1 COA        -0.0393
     65 H142       -2.7797   10.0132   -1.7903 H         1 COA        -0.0393
     66 H143       -1.4280    9.3402   -2.7211 H         1 COA        -0.0393
     67 H10        -0.7524   10.3112    1.4665 H         1 COA        -0.0393
     68 HO1        -1.3767   12.1229   -0.6167 H         1 COA         0.2010
     69 HN8        -2.1931   11.2196    2.8537 H         1 COA         0.0865
     70 H71        -4.9972   10.5174    2.3529 H         1 COA        -0.0393
     71 H72        -4.2613   10.9576    3.8948 H         1 COA        -0.0393
     72 H61        -4.8275   12.9062    1.5874 H         1 COA        -0.0393
     73 H62        -4.0897   13.3476    3.1329 H         1 COA        -0.0393
     74 HN4        -5.9729   14.8369    2.5963 H         1 COA         0.0865
     75 H31        -8.1656   15.4665    2.8561 H         1 COA        -0.0393
     76 H32        -8.5877   13.8534    3.4464 H         1 COA        -0.0393
     77 H21        -7.4519   14.4534    5.6615 H         1 COA        -0.0393
     78 H22        -7.1078   16.0581    4.9945 H         1 COA        -0.0393
     79 HS1       -10.0611   14.6503    5.4136 H         1 COA         0.1718
@<TRIPOS>BOND
     1    1    2 ar
     2    1    6 ar
     3    2    3 ar
     4    2   49 1
     5    3    4 ar
     6    4    5 ar
     7    4   10 ar
     8    5    6 ar
     9    5    8 ar
    10    6    7 1
    11    7   50 1
    12    7   51 1
    13    8    9 ar
    14    9   10 ar
    15    9   52 1
    16   10   11 1
    17   11   12 1
    18   11   21 1
    19   11   53 1
    20   12   13 1
    21   12   14 1
    22   12   54 1
    23   14   15 1
    24   14   20 1
    25   14   55 1
    26   15   16 1
    27   16   17 2
    28   16   18 1
    29   16   19 1
    30   20   21 1
    31   20   22 1
    32   20   56 1
    33   22   23 1
    34   22   57 1
    35   22   58 1
    36   23   24 1
    37   24   25 2
    38   24   26 1
    39   24   27 1
    40   27   28 1
    41   28   29 2
    42   28   30 1
    43   28   31 1
    44   31   33 1
    45   32   33 1
    46   32   34 1
    47   32   35 1
    48   32   36 1
    49   33   59 1
    50   33   60 1
    51   34   61 1
    52   34   62 1
    53   34   63 1
    54   35   64 1
    55   35   65 1
    56   35   66 1
    57   36   37 1
    58   36   38 1
    59   36   67 1
    60   37   68 1
    61   38   39 2
    62   38   40 am
    63   40   41 1
    64   40   69 1
    65   41   42 1
    66   41   70 1
    67   41   71 1
    68   42   43 1
    69   42   72 1
    70   42   73 1
    71   43   44 2
    72   43   45 am
    73   45   46 1
    74   45   74 1
    75   46   47 1
    76   46   75 1
    77   46   76 1
    78   47   48 1
    79   47   77 1
    80   47   78 1
    81   48   79 1
@<TRIPOS>SUBSTRUCTURE
     1 COA         1 GROUP 0 A     ****
@<TRIPOS>MOLECULE
[5-(6-aminopurin-9-yl)-2-[[[[3-hydroxy-2,2-dimethyl-4-oxo-4-[[3-oxo-3-(2-sulfanylethylamino)propyl]amino]butoxy]-oxido-phosphoryl]oxy-oxido-phosphoryl]oxymethyl]-4-oxido-tetrahydrofuran-3-yl] phosphate
   79    81     1     0     0
SMALL
USER_CHARGES

@<TRIPOS>ATOM
      1 N1A        -3.9039    2.4517    1.8283 N.ar      1 COA        -0.5260
      2 C2A        -3.3295    3.2614    0.9063 C.ar      1 COA         0.6629
      3 N3A        -2.9870    2.9823   -0.3704 N.ar      1 COA        -0.5260
      4 C4A        -3.2951    1.7119   -0.6714 C.ar      1 COA         0.5212
      5 C5A        -3.8810    0.7714    0.1608 C.ar      1 COA         0.0088
      6 C6A        -4.1878    1.1807    1.4546 C.ar      1 COA         0.5212
      7 N6A        -4.7836    0.2924    2.3662 N.pl3     1 COA        -0.6025
      8 N7A        -4.0438   -0.4230   -0.4949 N.2       1 COA        -0.4271
      9 C8A        -3.5659   -0.2124   -1.7036 C.ar      1 COA         0.5691
     10 N9A        -3.1003    1.0663   -1.8591 N.pl3     1 COA        -0.5033
     11 C1B        -2.4828    1.6438   -3.1175 C.3       1 COA         0.2693
     12 C2B        -3.1527    2.8675   -3.7856 C.3       1 COA         0.2008
     13 O2B        -4.0894    2.4850   -4.6336 O.co2     1 COA        -0.1615
     14 C3B        -1.9491    3.4718   -4.5260 C.3       1 COA         0.1111
     15 O3B        -1.5961    2.7353   -5.7012 O.3       1 COA         0.1618
     16 P3B        -0.6948    3.4882   -6.8546 P.3       1 COA        -1.1921
     17 O7A        -1.5419    4.6766   -7.3000 O.co2     1 COA         0.3195
     18 O8A        -0.5270    2.4117   -7.9228 O.co2     1 COA         0.3195
     19 O9A         0.6037    3.8701   -6.1501 O.co2     1 COA         0.3195
     20 C4B        -0.8155    3.2705   -3.5257 C.3       1 COA         0.1111
     21 O4B        -1.1344    2.0698   -2.7962 O.3       1 COA        -0.1436
     22 C5B        -0.6774    4.4099   -2.5246 C.3       1 COA         0.1504
     23 O5B         0.3986    4.1249   -1.6460 O.3       1 COA         0.1618
     24 P1A         0.7670    5.1936   -0.4641 P.3       1 COA        -1.1062
     25 O1A         1.1289    6.5260   -1.0837 O.co2     1 COA         0.3195
     26 O2A         1.6876    4.5161    0.5275 O.co2     1 COA         0.3195
     27 O3A        -0.6886    5.3125    0.2679 O.3       1 COA         0.4672
     28 P2A        -1.1429    6.2040    1.5594 P.3       1 COA        -1.1062
     29 O4A        -2.6377    6.0612    1.7476 O.co2     1 COA         0.3195
     30 O5A        -0.1888    5.9134    2.6974 O.co2     1 COA         0.3195
     31 O6A        -0.8065    7.6957    0.9792 O.3       1 COA         0.1618
     32 CBP        -1.0090    9.5771   -0.5793 C.3       1 COA         0.0000
     33 CCP        -1.4652    8.1470   -0.1994 C.3       1 COA         0.1504
     34 CDP         0.5182    9.5632   -0.8289 C.3       1 COA         0.1179
     35 CEP        -1.6888   10.0085   -1.8940 C.3       1 COA         0.1179
     36 CAP        -1.3149   10.5877    0.5658 C.3       1 COA         0.0611
     37 OAP        -0.3519   11.6382    0.5524 O.3       1 COA        -0.2728
     38 C9P        -2.6876   11.2507    0.4734 C.2       1 COA         0.3561
     39 O9P        -2.8806   12.2731   -0.1822 O.2       1 COA        -0.2391
     40 N8P        -3.6636   10.5632    1.1768 N.am      1 COA        -0.1909
     41 C7P        -5.0458   10.9816    1.2180 C.3       1 COA         0.1160
     42 C6P        -5.8119   10.3347    0.0732 C.3       1 COA         0.0286
     43 C5P        -7.2766   10.7336    0.0579 C.2       1 COA         0.3561
     44 O5P        -7.7751   11.4930    0.8842 O.2       1 COA        -0.2391
     45 N4P        -7.9575   10.1345   -0.9917 N.am      1 COA        -0.1909
     46 C3P        -9.3662   10.3429   -1.2357 C.3       1 COA         0.1160
     47 C2P        -9.6436   10.9488   -2.6018 C.3       1 COA         0.2607
     48 S1P        -8.8457   12.5694   -2.8129 S.3       1 COA        -0.3539
     49 H2A        -3.1164    4.2717    1.2395 H         1 COA        -0.1369
     50 H61A       -4.9530    0.5922    3.3076 H         1 COA         0.2048
     51 H62A       -4.9456   -0.6585    2.0932 H         1 COA         0.2048
     52 H8A        -3.5298   -0.9412   -2.5018 H         1 COA        -0.1292
     53 H1B        -2.3698    0.7525   -3.8030 H         1 COA        -0.0393
     54 H2B        -3.4073    3.5789   -2.9846 H         1 COA        -0.0393
     55 H3B        -2.0891    4.5191   -4.8158 H         1 COA        -0.0393
     56 H4B         0.1478    3.1100   -4.0235 H         1 COA        -0.0393
     57 H51A       -1.5937    4.5171   -1.9365 H         1 COA        -0.0393
     58 H52A       -0.4707    5.3519   -3.0411 H         1 COA        -0.0393
     59 H121       -1.2324    7.4355   -0.9984 H         1 COA        -0.0393
     60 H122       -2.5440    8.1138   -0.0133 H         1 COA        -0.0393
     61 H131        0.8796   10.5616   -1.1013 H         1 COA        -0.0393
     62 H132        0.7886    8.8842   -1.6454 H         1 COA        -0.0393
     63 H133        1.0681    9.2399    0.0618 H         1 COA        -0.0393
     64 H141       -1.3855   11.0192   -2.1904 H         1 COA        -0.0393
     65 H142       -2.7797   10.0132   -1.7903 H         1 COA        -0.0393
     66 H143       -1.4280    9.3402   -2.7211 H         1 COA        -0.0393
     67 H10        -1.2314   10.0854    1.5378 H         1 COA        -0.0393
     68 HO1        -0.4241   12.0681   -0.3139 H         1 COA         0.2010
     69 HN8        -3.4169    9.7096    1.6684 H         1 COA         0.0865
     70 H71        -5.4791   10.6972    2.1821 H         1 COA        -0.0393
     71 H72        -5.0936   12.0728    1.1469 H         1 COA        -0.0393
     72 H61        -5.7524    9.2419    0.1503 H         1 COA        -0.0393
     73 H62        -5.3658   10.6206   -0.8876 H         1 COA        -0.0393
     74 HN4        -7.4425    9.5215   -1.6169 H         1 COA         0.0865
     75 H31        -9.8363    9.3584   -1.1674 H         1 COA        -0.0393
     76 H32        -9.7551   10.9604   -0.4220 H         1 COA        -0.0393
     77 H21        -9.2996   10.2861   -3.4025 H         1 COA        -0.0393
     78 H22       -10.7220   11.0927   -2.7210 H         1 COA        -0.0393
     79 HS1        -9.4748   13.1675   -1.7926 H         1 COA         0.1718
@<TRIPOS>BOND
     1    1    2 ar
     2    1    6 ar
     3    2    3 ar
     4    2   49 1
     5    3    4 ar
     6    4    5 ar
     7    4   10 ar
     8    5    6 ar
     9    5    8 ar
    10    6    7 1
    11    7   50 1
    12    7   51 1
    13    8    9 ar
    14    9   10 ar
    15    9   52 1
    16   10   11 1
    17   11   12 1
    18   11   21 1
    19   11   53 1
    20   12   13 1
    21   12   14 1
    22   12   54 1
    23   14   15 1
    24   14   20 1
    25   14   55 1
    26   15   16 1
    27   16   17 2
    28   16   18 1
    29   16   19 1
    30   20   21 1
    31   20   22 1
    32   20   56 1
    33   22   23 1
    34   22   57 1
    35   22   58 1
    36   23   24 1
    37   24   25 2
    38   24   26 1
    39   24   27 1
    40   27   28 1
    41   28   29 2
    42   28   30 1
    43   28   31 1
    44   31   33 1
    45   32   33 1
    46   32   34 1
    47   32   35 1
    48   32   36 1
    49   33   59 1
    50   33   60 1
    51   34   61 1
    52   34   62 1
    53   34   63 1
    54   35   64 1
    55   35   65 1
    56   35   66 1
    57   36   37 1
    58   36   38 1
    59   36   67 1
    60   37   68 1
    61   38   39 2
    62   38   40 am
    63   40   41 1
    64   40   69 1
    65   41   42 1
    66   41   70 1
    67   41   71 1
    68   42   43 1
    69   42   72 1
    70   42   73 1
    71   43   44 2
    72   43   45 am
    73   45   46 1
    74   45   74 1
    75   46   47 1
    76   46   75 1
    77   46   76 1
    78   47   48 1
    79   47   77 1
    80   47   78 1
    81   48   79 1
@<TRIPOS>SUBSTRUCTURE
     1 COA         1 GROUP 0 A     ****
@<TRIPOS>MOLECULE
[5-(6-aminopurin-9-yl)-2-[[[[3-hydroxy-2,2-dimethyl-4-oxo-4-[[3-oxo-3-(2-sulfanylethylamino)propyl]amino]butoxy]-oxido-phosphoryl]oxy-oxido-phosphoryl]oxymethyl]-4-oxido-tetrahydrofuran-3-yl] phosphate
   79    81     1     0     0
SMALL
USER_CHARGES

@<TRIPOS>ATOM
      1 N1A        -3.9039    2.4517    1.8283 N.ar      1 COA        -0.5260
      2 C2A        -3.3295    3.2614    0.9063 C.ar      1 COA         0.6629
      3 N3A        -2.9870    2.9823   -0.3704 N.ar      1 COA        -0.5260
      4 C4A        -3.2951    1.7119   -0.6714 C.ar      1 COA         0.5212
      5 C5A        -3.8810    0.7714    0.1608 C.ar      1 COA         0.0088
      6 C6A        -4.1878    1.1807    1.4546 C.ar      1 COA         0.5212
      7 N6A        -4.7836    0.2924    2.3662 N.pl3     1 COA        -0.6025
      8 N7A        -4.0438   -0.4230   -0.4949 N.2       1 COA        -0.4271
      9 C8A        -3.5659   -0.2124   -1.7036 C.ar      1 COA         0.5691
     10 N9A        -3.1003    1.0663   -1.8591 N.pl3     1 COA        -0.5033
     11 C1B        -2.4828    1.6438   -3.1175 C.3       1 COA         0.2693
     12 C2B        -3.1527    2.8675   -3.7856 C.3       1 COA         0.2008
     13 O2B        -4.0894    2.4850   -4.6336 O.co2     1 COA        -0.1615
     14 C3B        -1.9491    3.4718   -4.5260 C.3       1 COA         0.1111
     15 O3B        -1.5961    2.7353   -5.7012 O.3       1 COA         0.1618
     16 P3B        -0.6948    3.4882   -6.8546 P.3       1 COA        -1.1921
     17 O7A        -1.5419    4.6766   -7.3000 O.co2     1 COA         0.3195
     18 O8A        -0.5270    2.4117   -7.9228 O.co2     1 COA         0.3195
     19 O9A         0.6037    3.8701   -6.1501 O.co2     1 COA         0.3195
     20 C4B        -0.8155    3.2705   -3.5257 C.3       1 COA         0.1111
     21 O4B        -1.1344    2.0698   -2.7962 O.3       1 COA        -0.1436
     22 C5B        -0.6774    4.4099   -2.5246 C.3       1 COA         0.1504
     23 O5B         0.3986    4.1249   -1.6460 O.3       1 COA         0.1618
     24 P1A         0.7670    5.1936   -0.4641 P.3       1 COA        -1.1062
     25 O1A         1.1289    6.5260   -1.0837 O.co2     1 COA         0.3195
     26 O2A         1.6876    4.5161    0.5275 O.co2     1 COA         0.3195
     27 O3A        -0.6886    5.3125    0.2679 O.3       1 COA         0.4672
     28 P2A        -1.1429    6.2040    1.5594 P.3       1 COA        -1.1062
     29 O4A        -2.6377    6.0612    1.7476 O.co2     1 COA         0.3195
     30 O5A        -0.1888    5.9134    2.6974 O.co2     1 COA         0.3195
     31 O6A        -0.8065    7.6957    0.9792 O.3       1 COA         0.1618
     32 CBP        -1.0090    9.5771   -0.5793 C.3       1 COA         0.0000
     33 CCP        -1.4652    8.1470   -0.1994 C.3       1 COA         0.1504
     34 CDP         0.5182    9.5632   -0.8289 C.3       1 COA         0.1179
     35 CEP        -1.6888   10.0085   -1.8940 C.3       1 COA         0.1179
     36 CAP        -1.3149   10.5877    0.5658 C.3       1 COA         0.0611
     37 OAP        -0.8841   11.8921    0.1862 O.3       1 COA        -0.2728
     38 C9P        -2.7940   10.7032    0.9282 C.2       1 COA         0.3561
     39 O9P        -3.6891   10.4664    0.1190 O.2       1 COA        -0.2391
     40 N8P        -2.9952   11.0709    2.2489 N.am      1 COA        -0.1909
     41 C7P        -4.3082   11.2196    2.8331 C.3       1 COA         0.1160
     42 C6P        -4.7902   12.6519    2.6541 C.3       1 COA         0.0286
     43 C5P        -3.8690   13.6602    3.3171 C.2       1 COA         0.3561
     44 O5P        -3.2066   13.4077    4.3198 O.2       1 COA        -0.2391
     45 N4P        -3.8807   14.8769    2.6511 N.am      1 COA        -0.1909
     46 C3P        -3.0939   16.0124    3.0743 C.3       1 COA         0.1160
     47 C2P        -1.7139   16.0423    2.4379 C.3       1 COA         0.2607
     48 S1P        -0.7350   17.4762    2.9795 S.3       1 COA        -0.3539
     49 H2A        -3.1164    4.2717    1.2395 H         1 COA        -0.1369
     50 H61A       -4.9530    0.5922    3.3076 H         1 COA         0.2048
     51 H62A       -4.9456   -0.6585    2.0932 H         1 COA         0.2048
     52 H8A        -3.5298   -0.9412   -2.5018 H         1 COA        -0.1292
     53 H1B        -2.3698    0.7525   -3.8030 H         1 COA        -0.0393
     54 H2B        -3.4073    3.5789   -2.9846 H         1 COA        -0.0393
     55 H3B        -2.0891    4.5191   -4.8158 H         1 COA        -0.0393
     56 H4B         0.1478    3.1100   -4.0235 H         1 COA        -0.0393
     57 H51A       -1.5937    4.5171   -1.9365 H         1 COA        -0.0393
     58 H52A       -0.4707    5.3519   -3.0411 H         1 COA        -0.0393
     59 H121       -1.2324    7.4355   -0.9984 H         1 COA        -0.0393
     60 H122       -2.5440    8.1138   -0.0133 H         1 COA        -0.0393
     61 H131        0.8796   10.5616   -1.1013 H         1 COA        -0.0393
     62 H132        0.7886    8.8842   -1.6454 H         1 COA        -0.0393
     63 H133        1.0681    9.2399    0.0618 H         1 COA        -0.0393
     64 H141       -1.3855   11.0192   -2.1904 H         1 COA        -0.0393
     65 H142       -2.7797   10.0132   -1.7903 H         1 COA        -0.0393
     66 H143       -1.4280    9.3402   -2.7211 H         1 COA        -0.0393
     67 H10        -0.7524   10.3112    1.4665 H         1 COA        -0.0393
     68 HO1        -1.3767   12.1229   -0.6167 H         1 COA         0.2010
     69 HN8        -2.1931   11.2196    2.8537 H         1 COA         0.0865
     70 H71        -4.9972   10.5174    2.3529 H         1 COA        -0.0393
     71 H72        -4.2613   10.9576    3.8948 H         1 COA        -0.0393
     72 H61        -5.7939   12.7678    3.0816 H         1 COA        -0.0393
     73 H62        -4.8581   12.8958    1.5864 H         1 COA        -0.0393
     74 HN4        -4.4690   14.9740    1.8286 H         1 COA         0.0865
     75 H31        -3.6561   16.9011    2.7759 H         1 COA        -0.0393
     76 H32        -3.0461   15.9933    4.1661 H         1 COA        -0.0393
     77 H21        -1.1534   15.1315    2.6723 H         1 COA        -0.0393
     78 H22        -1.8189   16.1050    1.3503 H         1 COA        -0.0393
     79 HS1        -0.7481   17.1684    4.2831 H         1 COA         0.1718
@<TRIPOS>BOND
     1    1    2 ar
     2    1    6 ar
     3    2    3 ar
     4    2   49 1
     5    3    4 ar
     6    4    5 ar
     7    4   10 ar
     8    5    6 ar
     9    5    8 ar
    10    6    7 1
    11    7   50 1
    12    7   51 1
    13    8    9 ar
    14    9   10 ar
    15    9   52 1
    16   10   11 1
    17   11   12 1
    18   11   21 1
    19   11   53 1
    20   12   13 1
    21   12   14 1
    22   12   54 1
    23   14   15 1
    24   14   20 1
    25   14   55 1
    26   15   16 1
    27   16   17 2
    28   16   18 1
    29   16   19 1
    30   20   21 1
    31   20   22 1
    32   20   56 1
    33   22   23 1
    34   22   57 1
    35   22   58 1
    36   23   24 1
    37   24   25 2
    38   24   26 1
    39   24   27 1
    40   27   28 1
    41   28   29 2
    42   28   30 1
    43   28   31 1
    44   31   33 1
    45   32   33 1
    46   32   34 1
    47   32   35 1
    48   32   36 1
    49   33   59 1
    50   33   60 1
    51   34   61 1
    52   34   62 1
    53   34   63 1
    54   35   64 1
    55   35   65 1
    56   35   66 1
    57   36   37 1
    58   36   38 1
    59   36   67 1
    60   37   68 1
    61   38   39 2
    62   38   40 am
    63   40   41 1
    64   40   69 1
    65   41   42 1
    66   41   70 1
    67   41   71 1
    68   42   43 1
    69   42   72 1
    70   42   73 1
    71   43   44 2
    72   43   45 am
    73   45   46 1
    74   45   74 1
    75   46   47 1
    76   46   75 1
    77   46   76 1
    78   47   48 1
    79   47   77 1
    80   47   78 1
    81   48   79 1
@<TRIPOS>SUBSTRUCTURE
     1 COA         1 GROUP 0 A     ****
@<TRIPOS>MOLECULE
[5-(6-aminopurin-9-yl)-2-[[[[3-hydroxy-2,2-dimethyl-4-oxo-4-[[3-oxo-3-(2-sulfanylethylamino)propyl]amino]butoxy]-oxido-phosphoryl]oxy-oxido-phosphoryl]oxymethyl]-4-oxido-tetrahydrofuran-3-yl] phosphate
   79    81     1     0     0
SMALL
USER_CHARGES

@<TRIPOS>ATOM
      1 N1A        -3.9039    2.4517    1.8283 N.ar      1 COA        -0.5260
      2 C2A        -3.3295    3.2614    0.9063 C.ar      1 COA         0.6629
      3 N3A        -2.9870    2.9823   -0.3704 N.ar      1 COA        -0.5260
      4 C4A        -3.2951    1.7119   -0.6714 C.ar      1 COA         0.5212
      5 C5A        -3.8810    0.7714    0.1608 C.ar      1 COA         0.0088
      6 C6A        -4.1878    1.1807    1.4546 C.ar      1 COA         0.5212
      7 N6A        -4.7836    0.2924    2.3662 N.pl3     1 COA        -0.6025
      8 N7A        -4.0438   -0.4230   -0.4949 N.2       1 COA        -0.4271
      9 C8A        -3.5659   -0.2124   -1.7036 C.ar      1 COA         0.5691
     10 N9A        -3.1003    1.0663   -1.8591 N.pl3     1 COA        -0.5033
     11 C1B        -2.4828    1.6438   -3.1175 C.3       1 COA         0.2693
     12 C2B        -3.1527    2.8675   -3.7856 C.3       1 COA         0.2008
     13 O2B        -4.0894    2.4850   -4.6336 O.co2     1 COA        -0.1615
     14 C3B        -1.9491    3.4718   -4.5260 C.3       1 COA         0.1111
     15 O3B        -1.5961    2.7353   -5.7012 O.3       1 COA         0.1618
     16 P3B        -0.6948    3.4882   -6.8546 P.3       1 COA        -1.1921
     17 O7A        -1.5419    4.6766   -7.3000 O.co2     1 COA         0.3195
     18 O8A        -0.5270    2.4117   -7.9228 O.co2     1 COA         0.3195
     19 O9A         0.6037    3.8701   -6.1501 O.co2     1 COA         0.3195
     20 C4B        -0.8155    3.2705   -3.5257 C.3       1 COA         0.1111
     21 O4B        -1.1344    2.0698   -2.7962 O.3       1 COA        -0.1436
     22 C5B        -0.6774    4.4099   -2.5246 C.3       1 COA         0.1504
     23 O5B         0.3986    4.1249   -1.6460 O.3       1 COA         0.1618
     24 P1A         0.7670    5.1936   -0.4641 P.3       1 COA        -1.1062
     25 O1A         1.1289    6.5260   -1.0837 O.co2     1 COA         0.3195
     26 O2A         1.6876    4.5161    0.5275 O.co2     1 COA         0.3195
     27 O3A        -0.6886    5.3125    0.2679 O.3       1 COA         0.4672
     28 P2A        -1.1429    6.2040    1.5594 P.3       1 COA        -1.1062
     29 O4A        -2.6377    6.0612    1.7476 O.co2     1 COA         0.3195
     30 O5A        -0.1888    5.9134    2.6974 O.co2     1 COA         0.3195
     31 O6A        -0.8065    7.6957    0.9792 O.3       1 COA         0.1618
     32 CBP        -1.0090    9.5771   -0.5793 C.3       1 COA         0.0000
     33 CCP        -1.4652    8.1470   -0.1994 C.3       1 COA         0.1504
     34 CDP         0.5182    9.5632   -0.8289 C.3       1 COA         0.1179
     35 CEP        -1.6888   10.0085   -1.8940 C.3       1 COA         0.1179
     36 CAP        -1.3149   10.5877    0.5658 C.3       1 COA         0.0611
     37 OAP        -0.3519   11.6382    0.5524 O.3       1 COA        -0.2728
     38 C9P        -2.6876   11.2507    0.4734 C.2       1 COA         0.3561
     39 O9P        -2.8806   12.2731   -0.1822 O.2       1 COA        -0.2391
     40 N8P        -3.6636   10.5632    1.1768 N.am      1 COA        -0.1909
     41 C7P        -5.0458   10.9816    1.2180 C.3       1 COA         0.1160
     42 C6P        -5.4548   11.2604    2.6570 C.3       1 COA         0.0286
     43 C5P        -6.9015   11.7061    2.7721 C.2       1 COA         0.3561
     44 O5P        -7.6470   11.8258    1.8037 O.2       1 COA        -0.2391
     45 N4P        -7.2551   11.9553    4.0901 N.am      1 COA        -0.1909
     46 C3P        -8.5750   12.3950    4.4801 C.3       1 COA         0.1160
     47 C2P        -9.5146   11.2394    4.7835 C.3       1 COA         0.2607
     48 S1P       -11.1716   11.8075    5.2728 S.3       1 COA        -0.3539
     49 H2A        -3.1164    4.2717    1.2395 H         1 COA        -0.1369
     50 H61A       -4.9530    0.5922    3.3076 H         1 COA         0.2048
     51 H62A       -4.9456   -0.6585    2.0932 H         1 COA         0.2048
     52 H8A        -3.5298   -0.9412   -2.5018 H         1 COA        -0.1292
     53 H1B        -2.3698    0.7525   -3.8030 H         1 COA        -0.0393
     54 H2B        -3.4073    3.5789   -2.9846 H         1 COA        -0.0393
     55 H3B        -2.0891    4.5191   -4.8158 H         1 COA        -0.0393
     56 H4B         0.1478    3.1100   -4.0235 H         1 COA        -0.0393
     57 H51A       -1.5937    4.5171   -1.9365 H         1 COA        -0.0393
     58 H52A       -0.4707    5.3519   -3.0411 H         1 COA        -0.0393
     59 H121       -1.2324    7.4355   -0.9984 H         1 COA        -0.0393
     60 H122       -2.5440    8.1138   -0.0133 H         1 COA        -0.0393
     61 H131        0.8796   10.5616   -1.1013 H         1 COA        -0.0393
     62 H132        0.7886    8.8842   -1.6454 H         1 COA        -0.0393
     63 H133        1.0681    9.2399    0.0618 H         1 COA        -0.0393
     64 H141       -1.3855   11.0192   -2.1904 H         1 COA        -0.0393
     65 H142       -2.7797   10.0132   -1.7903 H         1 COA        -0.0393
     66 H143       -1.4280    9.3402   -2.7211 H         1 COA        -0.0393
     67 H10        -1.2314   10.0854    1.5378 H         1 COA        -0.0393
     68 HO1        -0.4241   12.0681   -0.3139 H         1 COA         0.2010
     69 HN8        -3.4169    9.7096    1.6684 H         1 COA         0.0865
     70 H71        -5.1691   11.8772    0.6009 H         1 COA        -0.0393
     71 H72        -5.6724   10.1962    0.7836 H         1 COA        -0.0393
     72 H61        -4.8170   12.0440    3.0847 H         1 COA        -0.0393
     73 H62        -5.3212   10.3589    3.2680 H         1 COA        -0.0393
     74 HN4        -6.5546   11.8226    4.8136 H         1 COA         0.0865
     75 H31        -8.4403   13.0050    5.3772 H         1 COA        -0.0393
     76 H32        -8.9565   13.0415    3.6858 H         1 COA        -0.0393
     77 H21        -9.6168   10.5784    3.9168 H         1 COA        -0.0393
     78 H22        -9.1082   10.6513    5.6121 H         1 COA        -0.0393
     79 HS1       -11.4345   12.4642    4.1353 H         1 COA         0.1718
@<TRIPOS>BOND
     1    1    2 ar
     2    1    6 ar
     3    2    3 ar
     4    2   49 1
     5    3    4 ar
     6    4    5 ar
     7    4   10 ar
     8    5    6 ar
     9    5    8 ar
    10    6    7 1
    11    7   50 1
    12    7   51 1
    13    8    9 ar
    14    9   10 ar
    15    9   52 1
    16   10   11 1
    17   11   12 1
    18   11   21 1
    19   11   53 1
    20   12   13 1
    21   12   14 1
    22   12   54 1
    23   14   15 1
    24   14   20 1
    25   14   55 1
    26   15   16 1
    27   16   17 2
    28   16   18 1
    29   16   19 1
    30   20   21 1
    31   20   22 1
    32   20   56 1
    33   22   23 1
    34   22   57 1
    35   22   58 1
    36   23   24 1
    37   24   25 2
    38   24   26 1
    39   24   27 1
    40   27   28 1
    41   28   29 2
    42   28   30 1
    43   28   31 1
    44   31   33 1
    45   32   33 1
    46   32   34 1
    47   32   35 1
    48   32   36 1
    49   33   59 1
    50   33   60 1
    51   34   61 1
    52   34   62 1
    53   34   63 1
    54   35   64 1
    55   35   65 1
    56   35   66 1
    57   36   37 1
    58   36   38 1
    59   36   67 1
    60   37   68 1
    61   38   39 2
    62   38   40 am
    63   40   41 1
    64   40   69 1
    65   41   42 1
    66   41   70 1
    67   41   71 1
    68   42   43 1
    69   42   72 1
    70   42   73 1
    71   43   44 2
    72   43   45 am
    73   45   46 1
    74   45   74 1
    75   46   47 1
    76   46   75 1
    77   46   76 1
    78   47   48 1
    79   47   77 1
    80   47   78 1
    81   48   79 1
@<TRIPOS>SUBSTRUCTURE
     1 COA         1 GROUP 0 A     ****
@<TRIPOS>MOLECULE
[5-(6-aminopurin-9-yl)-2-[[[[3-hydroxy-2,2-dimethyl-4-oxo-4-[[3-oxo-3-(2-sulfanylethylamino)propyl]amino]butoxy]-oxido-phosphoryl]oxy-oxido-phosphoryl]oxymethyl]-4-oxido-tetrahydrofuran-3-yl] phosphate
   79    81     1     0     0
SMALL
USER_CHARGES

@<TRIPOS>ATOM
      1 N1A         4.6908    0.9263    0.5284 N.ar      1 COA        -0.5260
      2 C2A         3.4193    1.3931    0.4919 C.ar      1 COA         0.6629
      3 N3A         2.4653    1.1803   -0.4405 N.ar      1 COA        -0.5260
      4 C4A         2.9338    0.3916   -1.4192 C.ar      1 COA         0.5212
      5 C5A         4.2020   -0.1580   -1.5185 C.ar      1 COA         0.0088
      6 C6A         5.0963    0.1348   -0.4937 C.ar      1 COA         0.5212
      7 N6A         6.4038   -0.3801   -0.5131 N.pl3     1 COA        -0.6025
      8 N7A         4.3170   -0.9111   -2.6598 N.2       1 COA        -0.4271
      9 C8A         3.1403   -0.8212   -3.2436 C.ar      1 COA         0.5691
     10 N9A         2.2683   -0.0422   -2.5302 N.pl3     1 COA        -0.5033
     11 C1B         0.8363    0.2748   -2.9142 C.3       1 COA         0.2693
     12 C2B        -0.3043   -0.1391   -1.9549 C.3       1 COA         0.2008
     13 O2B        -0.6991   -1.3747   -2.2004 O.co2     1 COA        -0.1615
     14 C3B        -1.3853    0.8773   -2.3558 C.3       1 COA         0.1111
     15 O3B        -2.0094    0.5576   -3.6033 O.3       1 COA         0.1618
     16 P3B        -3.4806    1.2180   -3.9334 P.3       1 COA        -1.1921
     17 O7A        -4.3962    0.7100   -2.8235 O.co2     1 COA         0.3195
     18 O8A        -3.8112    0.6588   -5.3140 O.co2     1 COA         0.3195
     19 O9A        -3.2466    2.7257   -3.9151 O.co2     1 COA         0.3195
     20 C4B        -0.5713    2.1464   -2.5855 C.3       1 COA         0.1111
     21 O4B         0.7211    1.7136   -3.0526 O.3       1 COA        -0.1436
     22 C5B        -0.3655    2.9745   -1.3239 C.3       1 COA         0.1504
     23 O5B         0.3986    4.1249   -1.6460 O.3       1 COA         0.1618
     24 P1A         0.7670    5.1936   -0.4641 P.3       1 COA        -1.1062
     25 O1A         1.1289    6.5260   -1.0837 O.co2     1 COA         0.3195
     26 O2A         1.6876    4.5161    0.5275 O.co2     1 COA         0.3195
     27 O3A        -0.6886    5.3125    0.2679 O.3       1 COA         0.4672
     28 P2A        -1.1429    6.2040    1.5594 P.3       1 COA        -1.1062
     29 O4A        -2.6377    6.0612    1.7476 O.co2     1 COA         0.3195
     30 O5A        -0.1888    5.9134    2.6974 O.co2     1 COA         0.3195
     31 O6A        -0.8065    7.6957    0.9792 O.3       1 COA         0.1618
     32 CBP        -1.0090    9.5771   -0.5793 C.3       1 COA         0.0000
     33 CCP        -1.4652    8.1470   -0.1994 C.3       1 COA         0.1504
     34 CDP         0.5182    9.5632   -0.8289 C.3       1 COA         0.1179
     35 CEP        -1.6888   10.0085   -1.8940 C.3       1 COA         0.1179
     36 CAP        -1.3149   10.5877    0.5658 C.3       1 COA         0.0611
     37 OAP        -0.8841   11.8921    0.1862 O.3       1 COA        -0.2728
     38 C9P        -2.7940   10.7032    0.9282 C.2       1 COA         0.3561
     39 O9P        -3.4252   11.7490    0.7870 O.2       1 COA        -0.2391
     40 N8P        -3.3259    9.5125    1.3963 N.am      1 COA        -0.1909
     41 C7P        -4.7115    9.3659    1.7784 C.3       1 COA         0.1160
     42 C6P        -4.8739    9.6939    3.2555 C.3       1 COA         0.0286
     43 C5P        -4.0470    8.7833    4.1454 C.2       1 COA         0.3561
     44 O5P        -3.7734    7.6231    3.8507 O.2       1 COA        -0.2391
     45 N4P        -3.6549    9.4270    5.3099 N.am      1 COA        -0.1909
     46 C3P        -2.8599    8.7868    6.3325 C.3       1 COA         0.1160
     47 C2P        -1.3662    8.9633    6.1133 C.3       1 COA         0.2607
     48 S1P        -0.3783    8.1527    7.4074 S.3       1 COA        -0.3539
     49 H2A         3.1287    2.0232    1.3259 H         1 COA        -0.1369
     50 H61A        7.0472   -0.1189    0.2098 H         1 COA         0.2048
     51 H62A        6.7069   -0.9256   -1.2976 H         1 COA         0.2048
     52 H8A         2.8628   -1.2932   -4.1762 H         1 COA        -0.1292
     53 H1B         0.7316   -0.1451   -3.9582 H         1 COA        -0.0393
     54 H2B         0.0098    0.1350   -0.9357 H         1 COA        -0.0393
     55 H3B        -2.1756    1.0002   -1.6070 H         1 COA        -0.0393
     56 H4B        -1.0101    2.7804   -3.3646 H         1 COA        -0.0393
     57 H51A        0.1721    2.3946   -0.5677 H         1 COA        -0.0393
     58 H52A       -1.3279    3.2941   -0.9132 H         1 COA        -0.0393
     59 H121       -1.2324    7.4355   -0.9984 H         1 COA        -0.0393
     60 H122       -2.5440    8.1138   -0.0133 H         1 COA        -0.0393
     61 H131        0.8796   10.5616   -1.1013 H         1 COA        -0.0393
     62 H132        0.7886    8.8842   -1.6454 H         1 COA        -0.0393
     63 H133        1.0681    9.2399    0.0618 H         1 COA        -0.0393
     64 H141       -1.3855   11.0192   -2.1904 H         1 COA        -0.0393
     65 H142       -2.7797   10.0132   -1.7903 H         1 COA        -0.0393
     66 H143       -1.4280    9.3402   -2.7211 H         1 COA        -0.0393
     67 H10        -0.7524   10.3112    1.4665 H         1 COA        -0.0393
     68 HO1        -1.3767   12.1229   -0.6167 H         1 COA         0.2010
     69 HN8        -2.7340    8.6894    1.4534 H         1 COA         0.0865
     70 H71        -5.3262   10.0323    1.1649 H         1 COA        -0.0393
     71 H72        -5.0349    8.3406    1.5725 H         1 COA        -0.0393
     72 H61        -5.9269    9.5999    3.5486 H         1 COA        -0.0393
     73 H62        -4.5714   10.7313    3.4464 H         1 COA        -0.0393
     74 HN4        -3.9395   10.3920    5.4500 H         1 COA         0.0865
     75 H31        -3.1503    9.2502    7.2790 H         1 COA        -0.0393
     76 H32        -3.1518    7.7342    6.3678 H         1 COA        -0.0393
     77 H21        -1.0616    8.5612    5.1417 H         1 COA        -0.0393
     78 H22        -1.1222   10.0301    6.1301 H         1 COA        -0.0393
     79 HS1        -0.8393    6.9158    7.1792 H         1 COA         0.1718
@<TRIPOS>BOND
     1    1    2 ar
     2    1    6 ar
     3    2    3 ar
     4    2   49 1
     5    3    4 ar
     6    4    5 ar
     7    4   10 ar
     8    5    6 ar
     9    5    8 ar
    10    6    7 1
    11    7   50 1
    12    7   51 1
    13    8    9 ar
    14    9   10 ar
    15    9   52 1
    16   10   11 1
    17   11   12 1
    18   11   21 1
    19   11   53 1
    20   12   13 1
    21   12   14 1
    22   12   54 1
    23   14   15 1
    24   14   20 1
    25   14   55 1
    26   15   16 1
    27   16   17 2
    28   16   18 1
    29   16   19 1
    30   20   21 1
    31   20   22 1
    32   20   56 1
    33   22   23 1
    34   22   57 1
    35   22   58 1
    36   23   24 1
    37   24   25 2
    38   24   26 1
    39   24   27 1
    40   27   28 1
    41   28   29 2
    42   28   30 1
    43   28   31 1
    44   31   33 1
    45   32   33 1
    46   32   34 1
    47   32   35 1
    48   32   36 1
    49   33   59 1
    50   33   60 1
    51   34   61 1
    52   34   62 1
    53   34   63 1
    54   35   64 1
    55   35   65 1
    56   35   66 1
    57   36   37 1
    58   36   38 1
    59   36   67 1
    60   37   68 1
    61   38   39 2
    62   38   40 am
    63   40   41 1
    64   40   69 1
    65   41   42 1
    66   41   70 1
    67   41   71 1
    68   42   43 1
    69   42   72 1
    70   42   73 1
    71   43   44 2
    72   43   45 am
    73   45   46 1
    74   45   74 1
    75   46   47 1
    76   46   75 1
    77   46   76 1
    78   47   48 1
    79   47   77 1
    80   47   78 1
    81   48   79 1
@<TRIPOS>SUBSTRUCTURE
     1 COA         1 GROUP 0 A     ****
@<TRIPOS>MOLECULE
[5-(6-aminopurin-9-yl)-2-[[[[3-hydroxy-2,2-dimethyl-4-oxo-4-[[3-oxo-3-(2-sulfanylethylamino)propyl]amino]butoxy]-oxido-phosphoryl]oxy-oxido-phosphoryl]oxymethyl]-4-oxido-tetrahydrofuran-3-yl] phosphate
   79    81     1     0     0
SMALL
USER_CHARGES

@<TRIPOS>ATOM
      1 N1A         5.7146    2.0302   -0.7890 N.ar      1 COA        -0.5260
      2 C2A         4.3962    2.1571   -0.5034 C.ar      1 COA         0.6629
      3 N3A         3.3299    1.7526   -1.2276 N.ar      1 COA        -0.5260
      4 C4A         3.7311    1.1587   -2.3614 C.ar      1 COA         0.5212
      5 C5A         5.0346    0.9576   -2.7868 C.ar      1 COA         0.0088
      6 C6A         6.0470    1.4195   -1.9517 C.ar      1 COA         0.5212
      7 N6A         7.3978    1.2581   -2.3043 N.pl3     1 COA        -0.6025
      8 N7A         5.0562    0.3154   -3.9993 N.2       1 COA        -0.4271
      9 C8A         3.7892    0.1293   -4.3054 C.ar      1 COA         0.5691
     10 N9A         2.9479    0.6234   -3.3440 N.pl3     1 COA        -0.5033
     11 C1B         1.4328    0.5815   -3.3775 C.3       1 COA         0.2693
     12 C2B         0.6799   -0.1567   -2.2458 C.3       1 COA         0.2008
     13 O2B         0.5449   -1.4388   -2.5302 O.co2     1 COA        -0.1615
     14 C3B        -0.6749    0.5672   -2.2968 C.3       1 COA         0.1111
     15 O3B        -1.4782    0.1594   -3.4088 O.3       1 COA         0.1618
     16 P3B        -3.0996    0.4363   -3.3454 P.3       1 COA        -1.1921
     17 O7A        -3.5828   -0.3425   -2.1254 O.co2     1 COA         0.3195
     18 O8A        -3.6001   -0.1211   -4.6746 O.co2     1 COA         0.3195
     19 O9A        -3.2339    1.9510   -3.2185 O.co2     1 COA         0.3195
     20 C4B        -0.2635    2.0121   -2.5599 C.3       1 COA         0.1111
     21 O4B         0.9490    1.9478   -3.3354 O.3       1 COA        -0.1436
     22 C5B         0.0275    2.8029   -1.2913 C.3       1 COA         0.1504
     23 O5B         0.3986    4.1249   -1.6460 O.3       1 COA         0.1618
     24 P1A         0.7670    5.1936   -0.4641 P.3       1 COA        -1.1062
     25 O1A         1.1289    6.5260   -1.0837 O.co2     1 COA         0.3195
     26 O2A         1.6876    4.5161    0.5275 O.co2     1 COA         0.3195
     27 O3A        -0.6886    5.3125    0.2679 O.3       1 COA         0.4672
     28 P2A        -1.1429    6.2040    1.5594 P.3       1 COA        -1.1062
     29 O4A        -2.6377    6.0612    1.7476 O.co2     1 COA         0.3195
     30 O5A        -0.1888    5.9134    2.6974 O.co2     1 COA         0.3195
     31 O6A        -0.8065    7.6957    0.9792 O.3       1 COA         0.1618
     32 CBP        -1.0090    9.5771   -0.5793 C.3       1 COA         0.0000
     33 CCP        -1.4652    8.1470   -0.1994 C.3       1 COA         0.1504
     34 CDP         0.5182    9.5632   -0.8289 C.3       1 COA         0.1179
     35 CEP        -1.6888   10.0085   -1.8940 C.3       1 COA         0.1179
     36 CAP        -1.3149   10.5877    0.5658 C.3       1 COA         0.0611
     37 OAP        -2.7163   10.6149    0.8239 O.3       1 COA        -0.2728
     38 C9P        -0.6314   10.2649    1.8928 C.2       1 COA         0.3561
     39 O9P         0.1432    9.3183    2.0197 O.2       1 COA        -0.2391
     40 N8P        -0.9621   11.1596    2.8978 N.am      1 COA        -0.1909
     41 C7P        -0.4209   11.0766    4.2348 C.3       1 COA         0.1160
     42 C6P        -1.3208   10.2056    5.0993 C.3       1 COA         0.0286
     43 C5P        -2.7326   10.7542    5.2021 C.2       1 COA         0.3561
     44 O5P        -2.9942   11.9525    5.1419 O.2       1 COA        -0.2391
     45 N4P        -3.6631    9.7395    5.3716 N.am      1 COA        -0.1909
     46 C3P        -5.0809    9.9863    5.4994 C.3       1 COA         0.1160
     47 C2P        -5.8014    9.9858    4.1610 C.3       1 COA         0.2607
     48 S1P        -5.6383    8.3975    3.2901 S.3       1 COA        -0.3539
     49 H2A         4.1666    2.6505    0.4351 H         1 COA        -0.1369
     50 H61A        8.1108    1.6399   -1.7121 H         1 COA         0.2048
     51 H62A        7.6305    0.8472   -3.1886 H         1 COA         0.2048
     52 H8A         3.4224   -0.3522   -5.2016 H         1 COA        -0.1292
     53 H1B         1.1905    0.2000   -4.4133 H         1 COA        -0.0393
     54 H2B         1.1486    0.1388   -1.2941 H         1 COA        -0.0393
     55 H3B        -1.2745    0.4471   -1.3878 H         1 COA        -0.0393
     56 H4B        -1.0100    2.5497   -3.1559 H         1 COA        -0.0393
     57 H51A        0.8489    2.3441   -0.7330 H         1 COA        -0.0393
     58 H52A       -0.8601    2.8452   -0.6531 H         1 COA        -0.0393
     59 H121       -1.2324    7.4355   -0.9984 H         1 COA        -0.0393
     60 H122       -2.5440    8.1138   -0.0133 H         1 COA        -0.0393
     61 H131        0.8796   10.5616   -1.1013 H         1 COA        -0.0393
     62 H132        0.7886    8.8842   -1.6454 H         1 COA        -0.0393
     63 H133        1.0681    9.2399    0.0618 H         1 COA        -0.0393
     64 H141       -1.3855   11.0192   -2.1904 H         1 COA        -0.0393
     65 H142       -2.7797   10.0132   -1.7903 H         1 COA        -0.0393
     66 H143       -1.4280    9.3402   -2.7211 H         1 COA        -0.0393
     67 H10        -1.0237   11.5996    0.2569 H         1 COA        -0.0393
     68 HO1        -2.9668    9.7148    1.0837 H         1 COA         0.2010
     69 HN8        -1.5912   11.9301    2.6933 H         1 COA         0.0865
     70 H71         0.5904   10.6603    4.1882 H         1 COA        -0.0393
     71 H72        -0.3409   12.0847    4.6537 H         1 COA        -0.0393
     72 H61        -0.9069   10.1254    6.1122 H         1 COA        -0.0393
     73 H62        -1.3736    9.1910    4.6851 H         1 COA        -0.0393
     74 HN4        -3.3327    8.7796    5.4075 H         1 COA         0.0865
     75 H31        -5.4743    9.1844    6.1294 H         1 COA        -0.0393
     76 H32        -5.2054   10.9301    6.0363 H         1 COA        -0.0393
     77 H21        -6.8668   10.2034    4.2884 H         1 COA        -0.0393
     78 H22        -5.3716   10.7610    3.5190 H         1 COA        -0.0393
     79 HS1        -4.3013    8.4197    3.2106 H         1 COA         0.1718
@<TRIPOS>BOND
     1    1    2 ar
     2    1    6 ar
     3    2    3 ar
     4    2   49 1
     5    3    4 ar
     6    4    5 ar
     7    4   10 ar
     8    5    6 ar
     9    5    8 ar
    10    6    7 1
    11    7   50 1
    12    7   51 1
    13    8    9 ar
    14    9   10 ar
    15    9   52 1
    16   10   11 1
    17   11   12 1
    18   11   21 1
    19   11   53 1
    20   12   13 1
    21   12   14 1
    22   12   54 1
    23   14   15 1
    24   14   20 1
    25   14   55 1
    26   15   16 1
    27   16   17 2
    28   16   18 1
    29   16   19 1
    30   20   21 1
    31   20   22 1
    32   20   56 1
    33   22   23 1
    34   22   57 1
    35   22   58 1
    36   23   24 1
    37   24   25 2
    38   24   26 1
    39   24   27 1
    40   27   28 1
    41   28   29 2
    42   28   30 1
    43   28   31 1
    44   31   33 1
    45   32   33 1
    46   32   34 1
    47   32   35 1
    48   32   36 1
    49   33   59 1
    50   33   60 1
    51   34   61 1
    52   34   62 1
    53   34   63 1
    54   35   64 1
    55   35   65 1
    56   35   66 1
    57   36   37 1
    58   36   38 1
    59   36   67 1
    60   37   68 1
    61   38   39 2
    62   38   40 am
    63   40   41 1
    64   40   69 1
    65   41   42 1
    66   41   70 1
    67   41   71 1
    68   42   43 1
    69   42   72 1
    70   42   73 1
    71   43   44 2
    72   43   45 am
    73   45   46 1
    74   45   74 1
    75   46   47 1
    76   46   75 1
    77   46   76 1
    78   47   48 1
    79   47   77 1
    80   47   78 1
    81   48   79 1
@<TRIPOS>SUBSTRUCTURE
     1 COA         1 GROUP 0 A     ****
@<TRIPOS>MOLECULE
[5-(6-aminopurin-9-yl)-2-[[[[3-hydroxy-2,2-dimethyl-4-oxo-4-[[3-oxo-3-(2-sulfanylethylamino)propyl]amino]butoxy]-oxido-phosphoryl]oxy-oxido-phosphoryl]oxymethyl]-4-oxido-tetrahydrofuran-3-yl] phosphate
   79    81     1     0     0
SMALL
USER_CHARGES

@<TRIPOS>ATOM
      1 N1A         4.6908    0.9263    0.5284 N.ar      1 COA        -0.5260
      2 C2A         3.4193    1.3931    0.4919 C.ar      1 COA         0.6629
      3 N3A         2.4653    1.1803   -0.4405 N.ar      1 COA        -0.5260
      4 C4A         2.9338    0.3916   -1.4192 C.ar      1 COA         0.5212
      5 C5A         4.2020   -0.1580   -1.5185 C.ar      1 COA         0.0088
      6 C6A         5.0963    0.1348   -0.4937 C.ar      1 COA         0.5212
      7 N6A         6.4038   -0.3801   -0.5131 N.pl3     1 COA        -0.6025
      8 N7A         4.3170   -0.9111   -2.6598 N.2       1 COA        -0.4271
      9 C8A         3.1403   -0.8212   -3.2436 C.ar      1 COA         0.5691
     10 N9A         2.2683   -0.0422   -2.5302 N.pl3     1 COA        -0.5033
     11 C1B         0.8363    0.2748   -2.9142 C.3       1 COA         0.2693
     12 C2B        -0.3043   -0.1391   -1.9549 C.3       1 COA         0.2008
     13 O2B        -0.6991   -1.3747   -2.2004 O.co2     1 COA        -0.1615
     14 C3B        -1.3853    0.8773   -2.3558 C.3       1 COA         0.1111
     15 O3B        -2.0094    0.5576   -3.6033 O.3       1 COA         0.1618
     16 P3B        -3.4806    1.2180   -3.9334 P.3       1 COA        -1.1921
     17 O7A        -4.3962    0.7100   -2.8235 O.co2     1 COA         0.3195
     18 O8A        -3.8112    0.6588   -5.3140 O.co2     1 COA         0.3195
     19 O9A        -3.2466    2.7257   -3.9151 O.co2     1 COA         0.3195
     20 C4B        -0.5713    2.1464   -2.5855 C.3       1 COA         0.1111
     21 O4B         0.7211    1.7136   -3.0526 O.3       1 COA        -0.1436
     22 C5B        -0.3655    2.9745   -1.3239 C.3       1 COA         0.1504
     23 O5B         0.3986    4.1249   -1.6460 O.3       1 COA         0.1618
     24 P1A         0.7670    5.1936   -0.4641 P.3       1 COA        -1.1062
     25 O1A         1.1289    6.5260   -1.0837 O.co2     1 COA         0.3195
     26 O2A         1.6876    4.5161    0.5275 O.co2     1 COA         0.3195
     27 O3A        -0.6886    5.3125    0.2679 O.3       1 COA         0.4672
     28 P2A        -1.1429    6.2040    1.5594 P.3       1 COA        -1.1062
     29 O4A        -2.6377    6.0612    1.7476 O.co2     1 COA         0.3195
     30 O5A        -0.1888    5.9134    2.6974 O.co2     1 COA         0.3195
     31 O6A        -0.8065    7.6957    0.9792 O.3       1 COA         0.1618
     32 CBP        -1.0463    9.4480   -0.7182 C.3       1 COA         0.0000
     33 CCP        -1.7297    8.3208    0.0940 C.3       1 COA         0.1504
     34 CDP         0.1097    8.8359   -1.5452 C.3       1 COA         0.1179
     35 CEP        -2.0542   10.0578   -1.7127 C.3       1 COA         0.1179
     36 CAP        -0.4581   10.5415    0.2222 C.3       1 COA         0.0611
     37 OAP         0.1628   11.5628   -0.5541 O.3       1 COA        -0.2728
     38 C9P        -1.4903   11.2331    1.1103 C.2       1 COA         0.3561
     39 O9P        -2.1297   12.2135    0.7334 O.2       1 COA        -0.2391
     40 N8P        -1.6312   10.6209    2.3453 N.am      1 COA        -0.1909
     41 C7P        -2.5657   11.0776    3.3480 C.3       1 COA         0.1160
     42 C6P        -3.9028   10.3754    3.1609 C.3       1 COA         0.0286
     43 C5P        -4.9344   10.8112    4.1860 C.2       1 COA         0.3561
     44 O5P        -4.7021   11.6377    5.0640 O.2       1 COA        -0.2391
     45 N4P        -6.1453   10.1609    3.9992 N.am      1 COA        -0.1909
     46 C3P        -7.2983   10.3897    4.8394 C.3       1 COA         0.1160
     47 C2P        -8.1877   11.5102    4.3258 C.3       1 COA         0.2607
     48 S1P        -8.8322   11.1709    2.6593 S.3       1 COA        -0.3539
     49 H2A         3.1287    2.0232    1.3259 H         1 COA        -0.1369
     50 H61A        7.0472   -0.1189    0.2098 H         1 COA         0.2048
     51 H62A        6.7069   -0.9256   -1.2976 H         1 COA         0.2048
     52 H8A         2.8628   -1.2932   -4.1762 H         1 COA        -0.1292
     53 H1B         0.7316   -0.1451   -3.9582 H         1 COA        -0.0393
     54 H2B         0.0098    0.1350   -0.9357 H         1 COA        -0.0393
     55 H3B        -2.1756    1.0002   -1.6070 H         1 COA        -0.0393
     56 H4B        -1.0101    2.7804   -3.3646 H         1 COA        -0.0393
     57 H51A        0.1721    2.3946   -0.5677 H         1 COA        -0.0393
     58 H52A       -1.3279    3.2941   -0.9132 H         1 COA        -0.0393
     59 H121       -2.1262    7.5446   -0.5686 H         1 COA        -0.0393
     60 H122       -2.5562    8.7139    0.6956 H         1 COA        -0.0393
     61 H131        0.6194    9.6060   -2.1356 H         1 COA        -0.0393
     62 H132       -0.2524    8.0744   -2.2449 H         1 COA        -0.0393
     63 H133        0.8566    8.3597   -0.9005 H         1 COA        -0.0393
     64 H141       -1.5995   10.8607   -2.3043 H         1 COA        -0.0393
     65 H142       -2.9149   10.4873   -1.1878 H         1 COA        -0.0393
     66 H143       -2.4255    9.3094   -2.4205 H         1 COA        -0.0393
     67 H10         0.3192   10.1040    0.8613 H         1 COA        -0.0393
     68 HO1        -0.5280   11.9349   -1.1241 H         1 COA         0.2010
     69 HN8        -1.0789    9.7962    2.5598 H         1 COA         0.0865
     70 H71        -2.1565   10.8706    4.3420 H         1 COA        -0.0393
     71 H72        -2.6837   12.1625    3.2621 H         1 COA        -0.0393
     72 H61        -3.7724    9.2891    3.2426 H         1 COA        -0.0393
     73 H62        -4.3008   10.5838    2.1599 H         1 COA        -0.0393
     74 HN4        -6.2251    9.4936    3.2375 H         1 COA         0.0865
     75 H31        -7.8584    9.4511    4.8506 H         1 COA        -0.0393
     76 H32        -6.9365   10.5797    5.8531 H         1 COA        -0.0393
     77 H21        -9.0355   11.6781    4.9978 H         1 COA        -0.0393
     78 H22        -7.6077   12.4369    4.2740 H         1 COA        -0.0393
     79 HS1        -9.4778   10.0440    2.9872 H         1 COA         0.1718
@<TRIPOS>BOND
     1    1    2 ar
     2    1    6 ar
     3    2    3 ar
     4    2   49 1
     5    3    4 ar
     6    4    5 ar
     7    4   10 ar
     8    5    6 ar
     9    5    8 ar
    10    6    7 1
    11    7   50 1
    12    7   51 1
    13    8    9 ar
    14    9   10 ar
    15    9   52 1
    16   10   11 1
    17   11   12 1
    18   11   21 1
    19   11   53 1
    20   12   13 1
    21   12   14 1
    22   12   54 1
    23   14   15 1
    24   14   20 1
    25   14   55 1
    26   15   16 1
    27   16   17 2
    28   16   18 1
    29   16   19 1
    30   20   21 1
    31   20   22 1
    32   20   56 1
    33   22   23 1
    34   22   57 1
    35   22   58 1
    36   23   24 1
    37   24   25 2
    38   24   26 1
    39   24   27 1
    40   27   28 1
    41   28   29 2
    42   28   30 1
    43   28   31 1
    44   31   33 1
    45   32   33 1
    46   32   34 1
    47   32   35 1
    48   32   36 1
    49   33   59 1
    50   33   60 1
    51   34   61 1
    52   34   62 1
    53   34   63 1
    54   35   64 1
    55   35   65 1
    56   35   66 1
    57   36   37 1
    58   36   38 1
    59   36   67 1
    60   37   68 1
    61   38   39 2
    62   38   40 am
    63   40   41 1
    64   40   69 1
    65   41   42 1
    66   41   70 1
    67   41   71 1
    68   42   43 1
    69   42   72 1
    70   42   73 1
    71   43   44 2
    72   43   45 am
    73   45   46 1
    74   45   74 1
    75   46   47 1
    76   46   75 1
    77   46   76 1
    78   47   48 1
    79   47   77 1
    80   47   78 1
    81   48   79 1
@<TRIPOS>SUBSTRUCTURE
     1 COA         1 GROUP 0 A     ****
@<TRIPOS>MOLECULE
[5-(6-aminopurin-9-yl)-2-[[[[3-hydroxy-2,2-dimethyl-4-oxo-4-[[3-oxo-3-(2-sulfanylethylamino)propyl]amino]butoxy]-oxido-phosphoryl]oxy-oxido-phosphoryl]oxymethyl]-4-oxido-tetrahydrofuran-3-yl] phosphate
   79    81     1     0     0
SMALL
USER_CHARGES

@<TRIPOS>ATOM
      1 N1A         6.3197    3.3711    0.1967 N.ar      1 COA        -0.5260
      2 C2A         5.0033    3.3256    0.5141 C.ar      1 COA         0.6629
      3 N3A         4.0730    2.4196    0.1418 N.ar      1 COA        -0.5260
      4 C4A         4.6208    1.4811   -0.6447 C.ar      1 COA         0.5212
      5 C5A         5.9423    1.3962   -1.0530 C.ar      1 COA         0.0088
      6 C6A         6.8050    2.3902   -0.6021 C.ar      1 COA         0.5212
      7 N6A         8.1621    2.3826   -0.9671 N.pl3     1 COA        -0.6025
      8 N7A         6.1335    0.2987   -1.8543 N.2       1 COA        -0.4271
      9 C8A         4.9500   -0.2731   -1.9316 C.ar      1 COA         0.5691
     10 N9A         4.0006    0.4065   -1.2155 N.pl3     1 COA        -0.5033
     11 C1B         2.5376    0.0288   -1.0907 C.3       1 COA         0.2693
     12 C2B         1.9579   -0.2640    0.3131 C.3       1 COA         0.2008
     13 O2B         2.1299   -1.5323    0.6368 O.co2     1 COA        -0.1615
     14 C3B         0.4729    0.0487    0.0699 C.3       1 COA         0.1111
     15 O3B        -0.1943   -0.9780   -0.6709 O.3       1 COA         0.1618
     16 P3B        -1.8364   -1.0586   -0.5907 P.3       1 COA        -1.1921
     17 O7A        -2.1459   -1.2889    0.8856 O.co2     1 COA         0.3195
     18 O8A        -2.1706   -2.2476   -1.4866 O.co2     1 COA         0.3195
     19 O9A        -2.3217    0.2823   -1.1335 O.co2     1 COA         0.3195
     20 C4B         0.5412    1.2713   -0.8394 C.3       1 COA         0.1111
     21 O4B         1.7485    1.1278   -1.6124 O.3       1 COA        -0.1436
     22 C5B         0.6184    2.5901   -0.0816 C.3       1 COA         0.1504
     23 O5B         0.6777    3.6562   -1.0149 O.3       1 COA         0.1618
     24 P1A         0.7670    5.1936   -0.4641 P.3       1 COA        -1.1062
     25 O1A         0.8194    6.1476   -1.6376 O.co2     1 COA         0.3195
     26 O2A         1.8029    5.2507    0.6375 O.co2     1 COA         0.3195
     27 O3A        -0.6886    5.3125    0.2679 O.3       1 COA         0.4672
     28 P2A        -1.1429    6.2040    1.5594 P.3       1 COA        -1.1062
     29 O4A        -2.6377    6.0612    1.7476 O.co2     1 COA         0.3195
     30 O5A        -0.1888    5.9134    2.6974 O.co2     1 COA         0.3195
     31 O6A        -0.8065    7.6957    0.9792 O.3       1 COA         0.1618
     32 CBP        -1.0090    9.5771   -0.5793 C.3       1 COA         0.0000
     33 CCP        -1.4652    8.1470   -0.1994 C.3       1 COA         0.1504
     34 CDP         0.5182    9.5632   -0.8289 C.3       1 COA         0.1179
     35 CEP        -1.6888   10.0085   -1.8940 C.3       1 COA         0.1179
     36 CAP        -1.3149   10.5877    0.5658 C.3       1 COA         0.0611
     37 OAP        -2.7163   10.6149    0.8239 O.3       1 COA        -0.2728
     38 C9P        -0.6314   10.2649    1.8928 C.2       1 COA         0.3561
     39 O9P         0.1432    9.3183    2.0197 O.2       1 COA        -0.2391
     40 N8P        -0.9621   11.1596    2.8978 N.am      1 COA        -0.1909
     41 C7P        -0.4209   11.0766    4.2348 C.3       1 COA         0.1160
     42 C6P        -1.3208   10.2056    5.0993 C.3       1 COA         0.0286
     43 C5P        -0.8078   10.0760    6.5223 C.2       1 COA         0.3561
     44 O5P         0.2209   10.6173    6.9179 O.2       1 COA        -0.2391
     45 N4P        -1.6407    9.2792    7.2942 N.am      1 COA        -0.1909
     46 C3P        -1.3833    8.9901    8.6861 C.3       1 COA         0.1160
     47 C2P        -0.5401    7.7406    8.8816 C.3       1 COA         0.2607
     48 S1P        -1.3349    6.2570    8.1926 S.3       1 COA        -0.3539
     49 H2A         4.6492    4.1260    1.1552 H         1 COA        -0.1369
     50 H61A        8.7564    3.1335   -0.6708 H         1 COA         0.2048
     51 H62A        8.4991    1.6788   -1.5963 H         1 COA         0.2048
     52 H8A         4.7208   -1.1726   -2.4865 H         1 COA        -0.1292
     53 H1B         2.4085   -0.8200   -1.8256 H         1 COA        -0.0393
     54 H2B         2.3286    0.5212    0.9904 H         1 COA        -0.0393
     55 H3B        -0.0977    0.2245    0.9885 H         1 COA        -0.0393
     56 H4B        -0.2996    1.3083   -1.5416 H         1 COA        -0.0393
     57 H51A        1.5144    2.6204    0.5455 H         1 COA        -0.0393
     58 H52A       -0.2654    2.7227    0.5494 H         1 COA        -0.0393
     59 H121       -1.2324    7.4355   -0.9984 H         1 COA        -0.0393
     60 H122       -2.5440    8.1138   -0.0133 H         1 COA        -0.0393
     61 H131        0.8796   10.5616   -1.1013 H         1 COA        -0.0393
     62 H132        0.7886    8.8842   -1.6454 H         1 COA        -0.0393
     63 H133        1.0681    9.2399    0.0618 H         1 COA        -0.0393
     64 H141       -1.3855   11.0192   -2.1904 H         1 COA        -0.0393
     65 H142       -2.7797   10.0132   -1.7903 H         1 COA        -0.0393
     66 H143       -1.4280    9.3402   -2.7211 H         1 COA        -0.0393
     67 H10        -1.0237   11.5996    0.2569 H         1 COA        -0.0393
     68 HO1        -2.9668    9.7148    1.0837 H         1 COA         0.2010
     69 HN8        -1.5912   11.9301    2.6933 H         1 COA         0.0865
     70 H71         0.5904   10.6603    4.1882 H         1 COA        -0.0393
     71 H72        -0.3409   12.0847    4.6537 H         1 COA        -0.0393
     72 H61        -1.3992    9.2001    4.6676 H         1 COA        -0.0393
     73 H62        -2.3330   10.6278    5.1340 H         1 COA        -0.0393
     74 HN4        -2.4688    8.8811    6.8612 H         1 COA         0.0865
     75 H31        -0.8522    9.8585    9.0847 H         1 COA        -0.0393
     76 H32        -2.3487    8.9218    9.1939 H         1 COA        -0.0393
     77 H21         0.4443    7.8544    8.4161 H         1 COA        -0.0393
     78 H22        -0.3909    7.5693    9.9522 H         1 COA        -0.0393
     79 HS1        -1.3951    6.7049    6.9316 H         1 COA         0.1718
@<TRIPOS>BOND
     1    1    2 ar
     2    1    6 ar
     3    2    3 ar
     4    2   49 1
     5    3    4 ar
     6    4    5 ar
     7    4   10 ar
     8    5    6 ar
     9    5    8 ar
    10    6    7 1
    11    7   50 1
    12    7   51 1
    13    8    9 ar
    14    9   10 ar
    15    9   52 1
    16   10   11 1
    17   11   12 1
    18   11   21 1
    19   11   53 1
    20   12   13 1
    21   12   14 1
    22   12   54 1
    23   14   15 1
    24   14   20 1
    25   14   55 1
    26   15   16 1
    27   16   17 2
    28   16   18 1
    29   16   19 1
    30   20   21 1
    31   20   22 1
    32   20   56 1
    33   22   23 1
    34   22   57 1
    35   22   58 1
    36   23   24 1
    37   24   25 2
    38   24   26 1
    39   24   27 1
    40   27   28 1
    41   28   29 2
    42   28   30 1
    43   28   31 1
    44   31   33 1
    45   32   33 1
    46   32   34 1
    47   32   35 1
    48   32   36 1
    49   33   59 1
    50   33   60 1
    51   34   61 1
    52   34   62 1
    53   34   63 1
    54   35   64 1
    55   35   65 1
    56   35   66 1
    57   36   37 1
    58   36   38 1
    59   36   67 1
    60   37   68 1
    61   38   39 2
    62   38   40 am
    63   40   41 1
    64   40   69 1
    65   41   42 1
    66   41   70 1
    67   41   71 1
    68   42   43 1
    69   42   72 1
    70   42   73 1
    71   43   44 2
    72   43   45 am
    73   45   46 1
    74   45   74 1
    75   46   47 1
    76   46   75 1
    77   46   76 1
    78   47   48 1
    79   47   77 1
    80   47   78 1
    81   48   79 1
@<TRIPOS>SUBSTRUCTURE
     1 COA         1 GROUP 0 A     ****
@<TRIPOS>MOLECULE
[5-(6-aminopurin-9-yl)-2-[[[[3-hydroxy-2,2-dimethyl-4-oxo-4-[[3-oxo-3-(2-sulfanylethylamino)propyl]amino]butoxy]-oxido-phosphoryl]oxy-oxido-phosphoryl]oxymethyl]-4-oxido-tetrahydrofuran-3-yl] phosphate
   79    81     1     0     0
SMALL
USER_CHARGES

@<TRIPOS>ATOM
      1 N1A         6.3197    3.3711    0.1967 N.ar      1 COA        -0.5260
      2 C2A         5.0033    3.3256    0.5141 C.ar      1 COA         0.6629
      3 N3A         4.0730    2.4196    0.1418 N.ar      1 COA        -0.5260
      4 C4A         4.6208    1.4811   -0.6447 C.ar      1 COA         0.5212
      5 C5A         5.9423    1.3962   -1.0530 C.ar      1 COA         0.0088
      6 C6A         6.8050    2.3902   -0.6021 C.ar      1 COA         0.5212
      7 N6A         8.1621    2.3826   -0.9671 N.pl3     1 COA        -0.6025
      8 N7A         6.1335    0.2987   -1.8543 N.2       1 COA        -0.4271
      9 C8A         4.9500   -0.2731   -1.9316 C.ar      1 COA         0.5691
     10 N9A         4.0006    0.4065   -1.2155 N.pl3     1 COA        -0.5033
     11 C1B         2.5376    0.0288   -1.0907 C.3       1 COA         0.2693
     12 C2B         1.9579   -0.2640    0.3131 C.3       1 COA         0.2008
     13 O2B         2.1299   -1.5323    0.6368 O.co2     1 COA        -0.1615
     14 C3B         0.4729    0.0487    0.0699 C.3       1 COA         0.1111
     15 O3B        -0.1943   -0.9780   -0.6709 O.3       1 COA         0.1618
     16 P3B        -1.8364   -1.0586   -0.5907 P.3       1 COA        -1.1921
     17 O7A        -2.1459   -1.2889    0.8856 O.co2     1 COA         0.3195
     18 O8A        -2.1706   -2.2476   -1.4866 O.co2     1 COA         0.3195
     19 O9A        -2.3217    0.2823   -1.1335 O.co2     1 COA         0.3195
     20 C4B         0.5412    1.2713   -0.8394 C.3       1 COA         0.1111
     21 O4B         1.7485    1.1278   -1.6124 O.3       1 COA        -0.1436
     22 C5B         0.6184    2.5901   -0.0816 C.3       1 COA         0.1504
     23 O5B         0.6777    3.6562   -1.0149 O.3       1 COA         0.1618
     24 P1A         0.7670    5.1936   -0.4641 P.3       1 COA        -1.1062
     25 O1A         0.8194    6.1476   -1.6376 O.co2     1 COA         0.3195
     26 O2A         1.8029    5.2507    0.6375 O.co2     1 COA         0.3195
     27 O3A        -0.6886    5.3125    0.2679 O.3       1 COA         0.4672
     28 P2A        -1.1429    6.2040    1.5594 P.3       1 COA        -1.1062
     29 O4A        -2.6377    6.0612    1.7476 O.co2     1 COA         0.3195
     30 O5A        -0.1888    5.9134    2.6974 O.co2     1 COA         0.3195
     31 O6A        -0.8065    7.6957    0.9792 O.3       1 COA         0.1618
     32 CBP        -1.0090    9.5771   -0.5793 C.3       1 COA         0.0000
     33 CCP        -1.4652    8.1470   -0.1994 C.3       1 COA         0.1504
     34 CDP         0.5182    9.5632   -0.8289 C.3       1 COA         0.1179
     35 CEP        -1.6888   10.0085   -1.8940 C.3       1 COA         0.1179
     36 CAP        -1.3149   10.5877    0.5658 C.3       1 COA         0.0611
     37 OAP        -2.7163   10.6149    0.8239 O.3       1 COA        -0.2728
     38 C9P        -0.6314   10.2649    1.8928 C.2       1 COA         0.3561
     39 O9P        -0.7862    9.1884    2.4667 O.2       1 COA        -0.2391
     40 N8P         0.1805   11.2940    2.3420 N.am      1 COA        -0.1909
     41 C7P         0.9514   11.2131    3.5612 C.3       1 COA         0.1160
     42 C6P         2.3268   10.6352    3.2611 C.3       1 COA         0.0286
     43 C5P         3.1077   11.4819    2.2721 C.2       1 COA         0.3561
     44 O5P         2.9696   12.6980    2.1723 O.2       1 COA        -0.2391
     45 N4P         3.9758   10.7101    1.5138 N.am      1 COA        -0.1909
     46 C3P         4.8368   11.2663    0.4955 C.3       1 COA         0.1160
     47 C2P         4.1812   11.3001   -0.8754 C.3       1 COA         0.2607
     48 S1P         5.2759   12.0022   -2.1467 S.3       1 COA        -0.3539
     49 H2A         4.6492    4.1260    1.1552 H         1 COA        -0.1369
     50 H61A        8.7564    3.1335   -0.6708 H         1 COA         0.2048
     51 H62A        8.4991    1.6788   -1.5963 H         1 COA         0.2048
     52 H8A         4.7208   -1.1726   -2.4865 H         1 COA        -0.1292
     53 H1B         2.4085   -0.8200   -1.8256 H         1 COA        -0.0393
     54 H2B         2.3286    0.5212    0.9904 H         1 COA        -0.0393
     55 H3B        -0.0977    0.2245    0.9885 H         1 COA        -0.0393
     56 H4B        -0.2996    1.3083   -1.5416 H         1 COA        -0.0393
     57 H51A        1.5144    2.6204    0.5455 H         1 COA        -0.0393
     58 H52A       -0.2654    2.7227    0.5494 H         1 COA        -0.0393
     59 H121       -1.2324    7.4355   -0.9984 H         1 COA        -0.0393
     60 H122       -2.5440    8.1138   -0.0133 H         1 COA        -0.0393
     61 H131        0.8796   10.5616   -1.1013 H         1 COA        -0.0393
     62 H132        0.7886    8.8842   -1.6454 H         1 COA        -0.0393
     63 H133        1.0681    9.2399    0.0618 H         1 COA        -0.0393
     64 H141       -1.3855   11.0192   -2.1904 H         1 COA        -0.0393
     65 H142       -2.7797   10.0132   -1.7903 H         1 COA        -0.0393
     66 H143       -1.4280    9.3402   -2.7211 H         1 COA        -0.0393
     67 H10        -1.0237   11.5996    0.2569 H         1 COA        -0.0393
     68 HO1        -2.9668    9.7148    1.0837 H         1 COA         0.2010
     69 HN8         0.2691   12.1390    1.7860 H         1 COA         0.0865
     70 H71         1.0395   12.2129    3.9980 H         1 COA        -0.0393
     71 H72         0.4182   10.5864    4.2831 H         1 COA        -0.0393
     72 H61         2.2283    9.6238    2.8475 H         1 COA        -0.0393
     73 H62         2.9120   10.5560    4.1858 H         1 COA        -0.0393
     74 HN4         4.0077    9.7089    1.6821 H         1 COA         0.0865
     75 H31         5.0706   12.2846    0.8169 H         1 COA        -0.0393
     76 H32         5.7654   10.6898    0.4964 H         1 COA        -0.0393
     77 H21         3.8814   10.2960   -1.1923 H         1 COA        -0.0393
     78 H22         3.2829   11.9238   -0.8310 H         1 COA        -0.0393
     79 HS1         5.4196   13.1982   -1.5608 H         1 COA         0.1718
@<TRIPOS>BOND
     1    1    2 ar
     2    1    6 ar
     3    2    3 ar
     4    2   49 1
     5    3    4 ar
     6    4    5 ar
     7    4   10 ar
     8    5    6 ar
     9    5    8 ar
    10    6    7 1
    11    7   50 1
    12    7   51 1
    13    8    9 ar
    14    9   10 ar
    15    9   52 1
    16   10   11 1
    17   11   12 1
    18   11   21 1
    19   11   53 1
    20   12   13 1
    21   12   14 1
    22   12   54 1
    23   14   15 1
    24   14   20 1
    25   14   55 1
    26   15   16 1
    27   16   17 2
    28   16   18 1
    29   16   19 1
    30   20   21 1
    31   20   22 1
    32   20   56 1
    33   22   23 1
    34   22   57 1
    35   22   58 1
    36   23   24 1
    37   24   25 2
    38   24   26 1
    39   24   27 1
    40   27   28 1
    41   28   29 2
    42   28   30 1
    43   28   31 1
    44   31   33 1
    45   32   33 1
    46   32   34 1
    47   32   35 1
    48   32   36 1
    49   33   59 1
    50   33   60 1
    51   34   61 1
    52   34   62 1
    53   34   63 1
    54   35   64 1
    55   35   65 1
    56   35   66 1
    57   36   37 1
    58   36   38 1
    59   36   67 1
    60   37   68 1
    61   38   39 2
    62   38   40 am
    63   40   41 1
    64   40   69 1
    65   41   42 1
    66   41   70 1
    67   41   71 1
    68   42   43 1
    69   42   72 1
    70   42   73 1
    71   43   44 2
    72   43   45 am
    73   45   46 1
    74   45   74 1
    75   46   47 1
    76   46   75 1
    77   46   76 1
    78   47   48 1
    79   47   77 1
    80   47   78 1
    81   48   79 1
@<TRIPOS>SUBSTRUCTURE
     1 COA         1 GROUP 0 A     ****
@<TRIPOS>MOLECULE
[5-(6-aminopurin-9-yl)-2-[[[[3-hydroxy-2,2-dimethyl-4-oxo-4-[[3-oxo-3-(2-sulfanylethylamino)propyl]amino]butoxy]-oxido-phosphoryl]oxy-oxido-phosphoryl]oxymethyl]-4-oxido-tetrahydrofuran-3-yl] phosphate
   79    81     1     0     0
SMALL
USER_CHARGES

@<TRIPOS>ATOM
      1 N1A         6.3197    3.3711    0.1967 N.ar      1 COA        -0.5260
      2 C2A         5.0033    3.3256    0.5141 C.ar      1 COA         0.6629
      3 N3A         4.0730    2.4196    0.1418 N.ar      1 COA        -0.5260
      4 C4A         4.6208    1.4811   -0.6447 C.ar      1 COA         0.5212
      5 C5A         5.9423    1.3962   -1.0530 C.ar      1 COA         0.0088
      6 C6A         6.8050    2.3902   -0.6021 C.ar      1 COA         0.5212
      7 N6A         8.1621    2.3826   -0.9671 N.pl3     1 COA        -0.6025
      8 N7A         6.1335    0.2987   -1.8543 N.2       1 COA        -0.4271
      9 C8A         4.9500   -0.2731   -1.9316 C.ar      1 COA         0.5691
     10 N9A         4.0006    0.4065   -1.2155 N.pl3     1 COA        -0.5033
     11 C1B         2.5376    0.0288   -1.0907 C.3       1 COA         0.2693
     12 C2B         1.9579   -0.2640    0.3131 C.3       1 COA         0.2008
     13 O2B         2.1299   -1.5323    0.6368 O.co2     1 COA        -0.1615
     14 C3B         0.4729    0.0487    0.0699 C.3       1 COA         0.1111
     15 O3B        -0.1943   -0.9780   -0.6709 O.3       1 COA         0.1618
     16 P3B        -1.8364   -1.0586   -0.5907 P.3       1 COA        -1.1921
     17 O7A        -2.1459   -1.2889    0.8856 O.co2     1 COA         0.3195
     18 O8A        -2.1706   -2.2476   -1.4866 O.co2     1 COA         0.3195
     19 O9A        -2.3217    0.2823   -1.1335 O.co2     1 COA         0.3195
     20 C4B         0.5412    1.2713   -0.8394 C.3       1 COA         0.1111
     21 O4B         1.7485    1.1278   -1.6124 O.3       1 COA        -0.1436
     22 C5B         0.6184    2.5901   -0.0816 C.3       1 COA         0.1504
     23 O5B         0.6777    3.6562   -1.0149 O.3       1 COA         0.1618
     24 P1A         0.7670    5.1936   -0.4641 P.3       1 COA        -1.1062
     25 O1A         0.8194    6.1476   -1.6376 O.co2     1 COA         0.3195
     26 O2A         1.8029    5.2507    0.6375 O.co2     1 COA         0.3195
     27 O3A        -0.6886    5.3125    0.2679 O.3       1 COA         0.4672
     28 P2A        -1.1429    6.2040    1.5594 P.3       1 COA        -1.1062
     29 O4A        -2.6377    6.0612    1.7476 O.co2     1 COA         0.3195
     30 O5A        -0.1888    5.9134    2.6974 O.co2     1 COA         0.3195
     31 O6A        -0.8065    7.6957    0.9792 O.3       1 COA         0.1618
     32 CBP        -1.0090    9.5771   -0.5793 C.3       1 COA         0.0000
     33 CCP        -1.4652    8.1470   -0.1994 C.3       1 COA         0.1504
     34 CDP         0.5182    9.5632   -0.8289 C.3       1 COA         0.1179
     35 CEP        -1.6888   10.0085   -1.8940 C.3       1 COA         0.1179
     36 CAP        -1.3149   10.5877    0.5658 C.3       1 COA         0.0611
     37 OAP        -2.7163   10.6149    0.8239 O.3       1 COA        -0.2728
     38 C9P        -0.6314   10.2649    1.8928 C.2       1 COA         0.3561
     39 O9P        -0.7862    9.1884    2.4667 O.2       1 COA        -0.2391
     40 N8P         0.1805   11.2940    2.3420 N.am      1 COA        -0.1909
     41 C7P         0.9514   11.2131    3.5612 C.3       1 COA         0.1160
     42 C6P         2.3268   10.6352    3.2611 C.3       1 COA         0.0286
     43 C5P         3.1077   11.4819    2.2721 C.2       1 COA         0.3561
     44 O5P         2.6661   12.5147    1.7758 O.2       1 COA        -0.2391
     45 N4P         4.3575   10.9394    2.0114 N.am      1 COA        -0.1909
     46 C3P         5.3036   11.5454    1.1030 C.3       1 COA         0.1160
     47 C2P         6.2312   12.5330    1.7918 C.3       1 COA         0.2607
     48 S1P         7.2167   11.7527    3.1062 S.3       1 COA        -0.3539
     49 H2A         4.6492    4.1260    1.1552 H         1 COA        -0.1369
     50 H61A        8.7564    3.1335   -0.6708 H         1 COA         0.2048
     51 H62A        8.4991    1.6788   -1.5963 H         1 COA         0.2048
     52 H8A         4.7208   -1.1726   -2.4865 H         1 COA        -0.1292
     53 H1B         2.4085   -0.8200   -1.8256 H         1 COA        -0.0393
     54 H2B         2.3286    0.5212    0.9904 H         1 COA        -0.0393
     55 H3B        -0.0977    0.2245    0.9885 H         1 COA        -0.0393
     56 H4B        -0.2996    1.3083   -1.5416 H         1 COA        -0.0393
     57 H51A        1.5144    2.6204    0.5455 H         1 COA        -0.0393
     58 H52A       -0.2654    2.7227    0.5494 H         1 COA        -0.0393
     59 H121       -1.2324    7.4355   -0.9984 H         1 COA        -0.0393
     60 H122       -2.5440    8.1138   -0.0133 H         1 COA        -0.0393
     61 H131        0.8796   10.5616   -1.1013 H         1 COA        -0.0393
     62 H132        0.7886    8.8842   -1.6454 H         1 COA        -0.0393
     63 H133        1.0681    9.2399    0.0618 H         1 COA        -0.0393
     64 H141       -1.3855   11.0192   -2.1904 H         1 COA        -0.0393
     65 H142       -2.7797   10.0132   -1.7903 H         1 COA        -0.0393
     66 H143       -1.4280    9.3402   -2.7211 H         1 COA        -0.0393
     67 H10        -1.0237   11.5996    0.2569 H         1 COA        -0.0393
     68 HO1        -2.9668    9.7148    1.0837 H         1 COA         0.2010
     69 HN8         0.2691   12.1390    1.7860 H         1 COA         0.0865
     70 H71         1.0395   12.2129    3.9980 H         1 COA        -0.0393
     71 H72         0.4182   10.5864    4.2831 H         1 COA        -0.0393
     72 H61         2.2283    9.6238    2.8475 H         1 COA        -0.0393
     73 H62         2.9120   10.5560    4.1858 H         1 COA        -0.0393
     74 HN4         4.6194   10.0773    2.4804 H         1 COA         0.0865
     75 H31         5.8885   10.7246    0.6799 H         1 COA        -0.0393
     76 H32         4.7344   12.0078    0.2926 H         1 COA        -0.0393
     77 H21         6.9159   12.9954    1.0734 H         1 COA        -0.0393
     78 H22         5.6357   13.3275    2.2520 H         1 COA        -0.0393
     79 HS1         7.8284   10.8643    2.3120 H         1 COA         0.1718
@<TRIPOS>BOND
     1    1    2 ar
     2    1    6 ar
     3    2    3 ar
     4    2   49 1
     5    3    4 ar
     6    4    5 ar
     7    4   10 ar
     8    5    6 ar
     9    5    8 ar
    10    6    7 1
    11    7   50 1
    12    7   51 1
    13    8    9 ar
    14    9   10 ar
    15    9   52 1
    16   10   11 1
    17   11   12 1
    18   11   21 1
    19   11   53 1
    20   12   13 1
    21   12   14 1
    22   12   54 1
    23   14   15 1
    24   14   20 1
    25   14   55 1
    26   15   16 1
    27   16   17 2
    28   16   18 1
    29   16   19 1
    30   20   21 1
    31   20   22 1
    32   20   56 1
    33   22   23 1
    34   22   57 1
    35   22   58 1
    36   23   24 1
    37   24   25 2
    38   24   26 1
    39   24   27 1
    40   27   28 1
    41   28   29 2
    42   28   30 1
    43   28   31 1
    44   31   33 1
    45   32   33 1
    46   32   34 1
    47   32   35 1
    48   32   36 1
    49   33   59 1
    50   33   60 1
    51   34   61 1
    52   34   62 1
    53   34   63 1
    54   35   64 1
    55   35   65 1
    56   35   66 1
    57   36   37 1
    58   36   38 1
    59   36   67 1
    60   37   68 1
    61   38   39 2
    62   38   40 am
    63   40   41 1
    64   40   69 1
    65   41   42 1
    66   41   70 1
    67   41   71 1
    68   42   43 1
    69   42   72 1
    70   42   73 1
    71   43   44 2
    72   43   45 am
    73   45   46 1
    74   45   74 1
    75   46   47 1
    76   46   75 1
    77   46   76 1
    78   47   48 1
    79   47   77 1
    80   47   78 1
    81   48   79 1
@<TRIPOS>SUBSTRUCTURE
     1 COA         1 GROUP 0 A     ****
@<TRIPOS>MOLECULE
[5-(6-aminopurin-9-yl)-2-[[[[3-hydroxy-2,2-dimethyl-4-oxo-4-[[3-oxo-3-(2-sulfanylethylamino)propyl]amino]butoxy]-oxido-phosphoryl]oxy-oxido-phosphoryl]oxymethyl]-4-oxido-tetrahydrofuran-3-yl] phosphate
   79    81     1     0     0
SMALL
USER_CHARGES

@<TRIPOS>ATOM
      1 N1A         5.7146    2.0302   -0.7890 N.ar      1 COA        -0.5260
      2 C2A         4.3962    2.1571   -0.5034 C.ar      1 COA         0.6629
      3 N3A         3.3299    1.7526   -1.2276 N.ar      1 COA        -0.5260
      4 C4A         3.7311    1.1587   -2.3614 C.ar      1 COA         0.5212
      5 C5A         5.0346    0.9576   -2.7868 C.ar      1 COA         0.0088
      6 C6A         6.0470    1.4195   -1.9517 C.ar      1 COA         0.5212
      7 N6A         7.3978    1.2581   -2.3043 N.pl3     1 COA        -0.6025
      8 N7A         5.0562    0.3154   -3.9993 N.2       1 COA        -0.4271
      9 C8A         3.7892    0.1293   -4.3054 C.ar      1 COA         0.5691
     10 N9A         2.9479    0.6234   -3.3440 N.pl3     1 COA        -0.5033
     11 C1B         1.4328    0.5815   -3.3775 C.3       1 COA         0.2693
     12 C2B         0.6799   -0.1567   -2.2458 C.3       1 COA         0.2008
     13 O2B         0.5449   -1.4388   -2.5302 O.co2     1 COA        -0.1615
     14 C3B        -0.6749    0.5672   -2.2968 C.3       1 COA         0.1111
     15 O3B        -1.4782    0.1594   -3.4088 O.3       1 COA         0.1618
     16 P3B        -3.0996    0.4363   -3.3454 P.3       1 COA        -1.1921
     17 O7A        -3.5828   -0.3425   -2.1254 O.co2     1 COA         0.3195
     18 O8A        -3.6001   -0.1211   -4.6746 O.co2     1 COA         0.3195
     19 O9A        -3.2339    1.9510   -3.2185 O.co2     1 COA         0.3195
     20 C4B        -0.2635    2.0121   -2.5599 C.3       1 COA         0.1111
     21 O4B         0.9490    1.9478   -3.3354 O.3       1 COA        -0.1436
     22 C5B         0.0275    2.8029   -1.2913 C.3       1 COA         0.1504
     23 O5B         0.3986    4.1249   -1.6460 O.3       1 COA         0.1618
     24 P1A         0.7670    5.1936   -0.4641 P.3       1 COA        -1.1062
     25 O1A         1.1289    6.5260   -1.0837 O.co2     1 COA         0.3195
     26 O2A         1.6876    4.5161    0.5275 O.co2     1 COA         0.3195
     27 O3A        -0.6886    5.3125    0.2679 O.3       1 COA         0.4672
     28 P2A        -1.1429    6.2040    1.5594 P.3       1 COA        -1.1062
     29 O4A        -2.6377    6.0612    1.7476 O.co2     1 COA         0.3195
     30 O5A        -0.1888    5.9134    2.6974 O.co2     1 COA         0.3195
     31 O6A        -0.8065    7.6957    0.9792 O.3       1 COA         0.1618
     32 CBP        -1.0090    9.5771   -0.5793 C.3       1 COA         0.0000
     33 CCP        -1.4652    8.1470   -0.1994 C.3       1 COA         0.1504
     34 CDP         0.5182    9.5632   -0.8289 C.3       1 COA         0.1179
     35 CEP        -1.6888   10.0085   -1.8940 C.3       1 COA         0.1179
     36 CAP        -1.3149   10.5877    0.5658 C.3       1 COA         0.0611
     37 OAP        -2.7163   10.6149    0.8239 O.3       1 COA        -0.2728
     38 C9P        -0.6314   10.2649    1.8928 C.2       1 COA         0.3561
     39 O9P         0.1432    9.3183    2.0197 O.2       1 COA        -0.2391
     40 N8P        -0.9621   11.1596    2.8978 N.am      1 COA        -0.1909
     41 C7P        -0.4209   11.0766    4.2348 C.3       1 COA         0.1160
     42 C6P         0.8633   11.8886    4.3197 C.3       1 COA         0.0286
     43 C5P         1.4865   11.8439    5.7033 C.2       1 COA         0.3561
     44 O5P         0.9974   11.2198    6.6410 O.2       1 COA        -0.2391
     45 N4P         2.6550   12.5892    5.7608 N.am      1 COA        -0.1909
     46 C3P         3.4474   12.7173    6.9621 C.3       1 COA         0.1160
     47 C2P         4.5102   11.6376    7.0841 C.3       1 COA         0.2607
     48 S1P         5.6842   11.6648    5.6953 S.3       1 COA        -0.3539
     49 H2A         4.1666    2.6505    0.4351 H         1 COA        -0.1369
     50 H61A        8.1108    1.6399   -1.7121 H         1 COA         0.2048
     51 H62A        7.6305    0.8472   -3.1886 H         1 COA         0.2048
     52 H8A         3.4224   -0.3522   -5.2016 H         1 COA        -0.1292
     53 H1B         1.1905    0.2000   -4.4133 H         1 COA        -0.0393
     54 H2B         1.1486    0.1388   -1.2941 H         1 COA        -0.0393
     55 H3B        -1.2745    0.4471   -1.3878 H         1 COA        -0.0393
     56 H4B        -1.0100    2.5497   -3.1559 H         1 COA        -0.0393
     57 H51A        0.8489    2.3441   -0.7330 H         1 COA        -0.0393
     58 H52A       -0.8601    2.8452   -0.6531 H         1 COA        -0.0393
     59 H121       -1.2324    7.4355   -0.9984 H         1 COA        -0.0393
     60 H122       -2.5440    8.1138   -0.0133 H         1 COA        -0.0393
     61 H131        0.8796   10.5616   -1.1013 H         1 COA        -0.0393
     62 H132        0.7886    8.8842   -1.6454 H         1 COA        -0.0393
     63 H133        1.0681    9.2399    0.0618 H         1 COA        -0.0393
     64 H141       -1.3855   11.0192   -2.1904 H         1 COA        -0.0393
     65 H142       -2.7797   10.0132   -1.7903 H         1 COA        -0.0393
     66 H143       -1.4280    9.3402   -2.7211 H         1 COA        -0.0393
     67 H10        -1.0237   11.5996    0.2569 H         1 COA        -0.0393
     68 HO1        -2.9668    9.7148    1.0837 H         1 COA         0.2010
     69 HN8        -1.5912   11.9301    2.6933 H         1 COA         0.0865
     70 H71        -1.1627   11.4515    4.9471 H         1 COA        -0.0393
     71 H72        -0.2314   10.0271    4.4816 H         1 COA        -0.0393
     72 H61         0.6637   12.9368    4.0645 H         1 COA        -0.0393
     73 H62         1.5973   11.5092    3.5977 H         1 COA        -0.0393
     74 HN4         2.9677   13.0665    4.9203 H         1 COA         0.0865
     75 H31         3.9248   13.6993    6.9091 H         1 COA        -0.0393
     76 H32         2.7609   12.7207    7.8125 H         1 COA        -0.0393
     77 H21         5.0738   11.7448    8.0165 H         1 COA        -0.0393
     78 H22         4.0280   10.6551    7.0907 H         1 COA        -0.0393
     79 HS1         4.7716   11.4519    4.7382 H         1 COA         0.1718
@<TRIPOS>BOND
     1    1    2 ar
     2    1    6 ar
     3    2    3 ar
     4    2   49 1
     5    3    4 ar
     6    4    5 ar
     7    4   10 ar
     8    5    6 ar
     9    5    8 ar
    10    6    7 1
    11    7   50 1
    12    7   51 1
    13    8    9 ar
    14    9   10 ar
    15    9   52 1
    16   10   11 1
    17   11   12 1
    18   11   21 1
    19   11   53 1
    20   12   13 1
    21   12   14 1
    22   12   54 1
    23   14   15 1
    24   14   20 1
    25   14   55 1
    26   15   16 1
    27   16   17 2
    28   16   18 1
    29   16   19 1
    30   20   21 1
    31   20   22 1
    32   20   56 1
    33   22   23 1
    34   22   57 1
    35   22   58 1
    36   23   24 1
    37   24   25 2
    38   24   26 1
    39   24   27 1
    40   27   28 1
    41   28   29 2
    42   28   30 1
    43   28   31 1
    44   31   33 1
    45   32   33 1
    46   32   34 1
    47   32   35 1
    48   32   36 1
    49   33   59 1
    50   33   60 1
    51   34   61 1
    52   34   62 1
    53   34   63 1
    54   35   64 1
    55   35   65 1
    56   35   66 1
    57   36   37 1
    58   36   38 1
    59   36   67 1
    60   37   68 1
    61   38   39 2
    62   38   40 am
    63   40   41 1
    64   40   69 1
    65   41   42 1
    66   41   70 1
    67   41   71 1
    68   42   43 1
    69   42   72 1
    70   42   73 1
    71   43   44 2
    72   43   45 am
    73   45   46 1
    74   45   74 1
    75   46   47 1
    76   46   75 1
    77   46   76 1
    78   47   48 1
    79   47   77 1
    80   47   78 1
    81   48   79 1
@<TRIPOS>SUBSTRUCTURE
     1 COA         1 GROUP 0 A     ****
@<TRIPOS>MOLECULE
[5-(6-aminopurin-9-yl)-2-[[[[3-hydroxy-2,2-dimethyl-4-oxo-4-[[3-oxo-3-(2-sulfanylethylamino)propyl]amino]butoxy]-oxido-phosphoryl]oxy-oxido-phosphoryl]oxymethyl]-4-oxido-tetrahydrofuran-3-yl] phosphate
   79    81     1     0     0
SMALL
USER_CHARGES

@<TRIPOS>ATOM
      1 N1A         5.7146    2.0302   -0.7890 N.ar      1 COA        -0.5260
      2 C2A         4.3962    2.1571   -0.5034 C.ar      1 COA         0.6629
      3 N3A         3.3299    1.7526   -1.2276 N.ar      1 COA        -0.5260
      4 C4A         3.7311    1.1587   -2.3614 C.ar      1 COA         0.5212
      5 C5A         5.0346    0.9576   -2.7868 C.ar      1 COA         0.0088
      6 C6A         6.0470    1.4195   -1.9517 C.ar      1 COA         0.5212
      7 N6A         7.3978    1.2581   -2.3043 N.pl3     1 COA        -0.6025
      8 N7A         5.0562    0.3154   -3.9993 N.2       1 COA        -0.4271
      9 C8A         3.7892    0.1293   -4.3054 C.ar      1 COA         0.5691
     10 N9A         2.9479    0.6234   -3.3440 N.pl3     1 COA        -0.5033
     11 C1B         1.4328    0.5815   -3.3775 C.3       1 COA         0.2693
     12 C2B         0.6799   -0.1567   -2.2458 C.3       1 COA         0.2008
     13 O2B         0.5449   -1.4388   -2.5302 O.co2     1 COA        -0.1615
     14 C3B        -0.6749    0.5672   -2.2968 C.3       1 COA         0.1111
     15 O3B        -1.4782    0.1594   -3.4088 O.3       1 COA         0.1618
     16 P3B        -3.0996    0.4363   -3.3454 P.3       1 COA        -1.1921
     17 O7A        -3.5828   -0.3425   -2.1254 O.co2     1 COA         0.3195
     18 O8A        -3.6001   -0.1211   -4.6746 O.co2     1 COA         0.3195
     19 O9A        -3.2339    1.9510   -3.2185 O.co2     1 COA         0.3195
     20 C4B        -0.2635    2.0121   -2.5599 C.3       1 COA         0.1111
     21 O4B         0.9490    1.9478   -3.3354 O.3       1 COA        -0.1436
     22 C5B         0.0275    2.8029   -1.2913 C.3       1 COA         0.1504
     23 O5B         0.3986    4.1249   -1.6460 O.3       1 COA         0.1618
     24 P1A         0.7670    5.1936   -0.4641 P.3       1 COA        -1.1062
     25 O1A         1.1289    6.5260   -1.0837 O.co2     1 COA         0.3195
     26 O2A         1.6876    4.5161    0.5275 O.co2     1 COA         0.3195
     27 O3A        -0.6886    5.3125    0.2679 O.3       1 COA         0.4672
     28 P2A        -1.1429    6.2040    1.5594 P.3       1 COA        -1.1062
     29 O4A        -2.6377    6.0612    1.7476 O.co2     1 COA         0.3195
     30 O5A        -0.1888    5.9134    2.6974 O.co2     1 COA         0.3195
     31 O6A        -0.8065    7.6957    0.9792 O.3       1 COA         0.1618
     32 CBP        -1.0090    9.5771   -0.5793 C.3       1 COA         0.0000
     33 CCP        -1.4652    8.1470   -0.1994 C.3       1 COA         0.1504
     34 CDP         0.5182    9.5632   -0.8289 C.3       1 COA         0.1179
     35 CEP        -1.6888   10.0085   -1.8940 C.3       1 COA         0.1179
     36 CAP        -1.3149   10.5877    0.5658 C.3       1 COA         0.0611
     37 OAP        -2.7163   10.6149    0.8239 O.3       1 COA        -0.2728
     38 C9P        -0.6314   10.2649    1.8928 C.2       1 COA         0.3561
     39 O9P         0.1432    9.3183    2.0197 O.2       1 COA        -0.2391
     40 N8P        -0.9621   11.1596    2.8978 N.am      1 COA        -0.1909
     41 C7P        -0.4209   11.0766    4.2348 C.3       1 COA         0.1160
     42 C6P         0.8633   11.8886    4.3197 C.3       1 COA         0.0286
     43 C5P         0.6435   13.3557    3.9970 C.2       1 COA         0.3561
     44 O5P        -0.4131   13.9413    4.2170 O.2       1 COA        -0.2391
     45 N4P         1.7731   13.9283    3.4311 N.am      1 COA        -0.1909
     46 C3P         1.8335   15.3141    3.0270 C.3       1 COA         0.1160
     47 C2P         1.3973   15.5267    1.5865 C.3       1 COA         0.2607
     48 S1P         2.4346   14.6080    0.4086 S.3       1 COA        -0.3539
     49 H2A         4.1666    2.6505    0.4351 H         1 COA        -0.1369
     50 H61A        8.1108    1.6399   -1.7121 H         1 COA         0.2048
     51 H62A        7.6305    0.8472   -3.1886 H         1 COA         0.2048
     52 H8A         3.4224   -0.3522   -5.2016 H         1 COA        -0.1292
     53 H1B         1.1905    0.2000   -4.4133 H         1 COA        -0.0393
     54 H2B         1.1486    0.1388   -1.2941 H         1 COA        -0.0393
     55 H3B        -1.2745    0.4471   -1.3878 H         1 COA        -0.0393
     56 H4B        -1.0100    2.5497   -3.1559 H         1 COA        -0.0393
     57 H51A        0.8489    2.3441   -0.7330 H         1 COA        -0.0393
     58 H52A       -0.8601    2.8452   -0.6531 H         1 COA        -0.0393
     59 H121       -1.2324    7.4355   -0.9984 H         1 COA        -0.0393
     60 H122       -2.5440    8.1138   -0.0133 H         1 COA        -0.0393
     61 H131        0.8796   10.5616   -1.1013 H         1 COA        -0.0393
     62 H132        0.7886    8.8842   -1.6454 H         1 COA        -0.0393
     63 H133        1.0681    9.2399    0.0618 H         1 COA        -0.0393
     64 H141       -1.3855   11.0192   -2.1904 H         1 COA        -0.0393
     65 H142       -2.7797   10.0132   -1.7903 H         1 COA        -0.0393
     66 H143       -1.4280    9.3402   -2.7211 H         1 COA        -0.0393
     67 H10        -1.0237   11.5996    0.2569 H         1 COA        -0.0393
     68 HO1        -2.9668    9.7148    1.0837 H         1 COA         0.2010
     69 HN8        -1.5912   11.9301    2.6933 H         1 COA         0.0865
     70 H71        -1.1627   11.4515    4.9471 H         1 COA        -0.0393
     71 H72        -0.2314   10.0271    4.4816 H         1 COA        -0.0393
     72 H61         1.6084   11.4891    3.6205 H         1 COA        -0.0393
     73 H62         1.2884   11.8166    5.3287 H         1 COA        -0.0393
     74 HN4         2.5950   13.3471    3.2946 H         1 COA         0.0865
     75 H31         1.1630   15.8569    3.6984 H         1 COA        -0.0393
     76 H32         2.8518   15.6675    3.2078 H         1 COA        -0.0393
     77 H21         0.3558   15.2216    1.4424 H         1 COA        -0.0393
     78 H22         1.4764   16.5896    1.3382 H         1 COA        -0.0393
     79 HS1         2.1661   13.3933    0.9056 H         1 COA         0.1718
@<TRIPOS>BOND
     1    1    2 ar
     2    1    6 ar
     3    2    3 ar
     4    2   49 1
     5    3    4 ar
     6    4    5 ar
     7    4   10 ar
     8    5    6 ar
     9    5    8 ar
    10    6    7 1
    11    7   50 1
    12    7   51 1
    13    8    9 ar
    14    9   10 ar
    15    9   52 1
    16   10   11 1
    17   11   12 1
    18   11   21 1
    19   11   53 1
    20   12   13 1
    21   12   14 1
    22   12   54 1
    23   14   15 1
    24   14   20 1
    25   14   55 1
    26   15   16 1
    27   16   17 2
    28   16   18 1
    29   16   19 1
    30   20   21 1
    31   20   22 1
    32   20   56 1
    33   22   23 1
    34   22   57 1
    35   22   58 1
    36   23   24 1
    37   24   25 2
    38   24   26 1
    39   24   27 1
    40   27   28 1
    41   28   29 2
    42   28   30 1
    43   28   31 1
    44   31   33 1
    45   32   33 1
    46   32   34 1
    47   32   35 1
    48   32   36 1
    49   33   59 1
    50   33   60 1
    51   34   61 1
    52   34   62 1
    53   34   63 1
    54   35   64 1
    55   35   65 1
    56   35   66 1
    57   36   37 1
    58   36   38 1
    59   36   67 1
    60   37   68 1
    61   38   39 2
    62   38   40 am
    63   40   41 1
    64   40   69 1
    65   41   42 1
    66   41   70 1
    67   41   71 1
    68   42   43 1
    69   42   72 1
    70   42   73 1
    71   43   44 2
    72   43   45 am
    73   45   46 1
    74   45   74 1
    75   46   47 1
    76   46   75 1
    77   46   76 1
    78   47   48 1
    79   47   77 1
    80   47   78 1
    81   48   79 1
@<TRIPOS>SUBSTRUCTURE
     1 COA         1 GROUP 0 A     ****
@<TRIPOS>MOLECULE
[5-(6-aminopurin-9-yl)-2-[[[[3-hydroxy-2,2-dimethyl-4-oxo-4-[[3-oxo-3-(2-sulfanylethylamino)propyl]amino]butoxy]-oxido-phosphoryl]oxy-oxido-phosphoryl]oxymethyl]-4-oxido-tetrahydrofuran-3-yl] phosphate
   79    81     1     0     0
SMALL
USER_CHARGES

@<TRIPOS>ATOM
      1 N1A        -3.9039    2.4517    1.8283 N.ar      1 COA        -0.5260
      2 C2A        -3.3295    3.2614    0.9063 C.ar      1 COA         0.6629
      3 N3A        -2.9870    2.9823   -0.3704 N.ar      1 COA        -0.5260
      4 C4A        -3.2951    1.7119   -0.6714 C.ar      1 COA         0.5212
      5 C5A        -3.8810    0.7714    0.1608 C.ar      1 COA         0.0088
      6 C6A        -4.1878    1.1807    1.4546 C.ar      1 COA         0.5212
      7 N6A        -4.7836    0.2924    2.3662 N.pl3     1 COA        -0.6025
      8 N7A        -4.0438   -0.4230   -0.4949 N.2       1 COA        -0.4271
      9 C8A        -3.5659   -0.2124   -1.7036 C.ar      1 COA         0.5691
     10 N9A        -3.1003    1.0663   -1.8591 N.pl3     1 COA        -0.5033
     11 C1B        -2.4828    1.6438   -3.1175 C.3       1 COA         0.2693
     12 C2B        -3.1527    2.8675   -3.7856 C.3       1 COA         0.2008
     13 O2B        -4.0894    2.4850   -4.6336 O.co2     1 COA        -0.1615
     14 C3B        -1.9491    3.4718   -4.5260 C.3       1 COA         0.1111
     15 O3B        -1.5961    2.7353   -5.7012 O.3       1 COA         0.1618
     16 P3B        -0.6948    3.4882   -6.8546 P.3       1 COA        -1.1921
     17 O7A        -1.5419    4.6766   -7.3000 O.co2     1 COA         0.3195
     18 O8A        -0.5270    2.4117   -7.9228 O.co2     1 COA         0.3195
     19 O9A         0.6037    3.8701   -6.1501 O.co2     1 COA         0.3195
     20 C4B        -0.8155    3.2705   -3.5257 C.3       1 COA         0.1111
     21 O4B        -1.1344    2.0698   -2.7962 O.3       1 COA        -0.1436
     22 C5B        -0.6774    4.4099   -2.5246 C.3       1 COA         0.1504
     23 O5B         0.3986    4.1249   -1.6460 O.3       1 COA         0.1618
     24 P1A         0.7670    5.1936   -0.4641 P.3       1 COA        -1.1062
     25 O1A         1.1289    6.5260   -1.0837 O.co2     1 COA         0.3195
     26 O2A         1.6876    4.5161    0.5275 O.co2     1 COA         0.3195
     27 O3A        -0.6886    5.3125    0.2679 O.3       1 COA         0.4672
     28 P2A        -1.1429    6.2040    1.5594 P.3       1 COA        -1.1062
     29 O4A        -2.6377    6.0612    1.7476 O.co2     1 COA         0.3195
     30 O5A        -0.1888    5.9134    2.6974 O.co2     1 COA         0.3195
     31 O6A        -0.8065    7.6957    0.9792 O.3       1 COA         0.1618
     32 CBP        -1.0090    9.5771   -0.5793 C.3       1 COA         0.0000
     33 CCP        -1.4652    8.1470   -0.1994 C.3       1 COA         0.1504
     34 CDP         0.5182    9.5632   -0.8289 C.3       1 COA         0.1179
     35 CEP        -1.6888   10.0085   -1.8940 C.3       1 COA         0.1179
     36 CAP        -1.3149   10.5877    0.5658 C.3       1 COA         0.0611
     37 OAP        -0.3519   11.6382    0.5524 O.3       1 COA        -0.2728
     38 C9P        -2.6876   11.2507    0.4734 C.2       1 COA         0.3561
     39 O9P        -2.8806   12.2731   -0.1822 O.2       1 COA        -0.2391
     40 N8P        -3.6636   10.5632    1.1768 N.am      1 COA        -0.1909
     41 C7P        -5.0458   10.9816    1.2180 C.3       1 COA         0.1160
     42 C6P        -5.1417   12.3775    1.8163 C.3       1 COA         0.0286
     43 C5P        -6.5726   12.8796    1.8890 C.2       1 COA         0.3561
     44 O5P        -7.5358   12.2229    1.5028 O.2       1 COA        -0.2391
     45 N4P        -6.6394   14.1523    2.4366 N.am      1 COA        -0.1909
     46 C3P        -7.8827   14.8656    2.6182 C.3       1 COA         0.1160
     47 C2P        -8.2562   15.7134    1.4132 C.3       1 COA         0.2607
     48 S1P        -6.9981   16.9720    1.0381 S.3       1 COA        -0.3539
     49 H2A        -3.1164    4.2717    1.2395 H         1 COA        -0.1369
     50 H61A       -4.9530    0.5922    3.3076 H         1 COA         0.2048
     51 H62A       -4.9456   -0.6585    2.0932 H         1 COA         0.2048
     52 H8A        -3.5298   -0.9412   -2.5018 H         1 COA        -0.1292
     53 H1B        -2.3698    0.7525   -3.8030 H         1 COA        -0.0393
     54 H2B        -3.4073    3.5789   -2.9846 H         1 COA        -0.0393
     55 H3B        -2.0891    4.5191   -4.8158 H         1 COA        -0.0393
     56 H4B         0.1478    3.1100   -4.0235 H         1 COA        -0.0393
     57 H51A       -1.5937    4.5171   -1.9365 H         1 COA        -0.0393
     58 H52A       -0.4707    5.3519   -3.0411 H         1 COA        -0.0393
     59 H121       -1.2324    7.4355   -0.9984 H         1 COA        -0.0393
     60 H122       -2.5440    8.1138   -0.0133 H         1 COA        -0.0393
     61 H131        0.8796   10.5616   -1.1013 H         1 COA        -0.0393
     62 H132        0.7886    8.8842   -1.6454 H         1 COA        -0.0393
     63 H133        1.0681    9.2399    0.0618 H         1 COA        -0.0393
     64 H141       -1.3855   11.0192   -2.1904 H         1 COA        -0.0393
     65 H142       -2.7797   10.0132   -1.7903 H         1 COA        -0.0393
     66 H143       -1.4280    9.3402   -2.7211 H         1 COA        -0.0393
     67 H10        -1.2314   10.0854    1.5378 H         1 COA        -0.0393
     68 HO1        -0.4241   12.0681   -0.3139 H         1 COA         0.2010
     69 HN8        -3.4169    9.7096    1.6684 H         1 COA         0.0865
     70 H71        -5.4563   10.9672    0.2034 H         1 COA        -0.0393
     71 H72        -5.6207   10.2656    1.8138 H         1 COA        -0.0393
     72 H61        -4.5574   13.0857    1.2156 H         1 COA        -0.0393
     73 H62        -4.7218   12.3825    2.8300 H         1 COA        -0.0393
     74 HN4        -5.7753   14.6031    2.7228 H         1 COA         0.0865
     75 H31        -8.6494   14.1044    2.7844 H         1 COA        -0.0393
     76 H32        -7.7929   15.4600    3.5309 H         1 COA        -0.0393
     77 H21        -8.3995   15.0908    0.5241 H         1 COA        -0.0393
     78 H22        -9.1964   16.2356    1.6163 H         1 COA        -0.0393
     79 HS1        -7.0769   17.6025    2.2174 H         1 COA         0.1718
@<TRIPOS>BOND
     1    1    2 ar
     2    1    6 ar
     3    2    3 ar
     4    2   49 1
     5    3    4 ar
     6    4    5 ar
     7    4   10 ar
     8    5    6 ar
     9    5    8 ar
    10    6    7 1
    11    7   50 1
    12    7   51 1
    13    8    9 ar
    14    9   10 ar
    15    9   52 1
    16   10   11 1
    17   11   12 1
    18   11   21 1
    19   11   53 1
    20   12   13 1
    21   12   14 1
    22   12   54 1
    23   14   15 1
    24   14   20 1
    25   14   55 1
    26   15   16 1
    27   16   17 2
    28   16   18 1
    29   16   19 1
    30   20   21 1
    31   20   22 1
    32   20   56 1
    33   22   23 1
    34   22   57 1
    35   22   58 1
    36   23   24 1
    37   24   25 2
    38   24   26 1
    39   24   27 1
    40   27   28 1
    41   28   29 2
    42   28   30 1
    43   28   31 1
    44   31   33 1
    45   32   33 1
    46   32   34 1
    47   32   35 1
    48   32   36 1
    49   33   59 1
    50   33   60 1
    51   34   61 1
    52   34   62 1
    53   34   63 1
    54   35   64 1
    55   35   65 1
    56   35   66 1
    57   36   37 1
    58   36   38 1
    59   36   67 1
    60   37   68 1
    61   38   39 2
    62   38   40 am
    63   40   41 1
    64   40   69 1
    65   41   42 1
    66   41   70 1
    67   41   71 1
    68   42   43 1
    69   42   72 1
    70   42   73 1
    71   43   44 2
    72   43   45 am
    73   45   46 1
    74   45   74 1
    75   46   47 1
    76   46   75 1
    77   46   76 1
    78   47   48 1
    79   47   77 1
    80   47   78 1
    81   48   79 1
@<TRIPOS>SUBSTRUCTURE
     1 COA         1 GROUP 0 A     ****
@<TRIPOS>MOLECULE
[5-(6-aminopurin-9-yl)-2-[[[[3-hydroxy-2,2-dimethyl-4-oxo-4-[[3-oxo-3-(2-sulfanylethylamino)propyl]amino]butoxy]-oxido-phosphoryl]oxy-oxido-phosphoryl]oxymethyl]-4-oxido-tetrahydrofuran-3-yl] phosphate
   79    81     1     0     0
SMALL
USER_CHARGES

@<TRIPOS>ATOM
      1 N1A         4.6908    0.9263    0.5284 N.ar      1 COA        -0.5260
      2 C2A         3.4193    1.3931    0.4919 C.ar      1 COA         0.6629
      3 N3A         2.4653    1.1803   -0.4405 N.ar      1 COA        -0.5260
      4 C4A         2.9338    0.3916   -1.4192 C.ar      1 COA         0.5212
      5 C5A         4.2020   -0.1580   -1.5185 C.ar      1 COA         0.0088
      6 C6A         5.0963    0.1348   -0.4937 C.ar      1 COA         0.5212
      7 N6A         6.4038   -0.3801   -0.5131 N.pl3     1 COA        -0.6025
      8 N7A         4.3170   -0.9111   -2.6598 N.2       1 COA        -0.4271
      9 C8A         3.1403   -0.8212   -3.2436 C.ar      1 COA         0.5691
     10 N9A         2.2683   -0.0422   -2.5302 N.pl3     1 COA        -0.5033
     11 C1B         0.8363    0.2748   -2.9142 C.3       1 COA         0.2693
     12 C2B        -0.3043   -0.1391   -1.9549 C.3       1 COA         0.2008
     13 O2B        -0.6991   -1.3747   -2.2004 O.co2     1 COA        -0.1615
     14 C3B        -1.3853    0.8773   -2.3558 C.3       1 COA         0.1111
     15 O3B        -2.0094    0.5576   -3.6033 O.3       1 COA         0.1618
     16 P3B        -3.4806    1.2180   -3.9334 P.3       1 COA        -1.1921
     17 O7A        -4.3962    0.7100   -2.8235 O.co2     1 COA         0.3195
     18 O8A        -3.8112    0.6588   -5.3140 O.co2     1 COA         0.3195
     19 O9A        -3.2466    2.7257   -3.9151 O.co2     1 COA         0.3195
     20 C4B        -0.5713    2.1464   -2.5855 C.3       1 COA         0.1111
     21 O4B         0.7211    1.7136   -3.0526 O.3       1 COA        -0.1436
     22 C5B        -0.3655    2.9745   -1.3239 C.3       1 COA         0.1504
     23 O5B         0.3986    4.1249   -1.6460 O.3       1 COA         0.1618
     24 P1A         0.7670    5.1936   -0.4641 P.3       1 COA        -1.1062
     25 O1A         1.1289    6.5260   -1.0837 O.co2     1 COA         0.3195
     26 O2A         1.6876    4.5161    0.5275 O.co2     1 COA         0.3195
     27 O3A        -0.6886    5.3125    0.2679 O.3       1 COA         0.4672
     28 P2A        -1.1429    6.2040    1.5594 P.3       1 COA        -1.1062
     29 O4A        -2.6377    6.0612    1.7476 O.co2     1 COA         0.3195
     30 O5A        -0.1888    5.9134    2.6974 O.co2     1 COA         0.3195
     31 O6A        -0.8065    7.6957    0.9792 O.3       1 COA         0.1618
     32 CBP        -1.0463    9.4480   -0.7182 C.3       1 COA         0.0000
     33 CCP        -1.7297    8.3208    0.0940 C.3       1 COA         0.1504
     34 CDP         0.1097    8.8359   -1.5452 C.3       1 COA         0.1179
     35 CEP        -2.0542   10.0578   -1.7127 C.3       1 COA         0.1179
     36 CAP        -0.4581   10.5415    0.2222 C.3       1 COA         0.0611
     37 OAP         0.1628   11.5628   -0.5541 O.3       1 COA        -0.2728
     38 C9P        -1.4903   11.2331    1.1103 C.2       1 COA         0.3561
     39 O9P        -2.1297   12.2135    0.7334 O.2       1 COA        -0.2391
     40 N8P        -1.6312   10.6209    2.3453 N.am      1 COA        -0.1909
     41 C7P        -2.5657   11.0776    3.3480 C.3       1 COA         0.1160
     42 C6P        -1.8923   12.1042    4.2472 C.3       1 COA         0.0286
     43 C5P        -0.6795   11.5390    4.9645 C.2       1 COA         0.3561
     44 O5P        -0.5753   10.3567    5.2795 O.2       1 COA        -0.2391
     45 N4P         0.2703   12.5195    5.2108 N.am      1 COA        -0.1909
     46 C3P         1.5208   12.2514    5.8830 C.3       1 COA         0.1160
     47 C2P         2.6345   11.8668    4.9229 C.3       1 COA         0.2607
     48 S1P         2.9807   13.1750    3.7078 S.3       1 COA        -0.3539
     49 H2A         3.1287    2.0232    1.3259 H         1 COA        -0.1369
     50 H61A        7.0472   -0.1189    0.2098 H         1 COA         0.2048
     51 H62A        6.7069   -0.9256   -1.2976 H         1 COA         0.2048
     52 H8A         2.8628   -1.2932   -4.1762 H         1 COA        -0.1292
     53 H1B         0.7316   -0.1451   -3.9582 H         1 COA        -0.0393
     54 H2B         0.0098    0.1350   -0.9357 H         1 COA        -0.0393
     55 H3B        -2.1756    1.0002   -1.6070 H         1 COA        -0.0393
     56 H4B        -1.0101    2.7804   -3.3646 H         1 COA        -0.0393
     57 H51A        0.1721    2.3946   -0.5677 H         1 COA        -0.0393
     58 H52A       -1.3279    3.2941   -0.9132 H         1 COA        -0.0393
     59 H121       -2.1262    7.5446   -0.5686 H         1 COA        -0.0393
     60 H122       -2.5562    8.7139    0.6956 H         1 COA        -0.0393
     61 H131        0.6194    9.6060   -2.1356 H         1 COA        -0.0393
     62 H132       -0.2524    8.0744   -2.2449 H         1 COA        -0.0393
     63 H133        0.8566    8.3597   -0.9005 H         1 COA        -0.0393
     64 H141       -1.5995   10.8607   -2.3043 H         1 COA        -0.0393
     65 H142       -2.9149   10.4873   -1.1878 H         1 COA        -0.0393
     66 H143       -2.4255    9.3094   -2.4205 H         1 COA        -0.0393
     67 H10         0.3192   10.1040    0.8613 H         1 COA        -0.0393
     68 HO1        -0.5280   11.9349   -1.1241 H         1 COA         0.2010
     69 HN8        -1.0789    9.7962    2.5598 H         1 COA         0.0865
     70 H71        -3.4403   11.5120    2.8534 H         1 COA        -0.0393
     71 H72        -2.9130   10.2202    3.9332 H         1 COA        -0.0393
     72 H61        -2.6016   12.4670    5.0015 H         1 COA        -0.0393
     73 H62        -1.5711   12.9703    3.6552 H         1 COA        -0.0393
     74 HN4         0.0780   13.4688    4.9047 H         1 COA         0.0865
     75 H31         1.7886   13.1725    6.4072 H         1 COA        -0.0393
     76 H32         1.3344   11.4779    6.6324 H         1 COA        -0.0393
     77 H21         3.5595   11.6426    5.4639 H         1 COA        -0.0393
     78 H22         2.3402   10.9700    4.3689 H         1 COA        -0.0393
     79 HS1         1.7539   13.1929    3.1702 H         1 COA         0.1718
@<TRIPOS>BOND
     1    1    2 ar
     2    1    6 ar
     3    2    3 ar
     4    2   49 1
     5    3    4 ar
     6    4    5 ar
     7    4   10 ar
     8    5    6 ar
     9    5    8 ar
    10    6    7 1
    11    7   50 1
    12    7   51 1
    13    8    9 ar
    14    9   10 ar
    15    9   52 1
    16   10   11 1
    17   11   12 1
    18   11   21 1
    19   11   53 1
    20   12   13 1
    21   12   14 1
    22   12   54 1
    23   14   15 1
    24   14   20 1
    25   14   55 1
    26   15   16 1
    27   16   17 2
    28   16   18 1
    29   16   19 1
    30   20   21 1
    31   20   22 1
    32   20   56 1
    33   22   23 1
    34   22   57 1
    35   22   58 1
    36   23   24 1
    37   24   25 2
    38   24   26 1
    39   24   27 1
    40   27   28 1
    41   28   29 2
    42   28   30 1
    43   28   31 1
    44   31   33 1
    45   32   33 1
    46   32   34 1
    47   32   35 1
    48   32   36 1
    49   33   59 1
    50   33   60 1
    51   34   61 1
    52   34   62 1
    53   34   63 1
    54   35   64 1
    55   35   65 1
    56   35   66 1
    57   36   37 1
    58   36   38 1
    59   36   67 1
    60   37   68 1
    61   38   39 2
    62   38   40 am
    63   40   41 1
    64   40   69 1
    65   41   42 1
    66   41   70 1
    67   41   71 1
    68   42   43 1
    69   42   72 1
    70   42   73 1
    71   43   44 2
    72   43   45 am
    73   45   46 1
    74   45   74 1
    75   46   47 1
    76   46   75 1
    77   46   76 1
    78   47   48 1
    79   47   77 1
    80   47   78 1
    81   48   79 1
@<TRIPOS>SUBSTRUCTURE
     1 COA         1 GROUP 0 A     ****
@<TRIPOS>MOLECULE
[5-(6-aminopurin-9-yl)-2-[[[[3-hydroxy-2,2-dimethyl-4-oxo-4-[[3-oxo-3-(2-sulfanylethylamino)propyl]amino]butoxy]-oxido-phosphoryl]oxy-oxido-phosphoryl]oxymethyl]-4-oxido-tetrahydrofuran-3-yl] phosphate
   79    81     1     0     0
SMALL
USER_CHARGES

@<TRIPOS>ATOM
      1 N1A         4.6908    0.9263    0.5284 N.ar      1 COA        -0.5260
      2 C2A         3.4193    1.3931    0.4919 C.ar      1 COA         0.6629
      3 N3A         2.4653    1.1803   -0.4405 N.ar      1 COA        -0.5260
      4 C4A         2.9338    0.3916   -1.4192 C.ar      1 COA         0.5212
      5 C5A         4.2020   -0.1580   -1.5185 C.ar      1 COA         0.0088
      6 C6A         5.0963    0.1348   -0.4937 C.ar      1 COA         0.5212
      7 N6A         6.4038   -0.3801   -0.5131 N.pl3     1 COA        -0.6025
      8 N7A         4.3170   -0.9111   -2.6598 N.2       1 COA        -0.4271
      9 C8A         3.1403   -0.8212   -3.2436 C.ar      1 COA         0.5691
     10 N9A         2.2683   -0.0422   -2.5302 N.pl3     1 COA        -0.5033
     11 C1B         0.8363    0.2748   -2.9142 C.3       1 COA         0.2693
     12 C2B        -0.3043   -0.1391   -1.9549 C.3       1 COA         0.2008
     13 O2B        -0.6991   -1.3747   -2.2004 O.co2     1 COA        -0.1615
     14 C3B        -1.3853    0.8773   -2.3558 C.3       1 COA         0.1111
     15 O3B        -2.0094    0.5576   -3.6033 O.3       1 COA         0.1618
     16 P3B        -3.4806    1.2180   -3.9334 P.3       1 COA        -1.1921
     17 O7A        -4.3962    0.7100   -2.8235 O.co2     1 COA         0.3195
     18 O8A        -3.8112    0.6588   -5.3140 O.co2     1 COA         0.3195
     19 O9A        -3.2466    2.7257   -3.9151 O.co2     1 COA         0.3195
     20 C4B        -0.5713    2.1464   -2.5855 C.3       1 COA         0.1111
     21 O4B         0.7211    1.7136   -3.0526 O.3       1 COA        -0.1436
     22 C5B        -0.3655    2.9745   -1.3239 C.3       1 COA         0.1504
     23 O5B         0.3986    4.1249   -1.6460 O.3       1 COA         0.1618
     24 P1A         0.7670    5.1936   -0.4641 P.3       1 COA        -1.1062
     25 O1A         1.1289    6.5260   -1.0837 O.co2     1 COA         0.3195
     26 O2A         1.6876    4.5161    0.5275 O.co2     1 COA         0.3195
     27 O3A        -0.6886    5.3125    0.2679 O.3       1 COA         0.4672
     28 P2A        -1.1429    6.2040    1.5594 P.3       1 COA        -1.1062
     29 O4A        -2.6377    6.0612    1.7476 O.co2     1 COA         0.3195
     30 O5A        -0.1888    5.9134    2.6974 O.co2     1 COA         0.3195
     31 O6A        -0.8065    7.6957    0.9792 O.3       1 COA         0.1618
     32 CBP        -1.0463    9.4480   -0.7182 C.3       1 COA         0.0000
     33 CCP        -1.7297    8.3208    0.0940 C.3       1 COA         0.1504
     34 CDP         0.1097    8.8359   -1.5452 C.3       1 COA         0.1179
     35 CEP        -2.0542   10.0578   -1.7127 C.3       1 COA         0.1179
     36 CAP        -0.4581   10.5415    0.2222 C.3       1 COA         0.0611
     37 OAP         0.1628   11.5628   -0.5541 O.3       1 COA        -0.2728
     38 C9P        -1.4903   11.2331    1.1103 C.2       1 COA         0.3561
     39 O9P        -2.1297   12.2135    0.7334 O.2       1 COA        -0.2391
     40 N8P        -1.6312   10.6209    2.3453 N.am      1 COA        -0.1909
     41 C7P        -2.5657   11.0776    3.3480 C.3       1 COA         0.1160
     42 C6P        -1.8923   12.1042    4.2472 C.3       1 COA         0.0286
     43 C5P        -2.8224   12.6272    5.3271 C.2       1 COA         0.3561
     44 O5P        -3.9866   12.2562    5.4490 O.2       1 COA        -0.2391
     45 N4P        -2.1911   13.5609    6.1357 N.am      1 COA        -0.1909
     46 C3P        -2.8508   14.2179    7.2405 C.3       1 COA         0.1160
     47 C2P        -2.7028   13.4598    8.5495 C.3       1 COA         0.2607
     48 S1P        -0.9626   13.2636    9.0404 S.3       1 COA        -0.3539
     49 H2A         3.1287    2.0232    1.3259 H         1 COA        -0.1369
     50 H61A        7.0472   -0.1189    0.2098 H         1 COA         0.2048
     51 H62A        6.7069   -0.9256   -1.2976 H         1 COA         0.2048
     52 H8A         2.8628   -1.2932   -4.1762 H         1 COA        -0.1292
     53 H1B         0.7316   -0.1451   -3.9582 H         1 COA        -0.0393
     54 H2B         0.0098    0.1350   -0.9357 H         1 COA        -0.0393
     55 H3B        -2.1756    1.0002   -1.6070 H         1 COA        -0.0393
     56 H4B        -1.0101    2.7804   -3.3646 H         1 COA        -0.0393
     57 H51A        0.1721    2.3946   -0.5677 H         1 COA        -0.0393
     58 H52A       -1.3279    3.2941   -0.9132 H         1 COA        -0.0393
     59 H121       -2.1262    7.5446   -0.5686 H         1 COA        -0.0393
     60 H122       -2.5562    8.7139    0.6956 H         1 COA        -0.0393
     61 H131        0.6194    9.6060   -2.1356 H         1 COA        -0.0393
     62 H132       -0.2524    8.0744   -2.2449 H         1 COA        -0.0393
     63 H133        0.8566    8.3597   -0.9005 H         1 COA        -0.0393
     64 H141       -1.5995   10.8607   -2.3043 H         1 COA        -0.0393
     65 H142       -2.9149   10.4873   -1.1878 H         1 COA        -0.0393
     66 H143       -2.4255    9.3094   -2.4205 H         1 COA        -0.0393
     67 H10         0.3192   10.1040    0.8613 H         1 COA        -0.0393
     68 HO1        -0.5280   11.9349   -1.1241 H         1 COA         0.2010
     69 HN8        -1.0789    9.7962    2.5598 H         1 COA         0.0865
     70 H71        -3.4403   11.5120    2.8534 H         1 COA        -0.0393
     71 H72        -2.9130   10.2202    3.9332 H         1 COA        -0.0393
     72 H61        -1.5426   12.9558    3.6504 H         1 COA        -0.0393
     73 H62        -1.0138   11.6609    4.7327 H         1 COA        -0.0393
     74 HN4        -1.2213   13.7931    5.9425 H         1 COA         0.0865
     75 H31        -2.3856   15.2030    7.3311 H         1 COA        -0.0393
     76 H32        -3.8977   14.3628    6.9619 H         1 COA        -0.0393
     77 H21        -3.2364   13.9671    9.3598 H         1 COA        -0.0393
     78 H22        -3.1300   12.4584    8.4374 H         1 COA        -0.0393
     79 HS1        -0.6907   14.5732    9.1135 H         1 COA         0.1718
@<TRIPOS>BOND
     1    1    2 ar
     2    1    6 ar
     3    2    3 ar
     4    2   49 1
     5    3    4 ar
     6    4    5 ar
     7    4   10 ar
     8    5    6 ar
     9    5    8 ar
    10    6    7 1
    11    7   50 1
    12    7   51 1
    13    8    9 ar
    14    9   10 ar
    15    9   52 1
    16   10   11 1
    17   11   12 1
    18   11   21 1
    19   11   53 1
    20   12   13 1
    21   12   14 1
    22   12   54 1
    23   14   15 1
    24   14   20 1
    25   14   55 1
    26   15   16 1
    27   16   17 2
    28   16   18 1
    29   16   19 1
    30   20   21 1
    31   20   22 1
    32   20   56 1
    33   22   23 1
    34   22   57 1
    35   22   58 1
    36   23   24 1
    37   24   25 2
    38   24   26 1
    39   24   27 1
    40   27   28 1
    41   28   29 2
    42   28   30 1
    43   28   31 1
    44   31   33 1
    45   32   33 1
    46   32   34 1
    47   32   35 1
    48   32   36 1
    49   33   59 1
    50   33   60 1
    51   34   61 1
    52   34   62 1
    53   34   63 1
    54   35   64 1
    55   35   65 1
    56   35   66 1
    57   36   37 1
    58   36   38 1
    59   36   67 1
    60   37   68 1
    61   38   39 2
    62   38   40 am
    63   40   41 1
    64   40   69 1
    65   41   42 1
    66   41   70 1
    67   41   71 1
    68   42   43 1
    69   42   72 1
    70   42   73 1
    71   43   44 2
    72   43   45 am
    73   45   46 1
    74   45   74 1
    75   46   47 1
    76   46   75 1
    77   46   76 1
    78   47   48 1
    79   47   77 1
    80   47   78 1
    81   48   79 1
@<TRIPOS>SUBSTRUCTURE
     1 COA         1 GROUP 0 A     ****
@<TRIPOS>MOLECULE
[5-(6-aminopurin-9-yl)-2-[[[[3-hydroxy-2,2-dimethyl-4-oxo-4-[[3-oxo-3-(2-sulfanylethylamino)propyl]amino]butoxy]-oxido-phosphoryl]oxy-oxido-phosphoryl]oxymethyl]-4-oxido-tetrahydrofuran-3-yl] phosphate
   79    81     1     0     0
SMALL
USER_CHARGES

@<TRIPOS>ATOM
      1 N1A         5.7146    2.0302   -0.7890 N.ar      1 COA        -0.5260
      2 C2A         4.3962    2.1571   -0.5034 C.ar      1 COA         0.6629
      3 N3A         3.3299    1.7526   -1.2276 N.ar      1 COA        -0.5260
      4 C4A         3.7311    1.1587   -2.3614 C.ar      1 COA         0.5212
      5 C5A         5.0346    0.9576   -2.7868 C.ar      1 COA         0.0088
      6 C6A         6.0470    1.4195   -1.9517 C.ar      1 COA         0.5212
      7 N6A         7.3978    1.2581   -2.3043 N.pl3     1 COA        -0.6025
      8 N7A         5.0562    0.3154   -3.9993 N.2       1 COA        -0.4271
      9 C8A         3.7892    0.1293   -4.3054 C.ar      1 COA         0.5691
     10 N9A         2.9479    0.6234   -3.3440 N.pl3     1 COA        -0.5033
     11 C1B         1.4328    0.5815   -3.3775 C.3       1 COA         0.2693
     12 C2B         0.6799   -0.1567   -2.2458 C.3       1 COA         0.2008
     13 O2B         0.5449   -1.4388   -2.5302 O.co2     1 COA        -0.1615
     14 C3B        -0.6749    0.5672   -2.2968 C.3       1 COA         0.1111
     15 O3B        -1.4782    0.1594   -3.4088 O.3       1 COA         0.1618
     16 P3B        -3.0996    0.4363   -3.3454 P.3       1 COA        -1.1921
     17 O7A        -3.5828   -0.3425   -2.1254 O.co2     1 COA         0.3195
     18 O8A        -3.6001   -0.1211   -4.6746 O.co2     1 COA         0.3195
     19 O9A        -3.2339    1.9510   -3.2185 O.co2     1 COA         0.3195
     20 C4B        -0.2635    2.0121   -2.5599 C.3       1 COA         0.1111
     21 O4B         0.9490    1.9478   -3.3354 O.3       1 COA        -0.1436
     22 C5B         0.0275    2.8029   -1.2913 C.3       1 COA         0.1504
     23 O5B         0.3986    4.1249   -1.6460 O.3       1 COA         0.1618
     24 P1A         0.7670    5.1936   -0.4641 P.3       1 COA        -1.1062
     25 O1A         1.1289    6.5260   -1.0837 O.co2     1 COA         0.3195
     26 O2A         1.6876    4.5161    0.5275 O.co2     1 COA         0.3195
     27 O3A        -0.6886    5.3125    0.2679 O.3       1 COA         0.4672
     28 P2A        -1.1429    6.2040    1.5594 P.3       1 COA        -1.1062
     29 O4A        -2.6377    6.0612    1.7476 O.co2     1 COA         0.3195
     30 O5A        -0.1888    5.9134    2.6974 O.co2     1 COA         0.3195
     31 O6A        -0.8065    7.6957    0.9792 O.3       1 COA         0.1618
     32 CBP        -1.0090    9.5771   -0.5793 C.3       1 COA         0.0000
     33 CCP        -1.4652    8.1470   -0.1994 C.3       1 COA         0.1504
     34 CDP         0.5182    9.5632   -0.8289 C.3       1 COA         0.1179
     35 CEP        -1.6888   10.0085   -1.8940 C.3       1 COA         0.1179
     36 CAP        -1.3149   10.5877    0.5658 C.3       1 COA         0.0611
     37 OAP        -2.7163   10.6149    0.8239 O.3       1 COA        -0.2728
     38 C9P        -0.6314   10.2649    1.8928 C.2       1 COA         0.3561
     39 O9P         0.1432    9.3183    2.0197 O.2       1 COA        -0.2391
     40 N8P        -0.9621   11.1596    2.8978 N.am      1 COA        -0.1909
     41 C7P        -0.4209   11.0766    4.2348 C.3       1 COA         0.1160
     42 C6P        -1.3208   10.2056    5.0993 C.3       1 COA         0.0286
     43 C5P        -2.7326   10.7542    5.2021 C.2       1 COA         0.3561
     44 O5P        -3.0944   11.7876    4.6461 O.2       1 COA        -0.2391
     45 N4P        -3.5370    9.9474    5.9935 N.am      1 COA        -0.1909
     46 C3P        -4.9266   10.2412    6.2584 C.3       1 COA         0.1160
     47 C2P        -5.1208   11.0997    7.4975 C.3       1 COA         0.2607
     48 S1P        -4.4749   10.3012    8.9985 S.3       1 COA        -0.3539
     49 H2A         4.1666    2.6505    0.4351 H         1 COA        -0.1369
     50 H61A        8.1108    1.6399   -1.7121 H         1 COA         0.2048
     51 H62A        7.6305    0.8472   -3.1886 H         1 COA         0.2048
     52 H8A         3.4224   -0.3522   -5.2016 H         1 COA        -0.1292
     53 H1B         1.1905    0.2000   -4.4133 H         1 COA        -0.0393
     54 H2B         1.1486    0.1388   -1.2941 H         1 COA        -0.0393
     55 H3B        -1.2745    0.4471   -1.3878 H         1 COA        -0.0393
     56 H4B        -1.0100    2.5497   -3.1559 H         1 COA        -0.0393
     57 H51A        0.8489    2.3441   -0.7330 H         1 COA        -0.0393
     58 H52A       -0.8601    2.8452   -0.6531 H         1 COA        -0.0393
     59 H121       -1.2324    7.4355   -0.9984 H         1 COA        -0.0393
     60 H122       -2.5440    8.1138   -0.0133 H         1 COA        -0.0393
     61 H131        0.8796   10.5616   -1.1013 H         1 COA        -0.0393
     62 H132        0.7886    8.8842   -1.6454 H         1 COA        -0.0393
     63 H133        1.0681    9.2399    0.0618 H         1 COA        -0.0393
     64 H141       -1.3855   11.0192   -2.1904 H         1 COA        -0.0393
     65 H142       -2.7797   10.0132   -1.7903 H         1 COA        -0.0393
     66 H143       -1.4280    9.3402   -2.7211 H         1 COA        -0.0393
     67 H10        -1.0237   11.5996    0.2569 H         1 COA        -0.0393
     68 HO1        -2.9668    9.7148    1.0837 H         1 COA         0.2010
     69 HN8        -1.5912   11.9301    2.6933 H         1 COA         0.0865
     70 H71         0.5904   10.6603    4.1882 H         1 COA        -0.0393
     71 H72        -0.3409   12.0847    4.6537 H         1 COA        -0.0393
     72 H61        -0.9069   10.1254    6.1122 H         1 COA        -0.0393
     73 H62        -1.3736    9.1910    4.6851 H         1 COA        -0.0393
     74 HN4        -3.1308    9.1124    6.4053 H         1 COA         0.0865
     75 H31        -5.2984   10.7743    5.3794 H         1 COA        -0.0393
     76 H32        -5.4589    9.2891    6.3266 H         1 COA        -0.0393
     77 H21        -4.6297   12.0714    7.3831 H         1 COA        -0.0393
     78 H22        -6.1900   11.2764    7.6507 H         1 COA        -0.0393
     79 HS1        -3.2089   10.2064    8.5711 H         1 COA         0.1718
@<TRIPOS>BOND
     1    1    2 ar
     2    1    6 ar
     3    2    3 ar
     4    2   49 1
     5    3    4 ar
     6    4    5 ar
     7    4   10 ar
     8    5    6 ar
     9    5    8 ar
    10    6    7 1
    11    7   50 1
    12    7   51 1
    13    8    9 ar
    14    9   10 ar
    15    9   52 1
    16   10   11 1
    17   11   12 1
    18   11   21 1
    19   11   53 1
    20   12   13 1
    21   12   14 1
    22   12   54 1
    23   14   15 1
    24   14   20 1
    25   14   55 1
    26   15   16 1
    27   16   17 2
    28   16   18 1
    29   16   19 1
    30   20   21 1
    31   20   22 1
    32   20   56 1
    33   22   23 1
    34   22   57 1
    35   22   58 1
    36   23   24 1
    37   24   25 2
    38   24   26 1
    39   24   27 1
    40   27   28 1
    41   28   29 2
    42   28   30 1
    43   28   31 1
    44   31   33 1
    45   32   33 1
    46   32   34 1
    47   32   35 1
    48   32   36 1
    49   33   59 1
    50   33   60 1
    51   34   61 1
    52   34   62 1
    53   34   63 1
    54   35   64 1
    55   35   65 1
    56   35   66 1
    57   36   37 1
    58   36   38 1
    59   36   67 1
    60   37   68 1
    61   38   39 2
    62   38   40 am
    63   40   41 1
    64   40   69 1
    65   41   42 1
    66   41   70 1
    67   41   71 1
    68   42   43 1
    69   42   72 1
    70   42   73 1
    71   43   44 2
    72   43   45 am
    73   45   46 1
    74   45   74 1
    75   46   47 1
    76   46   75 1
    77   46   76 1
    78   47   48 1
    79   47   77 1
    80   47   78 1
    81   48   79 1
@<TRIPOS>SUBSTRUCTURE
     1 COA         1 GROUP 0 A     ****
@<TRIPOS>MOLECULE
[5-(6-aminopurin-9-yl)-2-[[[[3-hydroxy-2,2-dimethyl-4-oxo-4-[[3-oxo-3-(2-sulfanylethylamino)propyl]amino]butoxy]-oxido-phosphoryl]oxy-oxido-phosphoryl]oxymethyl]-4-oxido-tetrahydrofuran-3-yl] phosphate
   79    81     1     0     0
SMALL
USER_CHARGES

@<TRIPOS>ATOM
      1 N1A        -3.9039    2.4517    1.8283 N.ar      1 COA        -0.5260
      2 C2A        -3.3295    3.2614    0.9063 C.ar      1 COA         0.6629
      3 N3A        -2.9870    2.9823   -0.3704 N.ar      1 COA        -0.5260
      4 C4A        -3.2951    1.7119   -0.6714 C.ar      1 COA         0.5212
      5 C5A        -3.8810    0.7714    0.1608 C.ar      1 COA         0.0088
      6 C6A        -4.1878    1.1807    1.4546 C.ar      1 COA         0.5212
      7 N6A        -4.7836    0.2924    2.3662 N.pl3     1 COA        -0.6025
      8 N7A        -4.0438   -0.4230   -0.4949 N.2       1 COA        -0.4271
      9 C8A        -3.5659   -0.2124   -1.7036 C.ar      1 COA         0.5691
     10 N9A        -3.1003    1.0663   -1.8591 N.pl3     1 COA        -0.5033
     11 C1B        -2.4828    1.6438   -3.1175 C.3       1 COA         0.2693
     12 C2B        -3.1527    2.8675   -3.7856 C.3       1 COA         0.2008
     13 O2B        -4.0894    2.4850   -4.6336 O.co2     1 COA        -0.1615
     14 C3B        -1.9491    3.4718   -4.5260 C.3       1 COA         0.1111
     15 O3B        -1.5961    2.7353   -5.7012 O.3       1 COA         0.1618
     16 P3B        -0.6948    3.4882   -6.8546 P.3       1 COA        -1.1921
     17 O7A        -1.5419    4.6766   -7.3000 O.co2     1 COA         0.3195
     18 O8A        -0.5270    2.4117   -7.9228 O.co2     1 COA         0.3195
     19 O9A         0.6037    3.8701   -6.1501 O.co2     1 COA         0.3195
     20 C4B        -0.8155    3.2705   -3.5257 C.3       1 COA         0.1111
     21 O4B        -1.1344    2.0698   -2.7962 O.3       1 COA        -0.1436
     22 C5B        -0.6774    4.4099   -2.5246 C.3       1 COA         0.1504
     23 O5B         0.3986    4.1249   -1.6460 O.3       1 COA         0.1618
     24 P1A         0.7670    5.1936   -0.4641 P.3       1 COA        -1.1062
     25 O1A         1.1289    6.5260   -1.0837 O.co2     1 COA         0.3195
     26 O2A         1.6876    4.5161    0.5275 O.co2     1 COA         0.3195
     27 O3A        -0.6886    5.3125    0.2679 O.3       1 COA         0.4672
     28 P2A        -1.1429    6.2040    1.5594 P.3       1 COA        -1.1062
     29 O4A        -2.6377    6.0612    1.7476 O.co2     1 COA         0.3195
     30 O5A        -0.1888    5.9134    2.6974 O.co2     1 COA         0.3195
     31 O6A        -0.8065    7.6957    0.9792 O.3       1 COA         0.1618
     32 CBP        -1.0090    9.5771   -0.5793 C.3       1 COA         0.0000
     33 CCP        -1.4652    8.1470   -0.1994 C.3       1 COA         0.1504
     34 CDP         0.5182    9.5632   -0.8289 C.3       1 COA         0.1179
     35 CEP        -1.6888   10.0085   -1.8940 C.3       1 COA         0.1179
     36 CAP        -1.3149   10.5877    0.5658 C.3       1 COA         0.0611
     37 OAP        -2.6150   11.1430    0.3849 O.3       1 COA        -0.2728
     38 C9P        -1.2888    9.9815    1.9673 C.2       1 COA         0.3561
     39 O9P        -2.2761    9.4494    2.4714 O.2       1 COA        -0.2391
     40 N8P        -0.0453   10.0792    2.5706 N.am      1 COA        -0.1909
     41 C7P         0.2338    9.5548    3.8876 C.3       1 COA         0.1160
     42 C6P         0.6807   10.6837    4.8051 C.3       1 COA         0.0286
     43 C5P         0.9912   10.1997    6.2102 C.2       1 COA         0.3561
     44 O5P         0.8873    9.0257    6.5550 O.2       1 COA        -0.2391
     45 N4P         1.3965   11.2420    7.0308 N.am      1 COA        -0.1909
     46 C3P         1.7507   11.0572    8.4193 C.3       1 COA         0.1160
     47 C2P         3.2275   10.7553    8.6148 C.3       1 COA         0.2607
     48 S1P         4.2933   12.0906    7.9915 S.3       1 COA        -0.3539
     49 H2A        -3.1164    4.2717    1.2395 H         1 COA        -0.1369
     50 H61A       -4.9530    0.5922    3.3076 H         1 COA         0.2048
     51 H62A       -4.9456   -0.6585    2.0932 H         1 COA         0.2048
     52 H8A        -3.5298   -0.9412   -2.5018 H         1 COA        -0.1292
     53 H1B        -2.3698    0.7525   -3.8030 H         1 COA        -0.0393
     54 H2B        -3.4073    3.5789   -2.9846 H         1 COA        -0.0393
     55 H3B        -2.0891    4.5191   -4.8158 H         1 COA        -0.0393
     56 H4B         0.1478    3.1100   -4.0235 H         1 COA        -0.0393
     57 H51A       -1.5937    4.5171   -1.9365 H         1 COA        -0.0393
     58 H52A       -0.4707    5.3519   -3.0411 H         1 COA        -0.0393
     59 H121       -1.2324    7.4355   -0.9984 H         1 COA        -0.0393
     60 H122       -2.5440    8.1138   -0.0133 H         1 COA        -0.0393
     61 H131        0.8796   10.5616   -1.1013 H         1 COA        -0.0393
     62 H132        0.7886    8.8842   -1.6454 H         1 COA        -0.0393
     63 H133        1.0681    9.2399    0.0618 H         1 COA        -0.0393
     64 H141       -1.3855   11.0192   -2.1904 H         1 COA        -0.0393
     65 H142       -2.7797   10.0132   -1.7903 H         1 COA        -0.0393
     66 H143       -1.4280    9.3402   -2.7211 H         1 COA        -0.0393
     67 H10        -0.6003   11.4196    0.5288 H         1 COA        -0.0393
     68 HO1        -3.2380   10.4002    0.4064 H         1 COA         0.2010
     69 HN8         0.7221   10.5122    2.0658 H         1 COA         0.0865
     70 H71        -0.6662    9.0712    4.2804 H         1 COA        -0.0393
     71 H72         1.0110    8.7877    3.8121 H         1 COA        -0.0393
     72 H61        -0.1022   11.4496    4.8689 H         1 COA        -0.0393
     73 H62         1.5790   11.1657    4.3993 H         1 COA        -0.0393
     74 HN4         1.4464   12.1774    6.6379 H         1 COA         0.0865
     75 H31         1.4960   11.9918    8.9258 H         1 COA        -0.0393
     76 H32         1.1099   10.2688    8.8221 H         1 COA        -0.0393
     77 H21         3.4585   10.5925    9.6725 H         1 COA        -0.0393
     78 H22         3.4853    9.8432    8.0675 H         1 COA        -0.0393
     79 HS1         3.8680   12.0268    6.7229 H         1 COA         0.1718
@<TRIPOS>BOND
     1    1    2 ar
     2    1    6 ar
     3    2    3 ar
     4    2   49 1
     5    3    4 ar
     6    4    5 ar
     7    4   10 ar
     8    5    6 ar
     9    5    8 ar
    10    6    7 1
    11    7   50 1
    12    7   51 1
    13    8    9 ar
    14    9   10 ar
    15    9   52 1
    16   10   11 1
    17   11   12 1
    18   11   21 1
    19   11   53 1
    20   12   13 1
    21   12   14 1
    22   12   54 1
    23   14   15 1
    24   14   20 1
    25   14   55 1
    26   15   16 1
    27   16   17 2
    28   16   18 1
    29   16   19 1
    30   20   21 1
    31   20   22 1
    32   20   56 1
    33   22   23 1
    34   22   57 1
    35   22   58 1
    36   23   24 1
    37   24   25 2
    38   24   26 1
    39   24   27 1
    40   27   28 1
    41   28   29 2
    42   28   30 1
    43   28   31 1
    44   31   33 1
    45   32   33 1
    46   32   34 1
    47   32   35 1
    48   32   36 1
    49   33   59 1
    50   33   60 1
    51   34   61 1
    52   34   62 1
    53   34   63 1
    54   35   64 1
    55   35   65 1
    56   35   66 1
    57   36   37 1
    58   36   38 1
    59   36   67 1
    60   37   68 1
    61   38   39 2
    62   38   40 am
    63   40   41 1
    64   40   69 1
    65   41   42 1
    66   41   70 1
    67   41   71 1
    68   42   43 1
    69   42   72 1
    70   42   73 1
    71   43   44 2
    72   43   45 am
    73   45   46 1
    74   45   74 1
    75   46   47 1
    76   46   75 1
    77   46   76 1
    78   47   48 1
    79   47   77 1
    80   47   78 1
    81   48   79 1
@<TRIPOS>SUBSTRUCTURE
     1 COA         1 GROUP 0 A     ****
@<TRIPOS>MOLECULE
[5-(6-aminopurin-9-yl)-2-[[[[3-hydroxy-2,2-dimethyl-4-oxo-4-[[3-oxo-3-(2-sulfanylethylamino)propyl]amino]butoxy]-oxido-phosphoryl]oxy-oxido-phosphoryl]oxymethyl]-4-oxido-tetrahydrofuran-3-yl] phosphate
   79    81     1     0     0
SMALL
USER_CHARGES

@<TRIPOS>ATOM
      1 N1A        -3.9039    2.4517    1.8283 N.ar      1 COA        -0.5260
      2 C2A        -3.3295    3.2614    0.9063 C.ar      1 COA         0.6629
      3 N3A        -2.9870    2.9823   -0.3704 N.ar      1 COA        -0.5260
      4 C4A        -3.2951    1.7119   -0.6714 C.ar      1 COA         0.5212
      5 C5A        -3.8810    0.7714    0.1608 C.ar      1 COA         0.0088
      6 C6A        -4.1878    1.1807    1.4546 C.ar      1 COA         0.5212
      7 N6A        -4.7836    0.2924    2.3662 N.pl3     1 COA        -0.6025
      8 N7A        -4.0438   -0.4230   -0.4949 N.2       1 COA        -0.4271
      9 C8A        -3.5659   -0.2124   -1.7036 C.ar      1 COA         0.5691
     10 N9A        -3.1003    1.0663   -1.8591 N.pl3     1 COA        -0.5033
     11 C1B        -2.4828    1.6438   -3.1175 C.3       1 COA         0.2693
     12 C2B        -3.1527    2.8675   -3.7856 C.3       1 COA         0.2008
     13 O2B        -4.0894    2.4850   -4.6336 O.co2     1 COA        -0.1615
     14 C3B        -1.9491    3.4718   -4.5260 C.3       1 COA         0.1111
     15 O3B        -1.5961    2.7353   -5.7012 O.3       1 COA         0.1618
     16 P3B        -0.6948    3.4882   -6.8546 P.3       1 COA        -1.1921
     17 O7A        -1.5419    4.6766   -7.3000 O.co2     1 COA         0.3195
     18 O8A        -0.5270    2.4117   -7.9228 O.co2     1 COA         0.3195
     19 O9A         0.6037    3.8701   -6.1501 O.co2     1 COA         0.3195
     20 C4B        -0.8155    3.2705   -3.5257 C.3       1 COA         0.1111
     21 O4B        -1.1344    2.0698   -2.7962 O.3       1 COA        -0.1436
     22 C5B        -0.6774    4.4099   -2.5246 C.3       1 COA         0.1504
     23 O5B         0.3986    4.1249   -1.6460 O.3       1 COA         0.1618
     24 P1A         0.7670    5.1936   -0.4641 P.3       1 COA        -1.1062
     25 O1A         1.1289    6.5260   -1.0837 O.co2     1 COA         0.3195
     26 O2A         1.6876    4.5161    0.5275 O.co2     1 COA         0.3195
     27 O3A        -0.6886    5.3125    0.2679 O.3       1 COA         0.4672
     28 P2A        -1.1429    6.2040    1.5594 P.3       1 COA        -1.1062
     29 O4A        -2.6377    6.0612    1.7476 O.co2     1 COA         0.3195
     30 O5A        -0.1888    5.9134    2.6974 O.co2     1 COA         0.3195
     31 O6A        -0.8065    7.6957    0.9792 O.3       1 COA         0.1618
     32 CBP        -1.0090    9.5771   -0.5793 C.3       1 COA         0.0000
     33 CCP        -1.4652    8.1470   -0.1994 C.3       1 COA         0.1504
     34 CDP         0.5182    9.5632   -0.8289 C.3       1 COA         0.1179
     35 CEP        -1.6888   10.0085   -1.8940 C.3       1 COA         0.1179
     36 CAP        -1.3149   10.5877    0.5658 C.3       1 COA         0.0611
     37 OAP        -1.2622    9.9213    1.8245 O.3       1 COA        -0.2728
     38 C9P        -0.3407   11.7608    0.6502 C.2       1 COA         0.3561
     39 O9P         0.7104   11.6974    1.2852 O.2       1 COA        -0.2391
     40 N8P        -0.7630   12.8619   -0.0771 N.am      1 COA        -0.1909
     41 C7P         0.0024   14.0836   -0.1712 C.3       1 COA         0.1160
     42 C6P         0.9441   14.0084   -1.3643 C.3       1 COA         0.0286
     43 C5P         0.2033   13.8213   -2.6761 C.2       1 COA         0.3561
     44 O5P        -1.0197   13.7394   -2.7517 O.2       1 COA        -0.2391
     45 N4P         1.0778   13.7550   -3.7508 N.am      1 COA        -0.1909
     46 C3P         0.6351   13.5777   -5.1147 C.3       1 COA         0.1160
     47 C2P         0.3712   14.8959   -5.8239 C.3       1 COA         0.2607
     48 S1P         1.8541   15.9459   -5.9031 S.3       1 COA        -0.3539
     49 H2A        -3.1164    4.2717    1.2395 H         1 COA        -0.1369
     50 H61A       -4.9530    0.5922    3.3076 H         1 COA         0.2048
     51 H62A       -4.9456   -0.6585    2.0932 H         1 COA         0.2048
     52 H8A        -3.5298   -0.9412   -2.5018 H         1 COA        -0.1292
     53 H1B        -2.3698    0.7525   -3.8030 H         1 COA        -0.0393
     54 H2B        -3.4073    3.5789   -2.9846 H         1 COA        -0.0393
     55 H3B        -2.0891    4.5191   -4.8158 H         1 COA        -0.0393
     56 H4B         0.1478    3.1100   -4.0235 H         1 COA        -0.0393
     57 H51A       -1.5937    4.5171   -1.9365 H         1 COA        -0.0393
     58 H52A       -0.4707    5.3519   -3.0411 H         1 COA        -0.0393
     59 H121       -1.2324    7.4355   -0.9984 H         1 COA        -0.0393
     60 H122       -2.5440    8.1138   -0.0133 H         1 COA        -0.0393
     61 H131        0.8796   10.5616   -1.1013 H         1 COA        -0.0393
     62 H132        0.7886    8.8842   -1.6454 H         1 COA        -0.0393
     63 H133        1.0681    9.2399    0.0618 H         1 COA        -0.0393
     64 H141       -1.3855   11.0192   -2.1904 H         1 COA        -0.0393
     65 H142       -2.7797   10.0132   -1.7903 H         1 COA        -0.0393
     66 H143       -1.4280    9.3402   -2.7211 H         1 COA        -0.0393
     67 H10        -2.3323   10.9827    0.4518 H         1 COA        -0.0393
     68 HO1        -0.3644    9.5651    1.9111 H         1 COA         0.2010
     69 HN8        -1.6351   12.8136   -0.5951 H         1 COA         0.0865
     70 H71        -0.6833   14.9308   -0.2732 H         1 COA        -0.0393
     71 H72         0.5651   14.2279    0.7566 H         1 COA        -0.0393
     72 H61         1.6432   13.1719   -1.2401 H         1 COA        -0.0393
     73 H62         1.5403   14.9270   -1.4320 H         1 COA        -0.0393
     74 HN4         2.0743   13.8348   -3.5709 H         1 COA         0.0865
     75 H31         1.4356   13.0379   -5.6272 H         1 COA        -0.0393
     76 H32        -0.2480   12.9340   -5.0949 H         1 COA        -0.0393
     77 H21         0.0106   14.7278   -6.8439 H         1 COA        -0.0393
     78 H22        -0.3989   15.4512   -5.2796 H         1 COA        -0.0393
     79 HS1         2.6037   15.0753   -6.5919 H         1 COA         0.1718
@<TRIPOS>BOND
     1    1    2 ar
     2    1    6 ar
     3    2    3 ar
     4    2   49 1
     5    3    4 ar
     6    4    5 ar
     7    4   10 ar
     8    5    6 ar
     9    5    8 ar
    10    6    7 1
    11    7   50 1
    12    7   51 1
    13    8    9 ar
    14    9   10 ar
    15    9   52 1
    16   10   11 1
    17   11   12 1
    18   11   21 1
    19   11   53 1
    20   12   13 1
    21   12   14 1
    22   12   54 1
    23   14   15 1
    24   14   20 1
    25   14   55 1
    26   15   16 1
    27   16   17 2
    28   16   18 1
    29   16   19 1
    30   20   21 1
    31   20   22 1
    32   20   56 1
    33   22   23 1
    34   22   57 1
    35   22   58 1
    36   23   24 1
    37   24   25 2
    38   24   26 1
    39   24   27 1
    40   27   28 1
    41   28   29 2
    42   28   30 1
    43   28   31 1
    44   31   33 1
    45   32   33 1
    46   32   34 1
    47   32   35 1
    48   32   36 1
    49   33   59 1
    50   33   60 1
    51   34   61 1
    52   34   62 1
    53   34   63 1
    54   35   64 1
    55   35   65 1
    56   35   66 1
    57   36   37 1
    58   36   38 1
    59   36   67 1
    60   37   68 1
    61   38   39 2
    62   38   40 am
    63   40   41 1
    64   40   69 1
    65   41   42 1
    66   41   70 1
    67   41   71 1
    68   42   43 1
    69   42   72 1
    70   42   73 1
    71   43   44 2
    72   43   45 am
    73   45   46 1
    74   45   74 1
    75   46   47 1
    76   46   75 1
    77   46   76 1
    78   47   48 1
    79   47   77 1
    80   47   78 1
    81   48   79 1
@<TRIPOS>SUBSTRUCTURE
     1 COA         1 GROUP 0 A     ****
@<TRIPOS>MOLECULE
[5-(6-aminopurin-9-yl)-2-[[[[3-hydroxy-2,2-dimethyl-4-oxo-4-[[3-oxo-3-(2-sulfanylethylamino)propyl]amino]butoxy]-oxido-phosphoryl]oxy-oxido-phosphoryl]oxymethyl]-4-oxido-tetrahydrofuran-3-yl] phosphate
   79    81     1     0     0
SMALL
USER_CHARGES

@<TRIPOS>ATOM
      1 N1A         5.7146    2.0302   -0.7890 N.ar      1 COA        -0.5260
      2 C2A         4.3962    2.1571   -0.5034 C.ar      1 COA         0.6629
      3 N3A         3.3299    1.7526   -1.2276 N.ar      1 COA        -0.5260
      4 C4A         3.7311    1.1587   -2.3614 C.ar      1 COA         0.5212
      5 C5A         5.0346    0.9576   -2.7868 C.ar      1 COA         0.0088
      6 C6A         6.0470    1.4195   -1.9517 C.ar      1 COA         0.5212
      7 N6A         7.3978    1.2581   -2.3043 N.pl3     1 COA        -0.6025
      8 N7A         5.0562    0.3154   -3.9993 N.2       1 COA        -0.4271
      9 C8A         3.7892    0.1293   -4.3054 C.ar      1 COA         0.5691
     10 N9A         2.9479    0.6234   -3.3440 N.pl3     1 COA        -0.5033
     11 C1B         1.4328    0.5815   -3.3775 C.3       1 COA         0.2693
     12 C2B         0.6799   -0.1567   -2.2458 C.3       1 COA         0.2008
     13 O2B         0.5449   -1.4388   -2.5302 O.co2     1 COA        -0.1615
     14 C3B        -0.6749    0.5672   -2.2968 C.3       1 COA         0.1111
     15 O3B        -1.4782    0.1594   -3.4088 O.3       1 COA         0.1618
     16 P3B        -3.0996    0.4363   -3.3454 P.3       1 COA        -1.1921
     17 O7A        -3.5828   -0.3425   -2.1254 O.co2     1 COA         0.3195
     18 O8A        -3.6001   -0.1211   -4.6746 O.co2     1 COA         0.3195
     19 O9A        -3.2339    1.9510   -3.2185 O.co2     1 COA         0.3195
     20 C4B        -0.2635    2.0121   -2.5599 C.3       1 COA         0.1111
     21 O4B         0.9490    1.9478   -3.3354 O.3       1 COA        -0.1436
     22 C5B         0.0275    2.8029   -1.2913 C.3       1 COA         0.1504
     23 O5B         0.3986    4.1249   -1.6460 O.3       1 COA         0.1618
     24 P1A         0.7670    5.1936   -0.4641 P.3       1 COA        -1.1062
     25 O1A         1.1289    6.5260   -1.0837 O.co2     1 COA         0.3195
     26 O2A         1.6876    4.5161    0.5275 O.co2     1 COA         0.3195
     27 O3A        -0.6886    5.3125    0.2679 O.3       1 COA         0.4672
     28 P2A        -1.1429    6.2040    1.5594 P.3       1 COA        -1.1062
     29 O4A        -2.6377    6.0612    1.7476 O.co2     1 COA         0.3195
     30 O5A        -0.1888    5.9134    2.6974 O.co2     1 COA         0.3195
     31 O6A        -0.8065    7.6957    0.9792 O.3       1 COA         0.1618
     32 CBP        -1.0090    9.5771   -0.5793 C.3       1 COA         0.0000
     33 CCP        -1.4652    8.1470   -0.1994 C.3       1 COA         0.1504
     34 CDP         0.5182    9.5632   -0.8289 C.3       1 COA         0.1179
     35 CEP        -1.6888   10.0085   -1.8940 C.3       1 COA         0.1179
     36 CAP        -1.3149   10.5877    0.5658 C.3       1 COA         0.0611
     37 OAP        -2.7163   10.6149    0.8239 O.3       1 COA        -0.2728
     38 C9P        -0.6314   10.2649    1.8928 C.2       1 COA         0.3561
     39 O9P         0.1432    9.3183    2.0197 O.2       1 COA        -0.2391
     40 N8P        -0.9621   11.1596    2.8978 N.am      1 COA        -0.1909
     41 C7P        -0.4209   11.0766    4.2348 C.3       1 COA         0.1160
     42 C6P        -1.3208   10.2056    5.0993 C.3       1 COA         0.0286
     43 C5P        -0.8078   10.0760    6.5223 C.2       1 COA         0.3561
     44 O5P         0.2209   10.6173    6.9179 O.2       1 COA        -0.2391
     45 N4P        -1.6407    9.2792    7.2942 N.am      1 COA        -0.1909
     46 C3P        -1.3833    8.9901    8.6861 C.3       1 COA         0.1160
     47 C2P        -0.5401    7.7406    8.8816 C.3       1 COA         0.2607
     48 S1P        -0.2241    7.3890   10.6378 S.3       1 COA        -0.3539
     49 H2A         4.1666    2.6505    0.4351 H         1 COA        -0.1369
     50 H61A        8.1108    1.6399   -1.7121 H         1 COA         0.2048
     51 H62A        7.6305    0.8472   -3.1886 H         1 COA         0.2048
     52 H8A         3.4224   -0.3522   -5.2016 H         1 COA        -0.1292
     53 H1B         1.1905    0.2000   -4.4133 H         1 COA        -0.0393
     54 H2B         1.1486    0.1388   -1.2941 H         1 COA        -0.0393
     55 H3B        -1.2745    0.4471   -1.3878 H         1 COA        -0.0393
     56 H4B        -1.0100    2.5497   -3.1559 H         1 COA        -0.0393
     57 H51A        0.8489    2.3441   -0.7330 H         1 COA        -0.0393
     58 H52A       -0.8601    2.8452   -0.6531 H         1 COA        -0.0393
     59 H121       -1.2324    7.4355   -0.9984 H         1 COA        -0.0393
     60 H122       -2.5440    8.1138   -0.0133 H         1 COA        -0.0393
     61 H131        0.8796   10.5616   -1.1013 H         1 COA        -0.0393
     62 H132        0.7886    8.8842   -1.6454 H         1 COA        -0.0393
     63 H133        1.0681    9.2399    0.0618 H         1 COA        -0.0393
     64 H141       -1.3855   11.0192   -2.1904 H         1 COA        -0.0393
     65 H142       -2.7797   10.0132   -1.7903 H         1 COA        -0.0393
     66 H143       -1.4280    9.3402   -2.7211 H         1 COA        -0.0393
     67 H10        -1.0237   11.5996    0.2569 H         1 COA        -0.0393
     68 HO1        -2.9668    9.7148    1.0837 H         1 COA         0.2010
     69 HN8        -1.5912   11.9301    2.6933 H         1 COA         0.0865
     70 H71         0.5904   10.6603    4.1882 H         1 COA        -0.0393
     71 H72        -0.3409   12.0847    4.6537 H         1 COA        -0.0393
     72 H61        -1.3992    9.2001    4.6676 H         1 COA        -0.0393
     73 H62        -2.3330   10.6278    5.1340 H         1 COA        -0.0393
     74 HN4        -2.4688    8.8811    6.8612 H         1 COA         0.0865
     75 H31        -0.8522    9.8585    9.0847 H         1 COA        -0.0393
     76 H32        -2.3487    8.9218    9.1939 H         1 COA        -0.0393
     77 H21        -1.0241    6.8663    8.4346 H         1 COA        -0.0393
     78 H22         0.4290    7.8786    8.3921 H         1 COA        -0.0393
     79 HS1         0.4069    8.5415   10.8985 H         1 COA         0.1718
@<TRIPOS>BOND
     1    1    2 ar
     2    1    6 ar
     3    2    3 ar
     4    2   49 1
     5    3    4 ar
     6    4    5 ar
     7    4   10 ar
     8    5    6 ar
     9    5    8 ar
    10    6    7 1
    11    7   50 1
    12    7   51 1
    13    8    9 ar
    14    9   10 ar
    15    9   52 1
    16   10   11 1
    17   11   12 1
    18   11   21 1
    19   11   53 1
    20   12   13 1
    21   12   14 1
    22   12   54 1
    23   14   15 1
    24   14   20 1
    25   14   55 1
    26   15   16 1
    27   16   17 2
    28   16   18 1
    29   16   19 1
    30   20   21 1
    31   20   22 1
    32   20   56 1
    33   22   23 1
    34   22   57 1
    35   22   58 1
    36   23   24 1
    37   24   25 2
    38   24   26 1
    39   24   27 1
    40   27   28 1
    41   28   29 2
    42   28   30 1
    43   28   31 1
    44   31   33 1
    45   32   33 1
    46   32   34 1
    47   32   35 1
    48   32   36 1
    49   33   59 1
    50   33   60 1
    51   34   61 1
    52   34   62 1
    53   34   63 1
    54   35   64 1
    55   35   65 1
    56   35   66 1
    57   36   37 1
    58   36   38 1
    59   36   67 1
    60   37   68 1
    61   38   39 2
    62   38   40 am
    63   40   41 1
    64   40   69 1
    65   41   42 1
    66   41   70 1
    67   41   71 1
    68   42   43 1
    69   42   72 1
    70   42   73 1
    71   43   44 2
    72   43   45 am
    73   45   46 1
    74   45   74 1
    75   46   47 1
    76   46   75 1
    77   46   76 1
    78   47   48 1
    79   47   77 1
    80   47   78 1
    81   48   79 1
@<TRIPOS>SUBSTRUCTURE
     1 COA         1 GROUP 0 A     ****
@<TRIPOS>MOLECULE
[5-(6-aminopurin-9-yl)-2-[[[[3-hydroxy-2,2-dimethyl-4-oxo-4-[[3-oxo-3-(2-sulfanylethylamino)propyl]amino]butoxy]-oxido-phosphoryl]oxy-oxido-phosphoryl]oxymethyl]-4-oxido-tetrahydrofuran-3-yl] phosphate
   79    81     1     0     0
SMALL
USER_CHARGES

@<TRIPOS>ATOM
      1 N1A        -3.9039    2.4517    1.8283 N.ar      1 COA        -0.5260
      2 C2A        -3.3295    3.2614    0.9063 C.ar      1 COA         0.6629
      3 N3A        -2.9870    2.9823   -0.3704 N.ar      1 COA        -0.5260
      4 C4A        -3.2951    1.7119   -0.6714 C.ar      1 COA         0.5212
      5 C5A        -3.8810    0.7714    0.1608 C.ar      1 COA         0.0088
      6 C6A        -4.1878    1.1807    1.4546 C.ar      1 COA         0.5212
      7 N6A        -4.7836    0.2924    2.3662 N.pl3     1 COA        -0.6025
      8 N7A        -4.0438   -0.4230   -0.4949 N.2       1 COA        -0.4271
      9 C8A        -3.5659   -0.2124   -1.7036 C.ar      1 COA         0.5691
     10 N9A        -3.1003    1.0663   -1.8591 N.pl3     1 COA        -0.5033
     11 C1B        -2.4828    1.6438   -3.1175 C.3       1 COA         0.2693
     12 C2B        -3.1527    2.8675   -3.7856 C.3       1 COA         0.2008
     13 O2B        -4.0894    2.4850   -4.6336 O.co2     1 COA        -0.1615
     14 C3B        -1.9491    3.4718   -4.5260 C.3       1 COA         0.1111
     15 O3B        -1.5961    2.7353   -5.7012 O.3       1 COA         0.1618
     16 P3B        -0.6948    3.4882   -6.8546 P.3       1 COA        -1.1921
     17 O7A        -1.5419    4.6766   -7.3000 O.co2     1 COA         0.3195
     18 O8A        -0.5270    2.4117   -7.9228 O.co2     1 COA         0.3195
     19 O9A         0.6037    3.8701   -6.1501 O.co2     1 COA         0.3195
     20 C4B        -0.8155    3.2705   -3.5257 C.3       1 COA         0.1111
     21 O4B        -1.1344    2.0698   -2.7962 O.3       1 COA        -0.1436
     22 C5B        -0.6774    4.4099   -2.5246 C.3       1 COA         0.1504
     23 O5B         0.3986    4.1249   -1.6460 O.3       1 COA         0.1618
     24 P1A         0.7670    5.1936   -0.4641 P.3       1 COA        -1.1062
     25 O1A         1.1289    6.5260   -1.0837 O.co2     1 COA         0.3195
     26 O2A         1.6876    4.5161    0.5275 O.co2     1 COA         0.3195
     27 O3A        -0.6886    5.3125    0.2679 O.3       1 COA         0.4672
     28 P2A        -1.1429    6.2040    1.5594 P.3       1 COA        -1.1062
     29 O4A        -2.6377    6.0612    1.7476 O.co2     1 COA         0.3195
     30 O5A        -0.1888    5.9134    2.6974 O.co2     1 COA         0.3195
     31 O6A        -0.8065    7.6957    0.9792 O.3       1 COA         0.1618
     32 CBP        -1.0090    9.5771   -0.5793 C.3       1 COA         0.0000
     33 CCP        -1.4652    8.1470   -0.1994 C.3       1 COA         0.1504
     34 CDP         0.5182    9.5632   -0.8289 C.3       1 COA         0.1179
     35 CEP        -1.6888   10.0085   -1.8940 C.3       1 COA         0.1179
     36 CAP        -1.3149   10.5877    0.5658 C.3       1 COA         0.0611
     37 OAP        -0.8841   11.8921    0.1862 O.3       1 COA        -0.2728
     38 C9P        -2.7940   10.7032    0.9282 C.2       1 COA         0.3561
     39 O9P        -3.5640    9.7470    0.8589 O.2       1 COA        -0.2391
     40 N8P        -3.1433   11.9737    1.3570 N.am      1 COA        -0.1909
     41 C7P        -4.4804   12.3219    1.7791 C.3       1 COA         0.1160
     42 C6P        -4.6250   12.0820    3.2749 C.3       1 COA         0.0286
     43 C5P        -3.6490   12.9100    4.0913 C.2       1 COA         0.3561
     44 O5P        -2.8373   13.6819    3.5881 O.2       1 COA        -0.2391
     45 N4P        -3.7960   12.6778    5.4510 N.am      1 COA        -0.1909
     46 C3P        -2.9890   13.3359    6.4526 C.3       1 COA         0.1160
     47 C2P        -1.7209   12.5668    6.7851 C.3       1 COA         0.2607
     48 S1P        -2.0718   10.9022    7.4281 S.3       1 COA        -0.3539
     49 H2A        -3.1164    4.2717    1.2395 H         1 COA        -0.1369
     50 H61A       -4.9530    0.5922    3.3076 H         1 COA         0.2048
     51 H62A       -4.9456   -0.6585    2.0932 H         1 COA         0.2048
     52 H8A        -3.5298   -0.9412   -2.5018 H         1 COA        -0.1292
     53 H1B        -2.3698    0.7525   -3.8030 H         1 COA        -0.0393
     54 H2B        -3.4073    3.5789   -2.9846 H         1 COA        -0.0393
     55 H3B        -2.0891    4.5191   -4.8158 H         1 COA        -0.0393
     56 H4B         0.1478    3.1100   -4.0235 H         1 COA        -0.0393
     57 H51A       -1.5937    4.5171   -1.9365 H         1 COA        -0.0393
     58 H52A       -0.4707    5.3519   -3.0411 H         1 COA        -0.0393
     59 H121       -1.2324    7.4355   -0.9984 H         1 COA        -0.0393
     60 H122       -2.5440    8.1138   -0.0133 H         1 COA        -0.0393
     61 H131        0.8796   10.5616   -1.1013 H         1 COA        -0.0393
     62 H132        0.7886    8.8842   -1.6454 H         1 COA        -0.0393
     63 H133        1.0681    9.2399    0.0618 H         1 COA        -0.0393
     64 H141       -1.3855   11.0192   -2.1904 H         1 COA        -0.0393
     65 H142       -2.7797   10.0132   -1.7903 H         1 COA        -0.0393
     66 H143       -1.4280    9.3402   -2.7211 H         1 COA        -0.0393
     67 H10        -0.7524   10.3112    1.4665 H         1 COA        -0.0393
     68 HO1        -1.3767   12.1229   -0.6167 H         1 COA         0.2010
     69 HN8        -2.4320   12.6966    1.4083 H         1 COA         0.0865
     70 H71        -4.6724   13.3717    1.5359 H         1 COA        -0.0393
     71 H72        -5.2027   11.7190    1.2195 H         1 COA        -0.0393
     72 H61        -4.4557   11.0227    3.5045 H         1 COA        -0.0393
     73 H62        -5.6437   12.3293    3.5992 H         1 COA        -0.0393
     74 HN4        -4.5029   12.0153    5.7562 H         1 COA         0.0865
     75 H31        -2.7287   14.3140    6.0398 H         1 COA        -0.0393
     76 H32        -3.6185   13.4965    7.3315 H         1 COA        -0.0393
     77 H21        -1.0780   12.4697    5.9042 H         1 COA        -0.0393
     78 H22        -1.1616   13.1078    7.5547 H         1 COA        -0.0393
     79 HS1        -2.7786   11.3101    8.4903 H         1 COA         0.1718
@<TRIPOS>BOND
     1    1    2 ar
     2    1    6 ar
     3    2    3 ar
     4    2   49 1
     5    3    4 ar
     6    4    5 ar
     7    4   10 ar
     8    5    6 ar
     9    5    8 ar
    10    6    7 1
    11    7   50 1
    12    7   51 1
    13    8    9 ar
    14    9   10 ar
    15    9   52 1
    16   10   11 1
    17   11   12 1
    18   11   21 1
    19   11   53 1
    20   12   13 1
    21   12   14 1
    22   12   54 1
    23   14   15 1
    24   14   20 1
    25   14   55 1
    26   15   16 1
    27   16   17 2
    28   16   18 1
    29   16   19 1
    30   20   21 1
    31   20   22 1
    32   20   56 1
    33   22   23 1
    34   22   57 1
    35   22   58 1
    36   23   24 1
    37   24   25 2
    38   24   26 1
    39   24   27 1
    40   27   28 1
    41   28   29 2
    42   28   30 1
    43   28   31 1
    44   31   33 1
    45   32   33 1
    46   32   34 1
    47   32   35 1
    48   32   36 1
    49   33   59 1
    50   33   60 1
    51   34   61 1
    52   34   62 1
    53   34   63 1
    54   35   64 1
    55   35   65 1
    56   35   66 1
    57   36   37 1
    58   36   38 1
    59   36   67 1
    60   37   68 1
    61   38   39 2
    62   38   40 am
    63   40   41 1
    64   40   69 1
    65   41   42 1
    66   41   70 1
    67   41   71 1
    68   42   43 1
    69   42   72 1
    70   42   73 1
    71   43   44 2
    72   43   45 am
    73   45   46 1
    74   45   74 1
    75   46   47 1
    76   46   75 1
    77   46   76 1
    78   47   48 1
    79   47   77 1
    80   47   78 1
    81   48   79 1
@<TRIPOS>SUBSTRUCTURE
     1 COA         1 GROUP 0 A     ****
@<TRIPOS>MOLECULE
[5-(6-aminopurin-9-yl)-2-[[[[3-hydroxy-2,2-dimethyl-4-oxo-4-[[3-oxo-3-(2-sulfanylethylamino)propyl]amino]butoxy]-oxido-phosphoryl]oxy-oxido-phosphoryl]oxymethyl]-4-oxido-tetrahydrofuran-3-yl] phosphate
   79    81     1     0     0
SMALL
USER_CHARGES

@<TRIPOS>ATOM
      1 N1A         6.3197    3.3711    0.1967 N.ar      1 COA        -0.5260
      2 C2A         5.0033    3.3256    0.5141 C.ar      1 COA         0.6629
      3 N3A         4.0730    2.4196    0.1418 N.ar      1 COA        -0.5260
      4 C4A         4.6208    1.4811   -0.6447 C.ar      1 COA         0.5212
      5 C5A         5.9423    1.3962   -1.0530 C.ar      1 COA         0.0088
      6 C6A         6.8050    2.3902   -0.6021 C.ar      1 COA         0.5212
      7 N6A         8.1621    2.3826   -0.9671 N.pl3     1 COA        -0.6025
      8 N7A         6.1335    0.2987   -1.8543 N.2       1 COA        -0.4271
      9 C8A         4.9500   -0.2731   -1.9316 C.ar      1 COA         0.5691
     10 N9A         4.0006    0.4065   -1.2155 N.pl3     1 COA        -0.5033
     11 C1B         2.5376    0.0288   -1.0907 C.3       1 COA         0.2693
     12 C2B         1.9579   -0.2640    0.3131 C.3       1 COA         0.2008
     13 O2B         2.1299   -1.5323    0.6368 O.co2     1 COA        -0.1615
     14 C3B         0.4729    0.0487    0.0699 C.3       1 COA         0.1111
     15 O3B        -0.1943   -0.9780   -0.6709 O.3       1 COA         0.1618
     16 P3B        -1.8364   -1.0586   -0.5907 P.3       1 COA        -1.1921
     17 O7A        -2.1459   -1.2889    0.8856 O.co2     1 COA         0.3195
     18 O8A        -2.1706   -2.2476   -1.4866 O.co2     1 COA         0.3195
     19 O9A        -2.3217    0.2823   -1.1335 O.co2     1 COA         0.3195
     20 C4B         0.5412    1.2713   -0.8394 C.3       1 COA         0.1111
     21 O4B         1.7485    1.1278   -1.6124 O.3       1 COA        -0.1436
     22 C5B         0.6184    2.5901   -0.0816 C.3       1 COA         0.1504
     23 O5B         0.6777    3.6562   -1.0149 O.3       1 COA         0.1618
     24 P1A         0.7670    5.1936   -0.4641 P.3       1 COA        -1.1062
     25 O1A         0.8194    6.1476   -1.6376 O.co2     1 COA         0.3195
     26 O2A         1.8029    5.2507    0.6375 O.co2     1 COA         0.3195
     27 O3A        -0.6886    5.3125    0.2679 O.3       1 COA         0.4672
     28 P2A        -1.1429    6.2040    1.5594 P.3       1 COA        -1.1062
     29 O4A        -2.6377    6.0612    1.7476 O.co2     1 COA         0.3195
     30 O5A        -0.1888    5.9134    2.6974 O.co2     1 COA         0.3195
     31 O6A        -0.8065    7.6957    0.9792 O.3       1 COA         0.1618
     32 CBP        -1.0090    9.5771   -0.5793 C.3       1 COA         0.0000
     33 CCP        -1.4652    8.1470   -0.1994 C.3       1 COA         0.1504
     34 CDP         0.5182    9.5632   -0.8289 C.3       1 COA         0.1179
     35 CEP        -1.6888   10.0085   -1.8940 C.3       1 COA         0.1179
     36 CAP        -1.3149   10.5877    0.5658 C.3       1 COA         0.0611
     37 OAP        -2.7163   10.6149    0.8239 O.3       1 COA        -0.2728
     38 C9P        -0.6314   10.2649    1.8928 C.2       1 COA         0.3561
     39 O9P         0.1432    9.3183    2.0197 O.2       1 COA        -0.2391
     40 N8P        -0.9621   11.1596    2.8978 N.am      1 COA        -0.1909
     41 C7P        -0.4209   11.0766    4.2348 C.3       1 COA         0.1160
     42 C6P        -1.3208   10.2056    5.0993 C.3       1 COA         0.0286
     43 C5P        -0.8078   10.0760    6.5223 C.2       1 COA         0.3561
     44 O5P         0.2209   10.6173    6.9179 O.2       1 COA        -0.2391
     45 N4P        -1.6407    9.2792    7.2942 N.am      1 COA        -0.1909
     46 C3P        -1.3833    8.9901    8.6861 C.3       1 COA         0.1160
     47 C2P        -2.5001    9.4636    9.6019 C.3       1 COA         0.2607
     48 S1P        -2.7645   11.2598    9.4962 S.3       1 COA        -0.3539
     49 H2A         4.6492    4.1260    1.1552 H         1 COA        -0.1369
     50 H61A        8.7564    3.1335   -0.6708 H         1 COA         0.2048
     51 H62A        8.4991    1.6788   -1.5963 H         1 COA         0.2048
     52 H8A         4.7208   -1.1726   -2.4865 H         1 COA        -0.1292
     53 H1B         2.4085   -0.8200   -1.8256 H         1 COA        -0.0393
     54 H2B         2.3286    0.5212    0.9904 H         1 COA        -0.0393
     55 H3B        -0.0977    0.2245    0.9885 H         1 COA        -0.0393
     56 H4B        -0.2996    1.3083   -1.5416 H         1 COA        -0.0393
     57 H51A        1.5144    2.6204    0.5455 H         1 COA        -0.0393
     58 H52A       -0.2654    2.7227    0.5494 H         1 COA        -0.0393
     59 H121       -1.2324    7.4355   -0.9984 H         1 COA        -0.0393
     60 H122       -2.5440    8.1138   -0.0133 H         1 COA        -0.0393
     61 H131        0.8796   10.5616   -1.1013 H         1 COA        -0.0393
     62 H132        0.7886    8.8842   -1.6454 H         1 COA        -0.0393
     63 H133        1.0681    9.2399    0.0618 H         1 COA        -0.0393
     64 H141       -1.3855   11.0192   -2.1904 H         1 COA        -0.0393
     65 H142       -2.7797   10.0132   -1.7903 H         1 COA        -0.0393
     66 H143       -1.4280    9.3402   -2.7211 H         1 COA        -0.0393
     67 H10        -1.0237   11.5996    0.2569 H         1 COA        -0.0393
     68 HO1        -2.9668    9.7148    1.0837 H         1 COA         0.2010
     69 HN8        -1.5912   11.9301    2.6933 H         1 COA         0.0865
     70 H71         0.5904   10.6603    4.1882 H         1 COA        -0.0393
     71 H72        -0.3409   12.0847    4.6537 H         1 COA        -0.0393
     72 H61        -1.3992    9.2001    4.6676 H         1 COA        -0.0393
     73 H62        -2.3330   10.6278    5.1340 H         1 COA        -0.0393
     74 HN4        -2.4688    8.8811    6.8612 H         1 COA         0.0865
     75 H31        -1.2837    7.9039    8.7585 H         1 COA        -0.0393
     76 H32        -0.4193    9.4359    8.9439 H         1 COA        -0.0393
     77 H21        -3.4428    8.9599    9.3646 H         1 COA        -0.0393
     78 H22        -2.2416    9.2276   10.6389 H         1 COA        -0.0393
     79 HS1        -3.0601   11.2797    8.1898 H         1 COA         0.1718
@<TRIPOS>BOND
     1    1    2 ar
     2    1    6 ar
     3    2    3 ar
     4    2   49 1
     5    3    4 ar
     6    4    5 ar
     7    4   10 ar
     8    5    6 ar
     9    5    8 ar
    10    6    7 1
    11    7   50 1
    12    7   51 1
    13    8    9 ar
    14    9   10 ar
    15    9   52 1
    16   10   11 1
    17   11   12 1
    18   11   21 1
    19   11   53 1
    20   12   13 1
    21   12   14 1
    22   12   54 1
    23   14   15 1
    24   14   20 1
    25   14   55 1
    26   15   16 1
    27   16   17 2
    28   16   18 1
    29   16   19 1
    30   20   21 1
    31   20   22 1
    32   20   56 1
    33   22   23 1
    34   22   57 1
    35   22   58 1
    36   23   24 1
    37   24   25 2
    38   24   26 1
    39   24   27 1
    40   27   28 1
    41   28   29 2
    42   28   30 1
    43   28   31 1
    44   31   33 1
    45   32   33 1
    46   32   34 1
    47   32   35 1
    48   32   36 1
    49   33   59 1
    50   33   60 1
    51   34   61 1
    52   34   62 1
    53   34   63 1
    54   35   64 1
    55   35   65 1
    56   35   66 1
    57   36   37 1
    58   36   38 1
    59   36   67 1
    60   37   68 1
    61   38   39 2
    62   38   40 am
    63   40   41 1
    64   40   69 1
    65   41   42 1
    66   41   70 1
    67   41   71 1
    68   42   43 1
    69   42   72 1
    70   42   73 1
    71   43   44 2
    72   43   45 am
    73   45   46 1
    74   45   74 1
    75   46   47 1
    76   46   75 1
    77   46   76 1
    78   47   48 1
    79   47   77 1
    80   47   78 1
    81   48   79 1
@<TRIPOS>SUBSTRUCTURE
     1 COA         1 GROUP 0 A     ****
@<TRIPOS>MOLECULE
[5-(6-aminopurin-9-yl)-2-[[[[3-hydroxy-2,2-dimethyl-4-oxo-4-[[3-oxo-3-(2-sulfanylethylamino)propyl]amino]butoxy]-oxido-phosphoryl]oxy-oxido-phosphoryl]oxymethyl]-4-oxido-tetrahydrofuran-3-yl] phosphate
   79    81     1     0     0
SMALL
USER_CHARGES

@<TRIPOS>ATOM
      1 N1A         6.3197    3.3711    0.1967 N.ar      1 COA        -0.5260
      2 C2A         5.0033    3.3256    0.5141 C.ar      1 COA         0.6629
      3 N3A         4.0730    2.4196    0.1418 N.ar      1 COA        -0.5260
      4 C4A         4.6208    1.4811   -0.6447 C.ar      1 COA         0.5212
      5 C5A         5.9423    1.3962   -1.0530 C.ar      1 COA         0.0088
      6 C6A         6.8050    2.3902   -0.6021 C.ar      1 COA         0.5212
      7 N6A         8.1621    2.3826   -0.9671 N.pl3     1 COA        -0.6025
      8 N7A         6.1335    0.2987   -1.8543 N.2       1 COA        -0.4271
      9 C8A         4.9500   -0.2731   -1.9316 C.ar      1 COA         0.5691
     10 N9A         4.0006    0.4065   -1.2155 N.pl3     1 COA        -0.5033
     11 C1B         2.5376    0.0288   -1.0907 C.3       1 COA         0.2693
     12 C2B         1.9579   -0.2640    0.3131 C.3       1 COA         0.2008
     13 O2B         2.1299   -1.5323    0.6368 O.co2     1 COA        -0.1615
     14 C3B         0.4729    0.0487    0.0699 C.3       1 COA         0.1111
     15 O3B        -0.1943   -0.9780   -0.6709 O.3       1 COA         0.1618
     16 P3B        -1.8364   -1.0586   -0.5907 P.3       1 COA        -1.1921
     17 O7A        -2.1459   -1.2889    0.8856 O.co2     1 COA         0.3195
     18 O8A        -2.1706   -2.2476   -1.4866 O.co2     1 COA         0.3195
     19 O9A        -2.3217    0.2823   -1.1335 O.co2     1 COA         0.3195
     20 C4B         0.5412    1.2713   -0.8394 C.3       1 COA         0.1111
     21 O4B         1.7485    1.1278   -1.6124 O.3       1 COA        -0.1436
     22 C5B         0.6184    2.5901   -0.0816 C.3       1 COA         0.1504
     23 O5B         0.6777    3.6562   -1.0149 O.3       1 COA         0.1618
     24 P1A         0.7670    5.1936   -0.4641 P.3       1 COA        -1.1062
     25 O1A         0.8194    6.1476   -1.6376 O.co2     1 COA         0.3195
     26 O2A         1.8029    5.2507    0.6375 O.co2     1 COA         0.3195
     27 O3A        -0.6886    5.3125    0.2679 O.3       1 COA         0.4672
     28 P2A        -1.1429    6.2040    1.5594 P.3       1 COA        -1.1062
     29 O4A        -2.6377    6.0612    1.7476 O.co2     1 COA         0.3195
     30 O5A        -0.1888    5.9134    2.6974 O.co2     1 COA         0.3195
     31 O6A        -0.8065    7.6957    0.9792 O.3       1 COA         0.1618
     32 CBP        -1.0090    9.5771   -0.5793 C.3       1 COA         0.0000
     33 CCP        -1.4652    8.1470   -0.1994 C.3       1 COA         0.1504
     34 CDP         0.5182    9.5632   -0.8289 C.3       1 COA         0.1179
     35 CEP        -1.6888   10.0085   -1.8940 C.3       1 COA         0.1179
     36 CAP        -1.3149   10.5877    0.5658 C.3       1 COA         0.0611
     37 OAP        -2.7163   10.6149    0.8239 O.3       1 COA        -0.2728
     38 C9P        -0.6314   10.2649    1.8928 C.2       1 COA         0.3561
     39 O9P         0.1432    9.3183    2.0197 O.2       1 COA        -0.2391
     40 N8P        -0.9621   11.1596    2.8978 N.am      1 COA        -0.1909
     41 C7P        -0.4209   11.0766    4.2348 C.3       1 COA         0.1160
     42 C6P        -1.3208   10.2056    5.0993 C.3       1 COA         0.0286
     43 C5P        -2.7326   10.7542    5.2021 C.2       1 COA         0.3561
     44 O5P        -3.0944   11.7876    4.6461 O.2       1 COA        -0.2391
     45 N4P        -3.5370    9.9474    5.9935 N.am      1 COA        -0.1909
     46 C3P        -4.9266   10.2412    6.2584 C.3       1 COA         0.1160
     47 C2P        -5.8645    9.6220    5.2350 C.3       1 COA         0.2607
     48 S1P        -7.6096    9.9999    5.5808 S.3       1 COA        -0.3539
     49 H2A         4.6492    4.1260    1.1552 H         1 COA        -0.1369
     50 H61A        8.7564    3.1335   -0.6708 H         1 COA         0.2048
     51 H62A        8.4991    1.6788   -1.5963 H         1 COA         0.2048
     52 H8A         4.7208   -1.1726   -2.4865 H         1 COA        -0.1292
     53 H1B         2.4085   -0.8200   -1.8256 H         1 COA        -0.0393
     54 H2B         2.3286    0.5212    0.9904 H         1 COA        -0.0393
     55 H3B        -0.0977    0.2245    0.9885 H         1 COA        -0.0393
     56 H4B        -0.2996    1.3083   -1.5416 H         1 COA        -0.0393
     57 H51A        1.5144    2.6204    0.5455 H         1 COA        -0.0393
     58 H52A       -0.2654    2.7227    0.5494 H         1 COA        -0.0393
     59 H121       -1.2324    7.4355   -0.9984 H         1 COA        -0.0393
     60 H122       -2.5440    8.1138   -0.0133 H         1 COA        -0.0393
     61 H131        0.8796   10.5616   -1.1013 H         1 COA        -0.0393
     62 H132        0.7886    8.8842   -1.6454 H         1 COA        -0.0393
     63 H133        1.0681    9.2399    0.0618 H         1 COA        -0.0393
     64 H141       -1.3855   11.0192   -2.1904 H         1 COA        -0.0393
     65 H142       -2.7797   10.0132   -1.7903 H         1 COA        -0.0393
     66 H143       -1.4280    9.3402   -2.7211 H         1 COA        -0.0393
     67 H10        -1.0237   11.5996    0.2569 H         1 COA        -0.0393
     68 HO1        -2.9668    9.7148    1.0837 H         1 COA         0.2010
     69 HN8        -1.5912   11.9301    2.6933 H         1 COA         0.0865
     70 H71         0.5904   10.6603    4.1882 H         1 COA        -0.0393
     71 H72        -0.3409   12.0847    4.6537 H         1 COA        -0.0393
     72 H61        -0.9069   10.1254    6.1122 H         1 COA        -0.0393
     73 H62        -1.3736    9.1910    4.6851 H         1 COA        -0.0393
     74 HN4        -3.1308    9.1124    6.4053 H         1 COA         0.0865
     75 H31        -5.1411    9.8321    7.2491 H         1 COA        -0.0393
     76 H32        -5.0308   11.3279    6.3115 H         1 COA        -0.0393
     77 H21        -5.6282    9.9702    4.2243 H         1 COA        -0.0393
     78 H22        -5.7516    8.5336    5.2535 H         1 COA        -0.0393
     79 HS1        -7.4826   11.3307    5.4965 H         1 COA         0.1718
@<TRIPOS>BOND
     1    1    2 ar
     2    1    6 ar
     3    2    3 ar
     4    2   49 1
     5    3    4 ar
     6    4    5 ar
     7    4   10 ar
     8    5    6 ar
     9    5    8 ar
    10    6    7 1
    11    7   50 1
    12    7   51 1
    13    8    9 ar
    14    9   10 ar
    15    9   52 1
    16   10   11 1
    17   11   12 1
    18   11   21 1
    19   11   53 1
    20   12   13 1
    21   12   14 1
    22   12   54 1
    23   14   15 1
    24   14   20 1
    25   14   55 1
    26   15   16 1
    27   16   17 2
    28   16   18 1
    29   16   19 1
    30   20   21 1
    31   20   22 1
    32   20   56 1
    33   22   23 1
    34   22   57 1
    35   22   58 1
    36   23   24 1
    37   24   25 2
    38   24   26 1
    39   24   27 1
    40   27   28 1
    41   28   29 2
    42   28   30 1
    43   28   31 1
    44   31   33 1
    45   32   33 1
    46   32   34 1
    47   32   35 1
    48   32   36 1
    49   33   59 1
    50   33   60 1
    51   34   61 1
    52   34   62 1
    53   34   63 1
    54   35   64 1
    55   35   65 1
    56   35   66 1
    57   36   37 1
    58   36   38 1
    59   36   67 1
    60   37   68 1
    61   38   39 2
    62   38   40 am
    63   40   41 1
    64   40   69 1
    65   41   42 1
    66   41   70 1
    67   41   71 1
    68   42   43 1
    69   42   72 1
    70   42   73 1
    71   43   44 2
    72   43   45 am
    73   45   46 1
    74   45   74 1
    75   46   47 1
    76   46   75 1
    77   46   76 1
    78   47   48 1
    79   47   77 1
    80   47   78 1
    81   48   79 1
@<TRIPOS>SUBSTRUCTURE
     1 COA         1 GROUP 0 A     ****
@<TRIPOS>MOLECULE
[5-(6-aminopurin-9-yl)-2-[[[[3-hydroxy-2,2-dimethyl-4-oxo-4-[[3-oxo-3-(2-sulfanylethylamino)propyl]amino]butoxy]-oxido-phosphoryl]oxy-oxido-phosphoryl]oxymethyl]-4-oxido-tetrahydrofuran-3-yl] phosphate
   79    81     1     0     0
SMALL
USER_CHARGES

@<TRIPOS>ATOM
      1 N1A         6.3197    3.3711    0.1967 N.ar      1 COA        -0.5260
      2 C2A         5.0033    3.3256    0.5141 C.ar      1 COA         0.6629
      3 N3A         4.0730    2.4196    0.1418 N.ar      1 COA        -0.5260
      4 C4A         4.6208    1.4811   -0.6447 C.ar      1 COA         0.5212
      5 C5A         5.9423    1.3962   -1.0530 C.ar      1 COA         0.0088
      6 C6A         6.8050    2.3902   -0.6021 C.ar      1 COA         0.5212
      7 N6A         8.1621    2.3826   -0.9671 N.pl3     1 COA        -0.6025
      8 N7A         6.1335    0.2987   -1.8543 N.2       1 COA        -0.4271
      9 C8A         4.9500   -0.2731   -1.9316 C.ar      1 COA         0.5691
     10 N9A         4.0006    0.4065   -1.2155 N.pl3     1 COA        -0.5033
     11 C1B         2.5376    0.0288   -1.0907 C.3       1 COA         0.2693
     12 C2B         1.9579   -0.2640    0.3131 C.3       1 COA         0.2008
     13 O2B         2.1299   -1.5323    0.6368 O.co2     1 COA        -0.1615
     14 C3B         0.4729    0.0487    0.0699 C.3       1 COA         0.1111
     15 O3B        -0.1943   -0.9780   -0.6709 O.3       1 COA         0.1618
     16 P3B        -1.8364   -1.0586   -0.5907 P.3       1 COA        -1.1921
     17 O7A        -2.1459   -1.2889    0.8856 O.co2     1 COA         0.3195
     18 O8A        -2.1706   -2.2476   -1.4866 O.co2     1 COA         0.3195
     19 O9A        -2.3217    0.2823   -1.1335 O.co2     1 COA         0.3195
     20 C4B         0.5412    1.2713   -0.8394 C.3       1 COA         0.1111
     21 O4B         1.7485    1.1278   -1.6124 O.3       1 COA        -0.1436
     22 C5B         0.6184    2.5901   -0.0816 C.3       1 COA         0.1504
     23 O5B         0.6777    3.6562   -1.0149 O.3       1 COA         0.1618
     24 P1A         0.7670    5.1936   -0.4641 P.3       1 COA        -1.1062
     25 O1A         0.8194    6.1476   -1.6376 O.co2     1 COA         0.3195
     26 O2A         1.8029    5.2507    0.6375 O.co2     1 COA         0.3195
     27 O3A        -0.6886    5.3125    0.2679 O.3       1 COA         0.4672
     28 P2A        -1.1429    6.2040    1.5594 P.3       1 COA        -1.1062
     29 O4A        -2.6377    6.0612    1.7476 O.co2     1 COA         0.3195
     30 O5A        -0.1888    5.9134    2.6974 O.co2     1 COA         0.3195
     31 O6A        -0.8065    7.6957    0.9792 O.3       1 COA         0.1618
     32 CBP        -1.0090    9.5771   -0.5793 C.3       1 COA         0.0000
     33 CCP        -1.4652    8.1470   -0.1994 C.3       1 COA         0.1504
     34 CDP         0.5182    9.5632   -0.8289 C.3       1 COA         0.1179
     35 CEP        -1.6888   10.0085   -1.8940 C.3       1 COA         0.1179
     36 CAP        -1.3149   10.5877    0.5658 C.3       1 COA         0.0611
     37 OAP        -2.7163   10.6149    0.8239 O.3       1 COA        -0.2728
     38 C9P        -0.6314   10.2649    1.8928 C.2       1 COA         0.3561
     39 O9P         0.1432    9.3183    2.0197 O.2       1 COA        -0.2391
     40 N8P        -0.9621   11.1596    2.8978 N.am      1 COA        -0.1909
     41 C7P        -0.4209   11.0766    4.2348 C.3       1 COA         0.1160
     42 C6P         0.8633   11.8886    4.3197 C.3       1 COA         0.0286
     43 C5P         0.6435   13.3557    3.9970 C.2       1 COA         0.3561
     44 O5P        -0.4532   13.8217    3.7002 O.2       1 COA        -0.2391
     45 N4P         1.8245   14.0786    4.0796 N.am      1 COA        -0.1909
     46 C3P         1.8972   15.4979    3.8188 C.3       1 COA         0.1160
     47 C2P         1.6720   16.3377    5.0655 C.3       1 COA         0.2607
     48 S1P         2.9024   15.9950    6.3601 S.3       1 COA        -0.3539
     49 H2A         4.6492    4.1260    1.1552 H         1 COA        -0.1369
     50 H61A        8.7564    3.1335   -0.6708 H         1 COA         0.2048
     51 H62A        8.4991    1.6788   -1.5963 H         1 COA         0.2048
     52 H8A         4.7208   -1.1726   -2.4865 H         1 COA        -0.1292
     53 H1B         2.4085   -0.8200   -1.8256 H         1 COA        -0.0393
     54 H2B         2.3286    0.5212    0.9904 H         1 COA        -0.0393
     55 H3B        -0.0977    0.2245    0.9885 H         1 COA        -0.0393
     56 H4B        -0.2996    1.3083   -1.5416 H         1 COA        -0.0393
     57 H51A        1.5144    2.6204    0.5455 H         1 COA        -0.0393
     58 H52A       -0.2654    2.7227    0.5494 H         1 COA        -0.0393
     59 H121       -1.2324    7.4355   -0.9984 H         1 COA        -0.0393
     60 H122       -2.5440    8.1138   -0.0133 H         1 COA        -0.0393
     61 H131        0.8796   10.5616   -1.1013 H         1 COA        -0.0393
     62 H132        0.7886    8.8842   -1.6454 H         1 COA        -0.0393
     63 H133        1.0681    9.2399    0.0618 H         1 COA        -0.0393
     64 H141       -1.3855   11.0192   -2.1904 H         1 COA        -0.0393
     65 H142       -2.7797   10.0132   -1.7903 H         1 COA        -0.0393
     66 H143       -1.4280    9.3402   -2.7211 H         1 COA        -0.0393
     67 H10        -1.0237   11.5996    0.2569 H         1 COA        -0.0393
     68 HO1        -2.9668    9.7148    1.0837 H         1 COA         0.2010
     69 HN8        -1.5912   11.9301    2.6933 H         1 COA         0.0865
     70 H71        -1.1627   11.4515    4.9471 H         1 COA        -0.0393
     71 H72        -0.2314   10.0271    4.4816 H         1 COA        -0.0393
     72 H61         1.6084   11.4891    3.6205 H         1 COA        -0.0393
     73 H62         1.2884   11.8166    5.3287 H         1 COA        -0.0393
     74 HN4         2.6766   13.5882    4.3350 H         1 COA         0.0865
     75 H31         2.9000   15.6845    3.4256 H         1 COA        -0.0393
     76 H32         1.1766   15.7266    3.0296 H         1 COA        -0.0393
     77 H21         1.7048   17.4065    4.8303 H         1 COA        -0.0393
     78 H22         0.6843   16.1121    5.4795 H         1 COA        -0.0393
     79 HS1         3.9711   16.3431    5.6313 H         1 COA         0.1718
@<TRIPOS>BOND
     1    1    2 ar
     2    1    6 ar
     3    2    3 ar
     4    2   49 1
     5    3    4 ar
     6    4    5 ar
     7    4   10 ar
     8    5    6 ar
     9    5    8 ar
    10    6    7 1
    11    7   50 1
    12    7   51 1
    13    8    9 ar
    14    9   10 ar
    15    9   52 1
    16   10   11 1
    17   11   12 1
    18   11   21 1
    19   11   53 1
    20   12   13 1
    21   12   14 1
    22   12   54 1
    23   14   15 1
    24   14   20 1
    25   14   55 1
    26   15   16 1
    27   16   17 2
    28   16   18 1
    29   16   19 1
    30   20   21 1
    31   20   22 1
    32   20   56 1
    33   22   23 1
    34   22   57 1
    35   22   58 1
    36   23   24 1
    37   24   25 2
    38   24   26 1
    39   24   27 1
    40   27   28 1
    41   28   29 2
    42   28   30 1
    43   28   31 1
    44   31   33 1
    45   32   33 1
    46   32   34 1
    47   32   35 1
    48   32   36 1
    49   33   59 1
    50   33   60 1
    51   34   61 1
    52   34   62 1
    53   34   63 1
    54   35   64 1
    55   35   65 1
    56   35   66 1
    57   36   37 1
    58   36   38 1
    59   36   67 1
    60   37   68 1
    61   38   39 2
    62   38   40 am
    63   40   41 1
    64   40   69 1
    65   41   42 1
    66   41   70 1
    67   41   71 1
    68   42   43 1
    69   42   72 1
    70   42   73 1
    71   43   44 2
    72   43   45 am
    73   45   46 1
    74   45   74 1
    75   46   47 1
    76   46   75 1
    77   46   76 1
    78   47   48 1
    79   47   77 1
    80   47   78 1
    81   48   79 1
@<TRIPOS>SUBSTRUCTURE
     1 COA         1 GROUP 0 A     ****
@<TRIPOS>MOLECULE
[5-(6-aminopurin-9-yl)-2-[[[[3-hydroxy-2,2-dimethyl-4-oxo-4-[[3-oxo-3-(2-sulfanylethylamino)propyl]amino]butoxy]-oxido-phosphoryl]oxy-oxido-phosphoryl]oxymethyl]-4-oxido-tetrahydrofuran-3-yl] phosphate
   79    81     1     0     0
SMALL
USER_CHARGES

@<TRIPOS>ATOM
      1 N1A         6.1093    3.4221   -2.1706 N.ar      1 COA        -0.5260
      2 C2A         4.9028    3.1932   -1.5982 C.ar      1 COA         0.6629
      3 N3A         3.8250    2.5648   -2.1163 N.ar      1 COA        -0.5260
      4 C4A         4.0802    2.1492   -3.3659 C.ar      1 COA         0.5212
      5 C5A         5.2577    2.3095   -4.0788 C.ar      1 COA         0.0088
      6 C6A         6.2970    2.9741   -3.4353 C.ar      1 COA         0.5212
      7 N6A         7.5267    3.1813   -4.0834 N.pl3     1 COA        -0.6025
      8 N7A         5.1483    1.7539   -5.3288 N.2       1 COA        -0.4271
      9 C8A         3.9267    1.2647   -5.3749 C.ar      1 COA         0.5691
     10 N9A         3.2402    1.4796   -4.2093 N.pl3     1 COA        -0.5033
     11 C1B         1.8139    1.0528   -3.9225 C.3       1 COA         0.2693
     12 C2B         1.5441    0.0924   -2.7404 C.3       1 COA         0.2008
     13 O2B         1.6560   -1.1661   -3.1231 O.co2     1 COA        -0.1615
     14 C3B         0.0825    0.4469   -2.4241 C.3       1 COA         0.1111
     15 O3B        -0.8371   -0.0985   -3.3754 O.3       1 COA         0.1618
     16 P3B        -2.4169   -0.2494   -2.9382 P.3       1 COA        -1.1921
     17 O7A        -2.4022   -1.1842   -1.7323 O.co2     1 COA         0.3195
     18 O8A        -3.0660   -0.8511   -4.1810 O.co2     1 COA         0.3195
     19 O9A        -2.8748    1.1724   -2.6264 O.co2     1 COA         0.3195
     20 C4B         0.0646    1.9600   -2.6151 C.3       1 COA         0.1111
     21 O4B         1.0421    2.2460   -3.6341 O.3       1 COA        -0.1436
     22 C5B         0.4465    2.7364   -1.3618 C.3       1 COA         0.1504
     23 O5B         0.3986    4.1249   -1.6460 O.3       1 COA         0.1618
     24 P1A         0.7670    5.1936   -0.4641 P.3       1 COA        -1.1062
     25 O1A         1.1289    6.5260   -1.0837 O.co2     1 COA         0.3195
     26 O2A         1.6876    4.5161    0.5275 O.co2     1 COA         0.3195
     27 O3A        -0.6886    5.3125    0.2679 O.3       1 COA         0.4672
     28 P2A        -1.1429    6.2040    1.5594 P.3       1 COA        -1.1062
     29 O4A        -2.6377    6.0612    1.7476 O.co2     1 COA         0.3195
     30 O5A        -0.1888    5.9134    2.6974 O.co2     1 COA         0.3195
     31 O6A        -0.8065    7.6957    0.9792 O.3       1 COA         0.1618
     32 CBP        -1.0090    9.5771   -0.5793 C.3       1 COA         0.0000
     33 CCP        -1.4652    8.1470   -0.1994 C.3       1 COA         0.1504
     34 CDP         0.5182    9.5632   -0.8289 C.3       1 COA         0.1179
     35 CEP        -1.6888   10.0085   -1.8940 C.3       1 COA         0.1179
     36 CAP        -1.3149   10.5877    0.5658 C.3       1 COA         0.0611
     37 OAP        -0.8841   11.8921    0.1862 O.3       1 COA        -0.2728
     38 C9P        -2.7940   10.7032    0.9282 C.2       1 COA         0.3561
     39 O9P        -3.4252   11.7490    0.7870 O.2       1 COA        -0.2391
     40 N8P        -3.3259    9.5125    1.3963 N.am      1 COA        -0.1909
     41 C7P        -4.7115    9.3659    1.7784 C.3       1 COA         0.1160
     42 C6P        -4.8338    8.3142    2.8715 C.3       1 COA         0.0286
     43 C5P        -6.2695    8.1099    3.3208 C.2       1 COA         0.3561
     44 O5P        -7.2168    8.7319    2.8479 O.2       1 COA        -0.2391
     45 N4P        -6.3604    7.1485    4.3166 N.am      1 COA        -0.1909
     46 C3P        -7.6130    6.7620    4.9240 C.3       1 COA         0.1160
     47 C2P        -7.9574    7.5980    6.1458 C.3       1 COA         0.2607
     48 S1P        -6.6973    7.4652    7.4505 S.3       1 COA        -0.3539
     49 H2A         4.7878    3.5651   -0.5856 H         1 COA        -0.1369
     50 H61A        8.2460    3.7037   -3.6204 H         1 COA         0.2048
     51 H62A        7.6376    2.8871   -5.0353 H         1 COA         0.2048
     52 H8A         3.4866    0.7495   -6.2177 H         1 COA        -0.1292
     53 H1B         1.4348    0.6728   -4.9170 H         1 COA        -0.0393
     54 H2B         2.1376    0.4515   -1.8851 H         1 COA        -0.0393
     55 H3B        -0.2421    0.1333   -1.4258 H         1 COA        -0.0393
     56 H4B        -0.9063    2.3168   -2.9777 H         1 COA        -0.0393
     57 H51A        1.4605    2.4765   -1.0434 H         1 COA        -0.0393
     58 H52A       -0.2515    2.5189   -0.5478 H         1 COA        -0.0393
     59 H121       -1.2324    7.4355   -0.9984 H         1 COA        -0.0393
     60 H122       -2.5440    8.1138   -0.0133 H         1 COA        -0.0393
     61 H131        0.8796   10.5616   -1.1013 H         1 COA        -0.0393
     62 H132        0.7886    8.8842   -1.6454 H         1 COA        -0.0393
     63 H133        1.0681    9.2399    0.0618 H         1 COA        -0.0393
     64 H141       -1.3855   11.0192   -2.1904 H         1 COA        -0.0393
     65 H142       -2.7797   10.0132   -1.7903 H         1 COA        -0.0393
     66 H143       -1.4280    9.3402   -2.7211 H         1 COA        -0.0393
     67 H10        -0.7524   10.3112    1.4665 H         1 COA        -0.0393
     68 HO1        -1.3767   12.1229   -0.6167 H         1 COA         0.2010
     69 HN8        -2.7340    8.6894    1.4534 H         1 COA         0.0865
     70 H71        -5.0926   10.3311    2.1267 H         1 COA        -0.0393
     71 H72        -5.2986    9.0800    0.8998 H         1 COA        -0.0393
     72 H61        -4.2371    8.6072    3.7443 H         1 COA        -0.0393
     73 H62        -4.4432    7.3530    2.5146 H         1 COA        -0.0393
     74 HN4        -5.5079    6.6958    4.6330 H         1 COA         0.0865
     75 H31        -8.3791    6.8992    4.1565 H         1 COA        -0.0393
     76 H32        -7.5534    5.6955    5.1554 H         1 COA        -0.0393
     77 H21        -8.0710    8.6540    5.8799 H         1 COA        -0.0393
     78 H22        -8.9064    7.2504    6.5657 H         1 COA        -0.0393
     79 HS1        -5.6835    7.9363    6.7125 H         1 COA         0.1718
@<TRIPOS>BOND
     1    1    2 ar
     2    1    6 ar
     3    2    3 ar
     4    2   49 1
     5    3    4 ar
     6    4    5 ar
     7    4   10 ar
     8    5    6 ar
     9    5    8 ar
    10    6    7 1
    11    7   50 1
    12    7   51 1
    13    8    9 ar
    14    9   10 ar
    15    9   52 1
    16   10   11 1
    17   11   12 1
    18   11   21 1
    19   11   53 1
    20   12   13 1
    21   12   14 1
    22   12   54 1
    23   14   15 1
    24   14   20 1
    25   14   55 1
    26   15   16 1
    27   16   17 2
    28   16   18 1
    29   16   19 1
    30   20   21 1
    31   20   22 1
    32   20   56 1
    33   22   23 1
    34   22   57 1
    35   22   58 1
    36   23   24 1
    37   24   25 2
    38   24   26 1
    39   24   27 1
    40   27   28 1
    41   28   29 2
    42   28   30 1
    43   28   31 1
    44   31   33 1
    45   32   33 1
    46   32   34 1
    47   32   35 1
    48   32   36 1
    49   33   59 1
    50   33   60 1
    51   34   61 1
    52   34   62 1
    53   34   63 1
    54   35   64 1
    55   35   65 1
    56   35   66 1
    57   36   37 1
    58   36   38 1
    59   36   67 1
    60   37   68 1
    61   38   39 2
    62   38   40 am
    63   40   41 1
    64   40   69 1
    65   41   42 1
    66   41   70 1
    67   41   71 1
    68   42   43 1
    69   42   72 1
    70   42   73 1
    71   43   44 2
    72   43   45 am
    73   45   46 1
    74   45   74 1
    75   46   47 1
    76   46   75 1
    77   46   76 1
    78   47   48 1
    79   47   77 1
    80   47   78 1
    81   48   79 1
@<TRIPOS>SUBSTRUCTURE
     1 COA         1 GROUP 0 A     ****
@<TRIPOS>MOLECULE
[5-(6-aminopurin-9-yl)-2-[[[[3-hydroxy-2,2-dimethyl-4-oxo-4-[[3-oxo-3-(2-sulfanylethylamino)propyl]amino]butoxy]-oxido-phosphoryl]oxy-oxido-phosphoryl]oxymethyl]-4-oxido-tetrahydrofuran-3-yl] phosphate
   79    81     1     0     0
SMALL
USER_CHARGES

@<TRIPOS>ATOM
      1 N1A         6.1093    3.4221   -2.1706 N.ar      1 COA        -0.5260
      2 C2A         4.9028    3.1932   -1.5982 C.ar      1 COA         0.6629
      3 N3A         3.8250    2.5648   -2.1163 N.ar      1 COA        -0.5260
      4 C4A         4.0802    2.1492   -3.3659 C.ar      1 COA         0.5212
      5 C5A         5.2577    2.3095   -4.0788 C.ar      1 COA         0.0088
      6 C6A         6.2970    2.9741   -3.4353 C.ar      1 COA         0.5212
      7 N6A         7.5267    3.1813   -4.0834 N.pl3     1 COA        -0.6025
      8 N7A         5.1483    1.7539   -5.3288 N.2       1 COA        -0.4271
      9 C8A         3.9267    1.2647   -5.3749 C.ar      1 COA         0.5691
     10 N9A         3.2402    1.4796   -4.2093 N.pl3     1 COA        -0.5033
     11 C1B         1.8139    1.0528   -3.9225 C.3       1 COA         0.2693
     12 C2B         1.5441    0.0924   -2.7404 C.3       1 COA         0.2008
     13 O2B         1.6560   -1.1661   -3.1231 O.co2     1 COA        -0.1615
     14 C3B         0.0825    0.4469   -2.4241 C.3       1 COA         0.1111
     15 O3B        -0.8371   -0.0985   -3.3754 O.3       1 COA         0.1618
     16 P3B        -2.4169   -0.2494   -2.9382 P.3       1 COA        -1.1921
     17 O7A        -2.4022   -1.1842   -1.7323 O.co2     1 COA         0.3195
     18 O8A        -3.0660   -0.8511   -4.1810 O.co2     1 COA         0.3195
     19 O9A        -2.8748    1.1724   -2.6264 O.co2     1 COA         0.3195
     20 C4B         0.0646    1.9600   -2.6151 C.3       1 COA         0.1111
     21 O4B         1.0421    2.2460   -3.6341 O.3       1 COA        -0.1436
     22 C5B         0.4465    2.7364   -1.3618 C.3       1 COA         0.1504
     23 O5B         0.3986    4.1249   -1.6460 O.3       1 COA         0.1618
     24 P1A         0.7670    5.1936   -0.4641 P.3       1 COA        -1.1062
     25 O1A         1.1289    6.5260   -1.0837 O.co2     1 COA         0.3195
     26 O2A         1.6876    4.5161    0.5275 O.co2     1 COA         0.3195
     27 O3A        -0.6886    5.3125    0.2679 O.3       1 COA         0.4672
     28 P2A        -1.1429    6.2040    1.5594 P.3       1 COA        -1.1062
     29 O4A        -2.6377    6.0612    1.7476 O.co2     1 COA         0.3195
     30 O5A        -0.1888    5.9134    2.6974 O.co2     1 COA         0.3195
     31 O6A        -0.8065    7.6957    0.9792 O.3       1 COA         0.1618
     32 CBP        -1.0463    9.4480   -0.7182 C.3       1 COA         0.0000
     33 CCP        -1.7297    8.3208    0.0940 C.3       1 COA         0.1504
     34 CDP         0.1097    8.8359   -1.5452 C.3       1 COA         0.1179
     35 CEP        -2.0542   10.0578   -1.7127 C.3       1 COA         0.1179
     36 CAP        -0.4581   10.5415    0.2222 C.3       1 COA         0.0611
     37 OAP         0.1628   11.5628   -0.5541 O.3       1 COA        -0.2728
     38 C9P        -1.4903   11.2331    1.1103 C.2       1 COA         0.3561
     39 O9P        -2.1297   12.2135    0.7334 O.2       1 COA        -0.2391
     40 N8P        -1.6312   10.6209    2.3453 N.am      1 COA        -0.1909
     41 C7P        -2.5657   11.0776    3.3480 C.3       1 COA         0.1160
     42 C6P        -1.8923   12.1042    4.2472 C.3       1 COA         0.0286
     43 C5P        -0.6795   11.5390    4.9645 C.2       1 COA         0.3561
     44 O5P        -0.2966   10.3804    4.8270 O.2       1 COA        -0.2391
     45 N4P        -0.0799   12.4887    5.7786 N.am      1 COA        -0.1909
     46 C3P         1.0929   12.2128    6.5761 C.3       1 COA         0.1160
     47 C2P         2.3890   12.4975    5.8349 C.3       1 COA         0.2607
     48 S1P         3.8562   12.1459    6.8503 S.3       1 COA        -0.3539
     49 H2A         4.7878    3.5651   -0.5856 H         1 COA        -0.1369
     50 H61A        8.2460    3.7037   -3.6204 H         1 COA         0.2048
     51 H62A        7.6376    2.8871   -5.0353 H         1 COA         0.2048
     52 H8A         3.4866    0.7495   -6.2177 H         1 COA        -0.1292
     53 H1B         1.4348    0.6728   -4.9170 H         1 COA        -0.0393
     54 H2B         2.1376    0.4515   -1.8851 H         1 COA        -0.0393
     55 H3B        -0.2421    0.1333   -1.4258 H         1 COA        -0.0393
     56 H4B        -0.9063    2.3168   -2.9777 H         1 COA        -0.0393
     57 H51A        1.4605    2.4765   -1.0434 H         1 COA        -0.0393
     58 H52A       -0.2515    2.5189   -0.5478 H         1 COA        -0.0393
     59 H121       -2.1262    7.5446   -0.5686 H         1 COA        -0.0393
     60 H122       -2.5562    8.7139    0.6956 H         1 COA        -0.0393
     61 H131        0.6194    9.6060   -2.1356 H         1 COA        -0.0393
     62 H132       -0.2524    8.0744   -2.2449 H         1 COA        -0.0393
     63 H133        0.8566    8.3597   -0.9005 H         1 COA        -0.0393
     64 H141       -1.5995   10.8607   -2.3043 H         1 COA        -0.0393
     65 H142       -2.9149   10.4873   -1.1878 H         1 COA        -0.0393
     66 H143       -2.4255    9.3094   -2.4205 H         1 COA        -0.0393
     67 H10         0.3192   10.1040    0.8613 H         1 COA        -0.0393
     68 HO1        -0.5280   11.9349   -1.1241 H         1 COA         0.2010
     69 HN8        -1.0789    9.7962    2.5598 H         1 COA         0.0865
     70 H71        -3.4403   11.5120    2.8534 H         1 COA        -0.0393
     71 H72        -2.9130   10.2202    3.9332 H         1 COA        -0.0393
     72 H61        -2.6016   12.4670    5.0015 H         1 COA        -0.0393
     73 H62        -1.5711   12.9703    3.6552 H         1 COA        -0.0393
     74 HN4        -0.4835   13.4202    5.8156 H         1 COA         0.0865
     75 H31         1.0224   12.8585    7.4553 H         1 COA        -0.0393
     76 H32         1.0275   11.1750    6.9126 H         1 COA        -0.0393
     77 H21         2.4538   11.9062    4.9157 H         1 COA        -0.0393
     78 H22         2.4228   13.5562    5.5597 H         1 COA        -0.0393
     79 HS1         3.5873   10.8470    7.0373 H         1 COA         0.1718
@<TRIPOS>BOND
     1    1    2 ar
     2    1    6 ar
     3    2    3 ar
     4    2   49 1
     5    3    4 ar
     6    4    5 ar
     7    4   10 ar
     8    5    6 ar
     9    5    8 ar
    10    6    7 1
    11    7   50 1
    12    7   51 1
    13    8    9 ar
    14    9   10 ar
    15    9   52 1
    16   10   11 1
    17   11   12 1
    18   11   21 1
    19   11   53 1
    20   12   13 1
    21   12   14 1
    22   12   54 1
    23   14   15 1
    24   14   20 1
    25   14   55 1
    26   15   16 1
    27   16   17 2
    28   16   18 1
    29   16   19 1
    30   20   21 1
    31   20   22 1
    32   20   56 1
    33   22   23 1
    34   22   57 1
    35   22   58 1
    36   23   24 1
    37   24   25 2
    38   24   26 1
    39   24   27 1
    40   27   28 1
    41   28   29 2
    42   28   30 1
    43   28   31 1
    44   31   33 1
    45   32   33 1
    46   32   34 1
    47   32   35 1
    48   32   36 1
    49   33   59 1
    50   33   60 1
    51   34   61 1
    52   34   62 1
    53   34   63 1
    54   35   64 1
    55   35   65 1
    56   35   66 1
    57   36   37 1
    58   36   38 1
    59   36   67 1
    60   37   68 1
    61   38   39 2
    62   38   40 am
    63   40   41 1
    64   40   69 1
    65   41   42 1
    66   41   70 1
    67   41   71 1
    68   42   43 1
    69   42   72 1
    70   42   73 1
    71   43   44 2
    72   43   45 am
    73   45   46 1
    74   45   74 1
    75   46   47 1
    76   46   75 1
    77   46   76 1
    78   47   48 1
    79   47   77 1
    80   47   78 1
    81   48   79 1
@<TRIPOS>SUBSTRUCTURE
     1 COA         1 GROUP 0 A     ****
@<TRIPOS>MOLECULE
[5-(6-aminopurin-9-yl)-2-[[[[3-hydroxy-2,2-dimethyl-4-oxo-4-[[3-oxo-3-(2-sulfanylethylamino)propyl]amino]butoxy]-oxido-phosphoryl]oxy-oxido-phosphoryl]oxymethyl]-4-oxido-tetrahydrofuran-3-yl] phosphate
   79    81     1     0     0
SMALL
USER_CHARGES

@<TRIPOS>ATOM
      1 N1A         5.7146    2.0302   -0.7890 N.ar      1 COA        -0.5260
      2 C2A         4.3962    2.1571   -0.5034 C.ar      1 COA         0.6629
      3 N3A         3.3299    1.7526   -1.2276 N.ar      1 COA        -0.5260
      4 C4A         3.7311    1.1587   -2.3614 C.ar      1 COA         0.5212
      5 C5A         5.0346    0.9576   -2.7868 C.ar      1 COA         0.0088
      6 C6A         6.0470    1.4195   -1.9517 C.ar      1 COA         0.5212
      7 N6A         7.3978    1.2581   -2.3043 N.pl3     1 COA        -0.6025
      8 N7A         5.0562    0.3154   -3.9993 N.2       1 COA        -0.4271
      9 C8A         3.7892    0.1293   -4.3054 C.ar      1 COA         0.5691
     10 N9A         2.9479    0.6234   -3.3440 N.pl3     1 COA        -0.5033
     11 C1B         1.4328    0.5815   -3.3775 C.3       1 COA         0.2693
     12 C2B         0.6799   -0.1567   -2.2458 C.3       1 COA         0.2008
     13 O2B         0.5449   -1.4388   -2.5302 O.co2     1 COA        -0.1615
     14 C3B        -0.6749    0.5672   -2.2968 C.3       1 COA         0.1111
     15 O3B        -1.4782    0.1594   -3.4088 O.3       1 COA         0.1618
     16 P3B        -3.0996    0.4363   -3.3454 P.3       1 COA        -1.1921
     17 O7A        -3.5828   -0.3425   -2.1254 O.co2     1 COA         0.3195
     18 O8A        -3.6001   -0.1211   -4.6746 O.co2     1 COA         0.3195
     19 O9A        -3.2339    1.9510   -3.2185 O.co2     1 COA         0.3195
     20 C4B        -0.2635    2.0121   -2.5599 C.3       1 COA         0.1111
     21 O4B         0.9490    1.9478   -3.3354 O.3       1 COA        -0.1436
     22 C5B         0.0275    2.8029   -1.2913 C.3       1 COA         0.1504
     23 O5B         0.3986    4.1249   -1.6460 O.3       1 COA         0.1618
     24 P1A         0.7670    5.1936   -0.4641 P.3       1 COA        -1.1062
     25 O1A         1.1289    6.5260   -1.0837 O.co2     1 COA         0.3195
     26 O2A         1.6876    4.5161    0.5275 O.co2     1 COA         0.3195
     27 O3A        -0.6886    5.3125    0.2679 O.3       1 COA         0.4672
     28 P2A        -1.1429    6.2040    1.5594 P.3       1 COA        -1.1062
     29 O4A        -2.6377    6.0612    1.7476 O.co2     1 COA         0.3195
     30 O5A        -0.1888    5.9134    2.6974 O.co2     1 COA         0.3195
     31 O6A        -0.8065    7.6957    0.9792 O.3       1 COA         0.1618
     32 CBP        -1.0090    9.5771   -0.5793 C.3       1 COA         0.0000
     33 CCP        -1.4652    8.1470   -0.1994 C.3       1 COA         0.1504
     34 CDP         0.5182    9.5632   -0.8289 C.3       1 COA         0.1179
     35 CEP        -1.6888   10.0085   -1.8940 C.3       1 COA         0.1179
     36 CAP        -1.3149   10.5877    0.5658 C.3       1 COA         0.0611
     37 OAP        -2.7163   10.6149    0.8239 O.3       1 COA        -0.2728
     38 C9P        -0.6314   10.2649    1.8928 C.2       1 COA         0.3561
     39 O9P        -0.7862    9.1884    2.4667 O.2       1 COA        -0.2391
     40 N8P         0.1805   11.2940    2.3420 N.am      1 COA        -0.1909
     41 C7P         0.9514   11.2131    3.5612 C.3       1 COA         0.1160
     42 C6P         0.1235   11.7336    4.7271 C.3       1 COA         0.0286
     43 C5P        -0.2981   13.1798    4.5383 C.2       1 COA         0.3561
     44 O5P         0.3672   13.9971    3.9079 O.2       1 COA        -0.2391
     45 N4P        -1.5082   13.4440    5.1628 N.am      1 COA        -0.1909
     46 C3P        -2.1368   14.7448    5.1405 C.3       1 COA         0.1160
     47 C2P        -1.7109   15.6243    6.3046 C.3       1 COA         0.2607
     48 S1P        -2.1255   14.8869    7.9146 S.3       1 COA        -0.3539
     49 H2A         4.1666    2.6505    0.4351 H         1 COA        -0.1369
     50 H61A        8.1108    1.6399   -1.7121 H         1 COA         0.2048
     51 H62A        7.6305    0.8472   -3.1886 H         1 COA         0.2048
     52 H8A         3.4224   -0.3522   -5.2016 H         1 COA        -0.1292
     53 H1B         1.1905    0.2000   -4.4133 H         1 COA        -0.0393
     54 H2B         1.1486    0.1388   -1.2941 H         1 COA        -0.0393
     55 H3B        -1.2745    0.4471   -1.3878 H         1 COA        -0.0393
     56 H4B        -1.0100    2.5497   -3.1559 H         1 COA        -0.0393
     57 H51A        0.8489    2.3441   -0.7330 H         1 COA        -0.0393
     58 H52A       -0.8601    2.8452   -0.6531 H         1 COA        -0.0393
     59 H121       -1.2324    7.4355   -0.9984 H         1 COA        -0.0393
     60 H122       -2.5440    8.1138   -0.0133 H         1 COA        -0.0393
     61 H131        0.8796   10.5616   -1.1013 H         1 COA        -0.0393
     62 H132        0.7886    8.8842   -1.6454 H         1 COA        -0.0393
     63 H133        1.0681    9.2399    0.0618 H         1 COA        -0.0393
     64 H141       -1.3855   11.0192   -2.1904 H         1 COA        -0.0393
     65 H142       -2.7797   10.0132   -1.7903 H         1 COA        -0.0393
     66 H143       -1.4280    9.3402   -2.7211 H         1 COA        -0.0393
     67 H10        -1.0237   11.5996    0.2569 H         1 COA        -0.0393
     68 HO1        -2.9668    9.7148    1.0837 H         1 COA         0.2010
     69 HN8         0.2691   12.1390    1.7860 H         1 COA         0.0865
     70 H71         1.2472   10.1731    3.7314 H         1 COA        -0.0393
     71 H72         1.8685   11.7996    3.4464 H         1 COA        -0.0393
     72 H61         0.6977   11.6602    5.6592 H         1 COA        -0.0393
     73 H62        -0.7801   11.1234    4.8495 H         1 COA        -0.0393
     74 HN4        -1.9734   12.6890    5.6583 H         1 COA         0.0865
     75 H31        -1.8381   15.2114    4.1982 H         1 COA        -0.0393
     76 H32        -3.2182   14.5892    5.1129 H         1 COA        -0.0393
     77 H21        -0.6333   15.8161    6.2784 H         1 COA        -0.0393
     78 H22        -2.2279   16.5867    6.2384 H         1 COA        -0.0393
     79 HS1        -3.4473   14.8303    7.7048 H         1 COA         0.1718
@<TRIPOS>BOND
     1    1    2 ar
     2    1    6 ar
     3    2    3 ar
     4    2   49 1
     5    3    4 ar
     6    4    5 ar
     7    4   10 ar
     8    5    6 ar
     9    5    8 ar
    10    6    7 1
    11    7   50 1
    12    7   51 1
    13    8    9 ar
    14    9   10 ar
    15    9   52 1
    16   10   11 1
    17   11   12 1
    18   11   21 1
    19   11   53 1
    20   12   13 1
    21   12   14 1
    22   12   54 1
    23   14   15 1
    24   14   20 1
    25   14   55 1
    26   15   16 1
    27   16   17 2
    28   16   18 1
    29   16   19 1
    30   20   21 1
    31   20   22 1
    32   20   56 1
    33   22   23 1
    34   22   57 1
    35   22   58 1
    36   23   24 1
    37   24   25 2
    38   24   26 1
    39   24   27 1
    40   27   28 1
    41   28   29 2
    42   28   30 1
    43   28   31 1
    44   31   33 1
    45   32   33 1
    46   32   34 1
    47   32   35 1
    48   32   36 1
    49   33   59 1
    50   33   60 1
    51   34   61 1
    52   34   62 1
    53   34   63 1
    54   35   64 1
    55   35   65 1
    56   35   66 1
    57   36   37 1
    58   36   38 1
    59   36   67 1
    60   37   68 1
    61   38   39 2
    62   38   40 am
    63   40   41 1
    64   40   69 1
    65   41   42 1
    66   41   70 1
    67   41   71 1
    68   42   43 1
    69   42   72 1
    70   42   73 1
    71   43   44 2
    72   43   45 am
    73   45   46 1
    74   45   74 1
    75   46   47 1
    76   46   75 1
    77   46   76 1
    78   47   48 1
    79   47   77 1
    80   47   78 1
    81   48   79 1
@<TRIPOS>SUBSTRUCTURE
     1 COA         1 GROUP 0 A     ****
@<TRIPOS>MOLECULE
[5-(6-aminopurin-9-yl)-2-[[[[3-hydroxy-2,2-dimethyl-4-oxo-4-[[3-oxo-3-(2-sulfanylethylamino)propyl]amino]butoxy]-oxido-phosphoryl]oxy-oxido-phosphoryl]oxymethyl]-4-oxido-tetrahydrofuran-3-yl] phosphate
   79    81     1     0     0
SMALL
USER_CHARGES

@<TRIPOS>ATOM
      1 N1A        -3.9039    2.4517    1.8283 N.ar      1 COA        -0.5260
      2 C2A        -3.3295    3.2614    0.9063 C.ar      1 COA         0.6629
      3 N3A        -2.9870    2.9823   -0.3704 N.ar      1 COA        -0.5260
      4 C4A        -3.2951    1.7119   -0.6714 C.ar      1 COA         0.5212
      5 C5A        -3.8810    0.7714    0.1608 C.ar      1 COA         0.0088
      6 C6A        -4.1878    1.1807    1.4546 C.ar      1 COA         0.5212
      7 N6A        -4.7836    0.2924    2.3662 N.pl3     1 COA        -0.6025
      8 N7A        -4.0438   -0.4230   -0.4949 N.2       1 COA        -0.4271
      9 C8A        -3.5659   -0.2124   -1.7036 C.ar      1 COA         0.5691
     10 N9A        -3.1003    1.0663   -1.8591 N.pl3     1 COA        -0.5033
     11 C1B        -2.4828    1.6438   -3.1175 C.3       1 COA         0.2693
     12 C2B        -3.1527    2.8675   -3.7856 C.3       1 COA         0.2008
     13 O2B        -4.0894    2.4850   -4.6336 O.co2     1 COA        -0.1615
     14 C3B        -1.9491    3.4718   -4.5260 C.3       1 COA         0.1111
     15 O3B        -1.5961    2.7353   -5.7012 O.3       1 COA         0.1618
     16 P3B        -0.6948    3.4882   -6.8546 P.3       1 COA        -1.1921
     17 O7A        -1.5419    4.6766   -7.3000 O.co2     1 COA         0.3195
     18 O8A        -0.5270    2.4117   -7.9228 O.co2     1 COA         0.3195
     19 O9A         0.6037    3.8701   -6.1501 O.co2     1 COA         0.3195
     20 C4B        -0.8155    3.2705   -3.5257 C.3       1 COA         0.1111
     21 O4B        -1.1344    2.0698   -2.7962 O.3       1 COA        -0.1436
     22 C5B        -0.6774    4.4099   -2.5246 C.3       1 COA         0.1504
     23 O5B         0.3986    4.1249   -1.6460 O.3       1 COA         0.1618
     24 P1A         0.7670    5.1936   -0.4641 P.3       1 COA        -1.1062
     25 O1A         1.1289    6.5260   -1.0837 O.co2     1 COA         0.3195
     26 O2A         1.6876    4.5161    0.5275 O.co2     1 COA         0.3195
     27 O3A        -0.6886    5.3125    0.2679 O.3       1 COA         0.4672
     28 P2A        -1.1429    6.2040    1.5594 P.3       1 COA        -1.1062
     29 O4A        -2.6377    6.0612    1.7476 O.co2     1 COA         0.3195
     30 O5A        -0.1888    5.9134    2.6974 O.co2     1 COA         0.3195
     31 O6A        -0.8065    7.6957    0.9792 O.3       1 COA         0.1618
     32 CBP        -1.0090    9.5771   -0.5793 C.3       1 COA         0.0000
     33 CCP        -1.4652    8.1470   -0.1994 C.3       1 COA         0.1504
     34 CDP         0.5182    9.5632   -0.8289 C.3       1 COA         0.1179
     35 CEP        -1.6888   10.0085   -1.8940 C.3       1 COA         0.1179
     36 CAP        -1.3149   10.5877    0.5658 C.3       1 COA         0.0611
     37 OAP        -1.2622    9.9213    1.8245 O.3       1 COA        -0.2728
     38 C9P        -0.3407   11.7608    0.6502 C.2       1 COA         0.3561
     39 O9P         0.7104   11.6974    1.2852 O.2       1 COA        -0.2391
     40 N8P        -0.7630   12.8619   -0.0771 N.am      1 COA        -0.1909
     41 C7P         0.0024   14.0836   -0.1712 C.3       1 COA         0.1160
     42 C6P         0.9441   14.0084   -1.3643 C.3       1 COA         0.0286
     43 C5P         1.7814   15.2650   -1.5216 C.2       1 COA         0.3561
     44 O5P         1.3946   16.3780   -1.1759 O.2       1 COA        -0.2391
     45 N4P         3.0126   14.9887   -2.0977 N.am      1 COA        -0.1909
     46 C3P         4.0029   16.0070   -2.3621 C.3       1 COA         0.1160
     47 C2P         4.9561   16.2175   -1.1970 C.3       1 COA         0.2607
     48 S1P         5.8789   14.7071   -0.7787 S.3       1 COA        -0.3539
     49 H2A        -3.1164    4.2717    1.2395 H         1 COA        -0.1369
     50 H61A       -4.9530    0.5922    3.3076 H         1 COA         0.2048
     51 H62A       -4.9456   -0.6585    2.0932 H         1 COA         0.2048
     52 H8A        -3.5298   -0.9412   -2.5018 H         1 COA        -0.1292
     53 H1B        -2.3698    0.7525   -3.8030 H         1 COA        -0.0393
     54 H2B        -3.4073    3.5789   -2.9846 H         1 COA        -0.0393
     55 H3B        -2.0891    4.5191   -4.8158 H         1 COA        -0.0393
     56 H4B         0.1478    3.1100   -4.0235 H         1 COA        -0.0393
     57 H51A       -1.5937    4.5171   -1.9365 H         1 COA        -0.0393
     58 H52A       -0.4707    5.3519   -3.0411 H         1 COA        -0.0393
     59 H121       -1.2324    7.4355   -0.9984 H         1 COA        -0.0393
     60 H122       -2.5440    8.1138   -0.0133 H         1 COA        -0.0393
     61 H131        0.8796   10.5616   -1.1013 H         1 COA        -0.0393
     62 H132        0.7886    8.8842   -1.6454 H         1 COA        -0.0393
     63 H133        1.0681    9.2399    0.0618 H         1 COA        -0.0393
     64 H141       -1.3855   11.0192   -2.1904 H         1 COA        -0.0393
     65 H142       -2.7797   10.0132   -1.7903 H         1 COA        -0.0393
     66 H143       -1.4280    9.3402   -2.7211 H         1 COA        -0.0393
     67 H10        -2.3323   10.9827    0.4518 H         1 COA        -0.0393
     68 HO1        -0.3644    9.5651    1.9111 H         1 COA         0.2010
     69 HN8        -1.6351   12.8136   -0.5951 H         1 COA         0.0865
     70 H71        -0.6833   14.9308   -0.2732 H         1 COA        -0.0393
     71 H72         0.5651   14.2279    0.7566 H         1 COA        -0.0393
     72 H61         0.3709   13.8575   -2.2875 H         1 COA        -0.0393
     73 H62         1.6222   13.1526   -1.2555 H         1 COA        -0.0393
     74 HN4         3.2276   14.0272   -2.3450 H         1 COA         0.0865
     75 H31         4.5619   15.6683   -3.2383 H         1 COA        -0.0393
     76 H32         3.4716   16.9228   -2.6332 H         1 COA        -0.0393
     77 H21         5.6752   17.0133   -1.4167 H         1 COA        -0.0393
     78 H22         4.3847   16.5122   -0.3114 H         1 COA        -0.0393
     79 HS1         4.8027   13.9603   -0.4988 H         1 COA         0.1718
@<TRIPOS>BOND
     1    1    2 ar
     2    1    6 ar
     3    2    3 ar
     4    2   49 1
     5    3    4 ar
     6    4    5 ar
     7    4   10 ar
     8    5    6 ar
     9    5    8 ar
    10    6    7 1
    11    7   50 1
    12    7   51 1
    13    8    9 ar
    14    9   10 ar
    15    9   52 1
    16   10   11 1
    17   11   12 1
    18   11   21 1
    19   11   53 1
    20   12   13 1
    21   12   14 1
    22   12   54 1
    23   14   15 1
    24   14   20 1
    25   14   55 1
    26   15   16 1
    27   16   17 2
    28   16   18 1
    29   16   19 1
    30   20   21 1
    31   20   22 1
    32   20   56 1
    33   22   23 1
    34   22   57 1
    35   22   58 1
    36   23   24 1
    37   24   25 2
    38   24   26 1
    39   24   27 1
    40   27   28 1
    41   28   29 2
    42   28   30 1
    43   28   31 1
    44   31   33 1
    45   32   33 1
    46   32   34 1
    47   32   35 1
    48   32   36 1
    49   33   59 1
    50   33   60 1
    51   34   61 1
    52   34   62 1
    53   34   63 1
    54   35   64 1
    55   35   65 1
    56   35   66 1
    57   36   37 1
    58   36   38 1
    59   36   67 1
    60   37   68 1
    61   38   39 2
    62   38   40 am
    63   40   41 1
    64   40   69 1
    65   41   42 1
    66   41   70 1
    67   41   71 1
    68   42   43 1
    69   42   72 1
    70   42   73 1
    71   43   44 2
    72   43   45 am
    73   45   46 1
    74   45   74 1
    75   46   47 1
    76   46   75 1
    77   46   76 1
    78   47   48 1
    79   47   77 1
    80   47   78 1
    81   48   79 1
@<TRIPOS>SUBSTRUCTURE
     1 COA         1 GROUP 0 A     ****
@<TRIPOS>MOLECULE
[5-(6-aminopurin-9-yl)-2-[[[[3-hydroxy-2,2-dimethyl-4-oxo-4-[[3-oxo-3-(2-sulfanylethylamino)propyl]amino]butoxy]-oxido-phosphoryl]oxy-oxido-phosphoryl]oxymethyl]-4-oxido-tetrahydrofuran-3-yl] phosphate
   79    81     1     0     0
SMALL
USER_CHARGES

@<TRIPOS>ATOM
      1 N1A         4.6908    0.9263    0.5284 N.ar      1 COA        -0.5260
      2 C2A         3.4193    1.3931    0.4919 C.ar      1 COA         0.6629
      3 N3A         2.4653    1.1803   -0.4405 N.ar      1 COA        -0.5260
      4 C4A         2.9338    0.3916   -1.4192 C.ar      1 COA         0.5212
      5 C5A         4.2020   -0.1580   -1.5185 C.ar      1 COA         0.0088
      6 C6A         5.0963    0.1348   -0.4937 C.ar      1 COA         0.5212
      7 N6A         6.4038   -0.3801   -0.5131 N.pl3     1 COA        -0.6025
      8 N7A         4.3170   -0.9111   -2.6598 N.2       1 COA        -0.4271
      9 C8A         3.1403   -0.8212   -3.2436 C.ar      1 COA         0.5691
     10 N9A         2.2683   -0.0422   -2.5302 N.pl3     1 COA        -0.5033
     11 C1B         0.8363    0.2748   -2.9142 C.3       1 COA         0.2693
     12 C2B        -0.3043   -0.1391   -1.9549 C.3       1 COA         0.2008
     13 O2B        -0.6991   -1.3747   -2.2004 O.co2     1 COA        -0.1615
     14 C3B        -1.3853    0.8773   -2.3558 C.3       1 COA         0.1111
     15 O3B        -2.0094    0.5576   -3.6033 O.3       1 COA         0.1618
     16 P3B        -3.4806    1.2180   -3.9334 P.3       1 COA        -1.1921
     17 O7A        -4.3962    0.7100   -2.8235 O.co2     1 COA         0.3195
     18 O8A        -3.8112    0.6588   -5.3140 O.co2     1 COA         0.3195
     19 O9A        -3.2466    2.7257   -3.9151 O.co2     1 COA         0.3195
     20 C4B        -0.5713    2.1464   -2.5855 C.3       1 COA         0.1111
     21 O4B         0.7211    1.7136   -3.0526 O.3       1 COA        -0.1436
     22 C5B        -0.3655    2.9745   -1.3239 C.3       1 COA         0.1504
     23 O5B         0.3986    4.1249   -1.6460 O.3       1 COA         0.1618
     24 P1A         0.7670    5.1936   -0.4641 P.3       1 COA        -1.1062
     25 O1A         1.1289    6.5260   -1.0837 O.co2     1 COA         0.3195
     26 O2A         1.6876    4.5161    0.5275 O.co2     1 COA         0.3195
     27 O3A        -0.6886    5.3125    0.2679 O.3       1 COA         0.4672
     28 P2A        -1.1429    6.2040    1.5594 P.3       1 COA        -1.1062
     29 O4A        -2.6377    6.0612    1.7476 O.co2     1 COA         0.3195
     30 O5A        -0.1888    5.9134    2.6974 O.co2     1 COA         0.3195
     31 O6A        -0.8065    7.6957    0.9792 O.3       1 COA         0.1618
     32 CBP        -1.0463    9.4480   -0.7182 C.3       1 COA         0.0000
     33 CCP        -1.7297    8.3208    0.0940 C.3       1 COA         0.1504
     34 CDP         0.1097    8.8359   -1.5452 C.3       1 COA         0.1179
     35 CEP        -2.0542   10.0578   -1.7127 C.3       1 COA         0.1179
     36 CAP        -0.4581   10.5415    0.2222 C.3       1 COA         0.0611
     37 OAP         0.1628   11.5628   -0.5541 O.3       1 COA        -0.2728
     38 C9P        -1.4903   11.2331    1.1103 C.2       1 COA         0.3561
     39 O9P        -2.1297   12.2135    0.7334 O.2       1 COA        -0.2391
     40 N8P        -1.6312   10.6209    2.3453 N.am      1 COA        -0.1909
     41 C7P        -2.5657   11.0776    3.3480 C.3       1 COA         0.1160
     42 C6P        -1.8923   12.1042    4.2472 C.3       1 COA         0.0286
     43 C5P        -0.6795   11.5390    4.9645 C.2       1 COA         0.3561
     44 O5P        -0.2966   10.3804    4.8270 O.2       1 COA        -0.2391
     45 N4P        -0.0799   12.4887    5.7786 N.am      1 COA        -0.1909
     46 C3P         1.0929   12.2128    6.5761 C.3       1 COA         0.1160
     47 C2P         0.7523   11.7034    7.9670 C.3       1 COA         0.2607
     48 S1P         2.2373   11.3605    8.9592 S.3       1 COA        -0.3539
     49 H2A         3.1287    2.0232    1.3259 H         1 COA        -0.1369
     50 H61A        7.0472   -0.1189    0.2098 H         1 COA         0.2048
     51 H62A        6.7069   -0.9256   -1.2976 H         1 COA         0.2048
     52 H8A         2.8628   -1.2932   -4.1762 H         1 COA        -0.1292
     53 H1B         0.7316   -0.1451   -3.9582 H         1 COA        -0.0393
     54 H2B         0.0098    0.1350   -0.9357 H         1 COA        -0.0393
     55 H3B        -2.1756    1.0002   -1.6070 H         1 COA        -0.0393
     56 H4B        -1.0101    2.7804   -3.3646 H         1 COA        -0.0393
     57 H51A        0.1721    2.3946   -0.5677 H         1 COA        -0.0393
     58 H52A       -1.3279    3.2941   -0.9132 H         1 COA        -0.0393
     59 H121       -2.1262    7.5446   -0.5686 H         1 COA        -0.0393
     60 H122       -2.5562    8.7139    0.6956 H         1 COA        -0.0393
     61 H131        0.6194    9.6060   -2.1356 H         1 COA        -0.0393
     62 H132       -0.2524    8.0744   -2.2449 H         1 COA        -0.0393
     63 H133        0.8566    8.3597   -0.9005 H         1 COA        -0.0393
     64 H141       -1.5995   10.8607   -2.3043 H         1 COA        -0.0393
     65 H142       -2.9149   10.4873   -1.1878 H         1 COA        -0.0393
     66 H143       -2.4255    9.3094   -2.4205 H         1 COA        -0.0393
     67 H10         0.3192   10.1040    0.8613 H         1 COA        -0.0393
     68 HO1        -0.5280   11.9349   -1.1241 H         1 COA         0.2010
     69 HN8        -1.0789    9.7962    2.5598 H         1 COA         0.0865
     70 H71        -3.4403   11.5120    2.8534 H         1 COA        -0.0393
     71 H72        -2.9130   10.2202    3.9332 H         1 COA        -0.0393
     72 H61        -2.6016   12.4670    5.0015 H         1 COA        -0.0393
     73 H62        -1.5711   12.9703    3.6552 H         1 COA        -0.0393
     74 HN4        -0.4835   13.4202    5.8156 H         1 COA         0.0865
     75 H31         1.6582   11.4508    6.0333 H         1 COA        -0.0393
     76 H32         1.6954   13.1243    6.6048 H         1 COA        -0.0393
     77 H21         0.1325   12.4252    8.5088 H         1 COA        -0.0393
     78 H22         0.1883   10.7694    7.8816 H         1 COA        -0.0393
     79 HS1         2.7222   12.6086    8.9190 H         1 COA         0.1718
@<TRIPOS>BOND
     1    1    2 ar
     2    1    6 ar
     3    2    3 ar
     4    2   49 1
     5    3    4 ar
     6    4    5 ar
     7    4   10 ar
     8    5    6 ar
     9    5    8 ar
    10    6    7 1
    11    7   50 1
    12    7   51 1
    13    8    9 ar
    14    9   10 ar
    15    9   52 1
    16   10   11 1
    17   11   12 1
    18   11   21 1
    19   11   53 1
    20   12   13 1
    21   12   14 1
    22   12   54 1
    23   14   15 1
    24   14   20 1
    25   14   55 1
    26   15   16 1
    27   16   17 2
    28   16   18 1
    29   16   19 1
    30   20   21 1
    31   20   22 1
    32   20   56 1
    33   22   23 1
    34   22   57 1
    35   22   58 1
    36   23   24 1
    37   24   25 2
    38   24   26 1
    39   24   27 1
    40   27   28 1
    41   28   29 2
    42   28   30 1
    43   28   31 1
    44   31   33 1
    45   32   33 1
    46   32   34 1
    47   32   35 1
    48   32   36 1
    49   33   59 1
    50   33   60 1
    51   34   61 1
    52   34   62 1
    53   34   63 1
    54   35   64 1
    55   35   65 1
    56   35   66 1
    57   36   37 1
    58   36   38 1
    59   36   67 1
    60   37   68 1
    61   38   39 2
    62   38   40 am
    63   40   41 1
    64   40   69 1
    65   41   42 1
    66   41   70 1
    67   41   71 1
    68   42   43 1
    69   42   72 1
    70   42   73 1
    71   43   44 2
    72   43   45 am
    73   45   46 1
    74   45   74 1
    75   46   47 1
    76   46   75 1
    77   46   76 1
    78   47   48 1
    79   47   77 1
    80   47   78 1
    81   48   79 1
@<TRIPOS>SUBSTRUCTURE
     1 COA         1 GROUP 0 A     ****
@<TRIPOS>MOLECULE
[5-(6-aminopurin-9-yl)-2-[[[[3-hydroxy-2,2-dimethyl-4-oxo-4-[[3-oxo-3-(2-sulfanylethylamino)propyl]amino]butoxy]-oxido-phosphoryl]oxy-oxido-phosphoryl]oxymethyl]-4-oxido-tetrahydrofuran-3-yl] phosphate
   79    81     1     0     0
SMALL
USER_CHARGES

@<TRIPOS>ATOM
      1 N1A         5.7146    2.0302   -0.7890 N.ar      1 COA        -0.5260
      2 C2A         4.3962    2.1571   -0.5034 C.ar      1 COA         0.6629
      3 N3A         3.3299    1.7526   -1.2276 N.ar      1 COA        -0.5260
      4 C4A         3.7311    1.1587   -2.3614 C.ar      1 COA         0.5212
      5 C5A         5.0346    0.9576   -2.7868 C.ar      1 COA         0.0088
      6 C6A         6.0470    1.4195   -1.9517 C.ar      1 COA         0.5212
      7 N6A         7.3978    1.2581   -2.3043 N.pl3     1 COA        -0.6025
      8 N7A         5.0562    0.3154   -3.9993 N.2       1 COA        -0.4271
      9 C8A         3.7892    0.1293   -4.3054 C.ar      1 COA         0.5691
     10 N9A         2.9479    0.6234   -3.3440 N.pl3     1 COA        -0.5033
     11 C1B         1.4328    0.5815   -3.3775 C.3       1 COA         0.2693
     12 C2B         0.6799   -0.1567   -2.2458 C.3       1 COA         0.2008
     13 O2B         0.5449   -1.4388   -2.5302 O.co2     1 COA        -0.1615
     14 C3B        -0.6749    0.5672   -2.2968 C.3       1 COA         0.1111
     15 O3B        -1.4782    0.1594   -3.4088 O.3       1 COA         0.1618
     16 P3B        -3.0996    0.4363   -3.3454 P.3       1 COA        -1.1921
     17 O7A        -3.5828   -0.3425   -2.1254 O.co2     1 COA         0.3195
     18 O8A        -3.6001   -0.1211   -4.6746 O.co2     1 COA         0.3195
     19 O9A        -3.2339    1.9510   -3.2185 O.co2     1 COA         0.3195
     20 C4B        -0.2635    2.0121   -2.5599 C.3       1 COA         0.1111
     21 O4B         0.9490    1.9478   -3.3354 O.3       1 COA        -0.1436
     22 C5B         0.0275    2.8029   -1.2913 C.3       1 COA         0.1504
     23 O5B         0.3986    4.1249   -1.6460 O.3       1 COA         0.1618
     24 P1A         0.7670    5.1936   -0.4641 P.3       1 COA        -1.1062
     25 O1A         1.1289    6.5260   -1.0837 O.co2     1 COA         0.3195
     26 O2A         1.6876    4.5161    0.5275 O.co2     1 COA         0.3195
     27 O3A        -0.6886    5.3125    0.2679 O.3       1 COA         0.4672
     28 P2A        -1.1429    6.2040    1.5594 P.3       1 COA        -1.1062
     29 O4A        -2.6377    6.0612    1.7476 O.co2     1 COA         0.3195
     30 O5A        -0.1888    5.9134    2.6974 O.co2     1 COA         0.3195
     31 O6A        -0.8065    7.6957    0.9792 O.3       1 COA         0.1618
     32 CBP        -1.0090    9.5771   -0.5793 C.3       1 COA         0.0000
     33 CCP        -1.4652    8.1470   -0.1994 C.3       1 COA         0.1504
     34 CDP         0.5182    9.5632   -0.8289 C.3       1 COA         0.1179
     35 CEP        -1.6888   10.0085   -1.8940 C.3       1 COA         0.1179
     36 CAP        -1.3149   10.5877    0.5658 C.3       1 COA         0.0611
     37 OAP        -2.7163   10.6149    0.8239 O.3       1 COA        -0.2728
     38 C9P        -0.6314   10.2649    1.8928 C.2       1 COA         0.3561
     39 O9P         0.1432    9.3183    2.0197 O.2       1 COA        -0.2391
     40 N8P        -0.9621   11.1596    2.8978 N.am      1 COA        -0.1909
     41 C7P        -0.4209   11.0766    4.2348 C.3       1 COA         0.1160
     42 C6P         0.8633   11.8886    4.3197 C.3       1 COA         0.0286
     43 C5P         0.6435   13.3557    3.9970 C.2       1 COA         0.3561
     44 O5P        -0.4131   13.9413    4.2170 O.2       1 COA        -0.2391
     45 N4P         1.7731   13.9283    3.4311 N.am      1 COA        -0.1909
     46 C3P         1.8335   15.3141    3.0270 C.3       1 COA         0.1160
     47 C2P         2.3188   16.2306    4.1382 C.3       1 COA         0.2607
     48 S1P         2.3897   17.9712    3.6156 S.3       1 COA        -0.3539
     49 H2A         4.1666    2.6505    0.4351 H         1 COA        -0.1369
     50 H61A        8.1108    1.6399   -1.7121 H         1 COA         0.2048
     51 H62A        7.6305    0.8472   -3.1886 H         1 COA         0.2048
     52 H8A         3.4224   -0.3522   -5.2016 H         1 COA        -0.1292
     53 H1B         1.1905    0.2000   -4.4133 H         1 COA        -0.0393
     54 H2B         1.1486    0.1388   -1.2941 H         1 COA        -0.0393
     55 H3B        -1.2745    0.4471   -1.3878 H         1 COA        -0.0393
     56 H4B        -1.0100    2.5497   -3.1559 H         1 COA        -0.0393
     57 H51A        0.8489    2.3441   -0.7330 H         1 COA        -0.0393
     58 H52A       -0.8601    2.8452   -0.6531 H         1 COA        -0.0393
     59 H121       -1.2324    7.4355   -0.9984 H         1 COA        -0.0393
     60 H122       -2.5440    8.1138   -0.0133 H         1 COA        -0.0393
     61 H131        0.8796   10.5616   -1.1013 H         1 COA        -0.0393
     62 H132        0.7886    8.8842   -1.6454 H         1 COA        -0.0393
     63 H133        1.0681    9.2399    0.0618 H         1 COA        -0.0393
     64 H141       -1.3855   11.0192   -2.1904 H         1 COA        -0.0393
     65 H142       -2.7797   10.0132   -1.7903 H         1 COA        -0.0393
     66 H143       -1.4280    9.3402   -2.7211 H         1 COA        -0.0393
     67 H10        -1.0237   11.5996    0.2569 H         1 COA        -0.0393
     68 HO1        -2.9668    9.7148    1.0837 H         1 COA         0.2010
     69 HN8        -1.5912   11.9301    2.6933 H         1 COA         0.0865
     70 H71        -1.1627   11.4515    4.9471 H         1 COA        -0.0393
     71 H72        -0.2314   10.0271    4.4816 H         1 COA        -0.0393
     72 H61         1.6084   11.4891    3.6205 H         1 COA        -0.0393
     73 H62         1.2884   11.8166    5.3287 H         1 COA        -0.0393
     74 HN4         2.5950   13.3471    3.2946 H         1 COA         0.0865
     75 H31         2.5294   15.3561    2.1850 H         1 COA        -0.0393
     76 H32         0.8428   15.5955    2.6611 H         1 COA        -0.0393
     77 H21         1.6707   16.1589    5.0176 H         1 COA        -0.0393
     78 H22         3.3289   15.9332    4.4365 H         1 COA        -0.0393
     79 HS1         1.0872   18.0811    3.3226 H         1 COA         0.1718
@<TRIPOS>BOND
     1    1    2 ar
     2    1    6 ar
     3    2    3 ar
     4    2   49 1
     5    3    4 ar
     6    4    5 ar
     7    4   10 ar
     8    5    6 ar
     9    5    8 ar
    10    6    7 1
    11    7   50 1
    12    7   51 1
    13    8    9 ar
    14    9   10 ar
    15    9   52 1
    16   10   11 1
    17   11   12 1
    18   11   21 1
    19   11   53 1
    20   12   13 1
    21   12   14 1
    22   12   54 1
    23   14   15 1
    24   14   20 1
    25   14   55 1
    26   15   16 1
    27   16   17 2
    28   16   18 1
    29   16   19 1
    30   20   21 1
    31   20   22 1
    32   20   56 1
    33   22   23 1
    34   22   57 1
    35   22   58 1
    36   23   24 1
    37   24   25 2
    38   24   26 1
    39   24   27 1
    40   27   28 1
    41   28   29 2
    42   28   30 1
    43   28   31 1
    44   31   33 1
    45   32   33 1
    46   32   34 1
    47   32   35 1
    48   32   36 1
    49   33   59 1
    50   33   60 1
    51   34   61 1
    52   34   62 1
    53   34   63 1
    54   35   64 1
    55   35   65 1
    56   35   66 1
    57   36   37 1
    58   36   38 1
    59   36   67 1
    60   37   68 1
    61   38   39 2
    62   38   40 am
    63   40   41 1
    64   40   69 1
    65   41   42 1
    66   41   70 1
    67   41   71 1
    68   42   43 1
    69   42   72 1
    70   42   73 1
    71   43   44 2
    72   43   45 am
    73   45   46 1
    74   45   74 1
    75   46   47 1
    76   46   75 1
    77   46   76 1
    78   47   48 1
    79   47   77 1
    80   47   78 1
    81   48   79 1
@<TRIPOS>SUBSTRUCTURE
     1 COA         1 GROUP 0 A     ****
@<TRIPOS>MOLECULE
[5-(6-aminopurin-9-yl)-2-[[[[3-hydroxy-2,2-dimethyl-4-oxo-4-[[3-oxo-3-(2-sulfanylethylamino)propyl]amino]butoxy]-oxido-phosphoryl]oxy-oxido-phosphoryl]oxymethyl]-4-oxido-tetrahydrofuran-3-yl] phosphate
   79    81     1     0     0
SMALL
USER_CHARGES

@<TRIPOS>ATOM
      1 N1A        -3.9039    2.4517    1.8283 N.ar      1 COA        -0.5260
      2 C2A        -3.3295    3.2614    0.9063 C.ar      1 COA         0.6629
      3 N3A        -2.9870    2.9823   -0.3704 N.ar      1 COA        -0.5260
      4 C4A        -3.2951    1.7119   -0.6714 C.ar      1 COA         0.5212
      5 C5A        -3.8810    0.7714    0.1608 C.ar      1 COA         0.0088
      6 C6A        -4.1878    1.1807    1.4546 C.ar      1 COA         0.5212
      7 N6A        -4.7836    0.2924    2.3662 N.pl3     1 COA        -0.6025
      8 N7A        -4.0438   -0.4230   -0.4949 N.2       1 COA        -0.4271
      9 C8A        -3.5659   -0.2124   -1.7036 C.ar      1 COA         0.5691
     10 N9A        -3.1003    1.0663   -1.8591 N.pl3     1 COA        -0.5033
     11 C1B        -2.4828    1.6438   -3.1175 C.3       1 COA         0.2693
     12 C2B        -3.1527    2.8675   -3.7856 C.3       1 COA         0.2008
     13 O2B        -4.0894    2.4850   -4.6336 O.co2     1 COA        -0.1615
     14 C3B        -1.9491    3.4718   -4.5260 C.3       1 COA         0.1111
     15 O3B        -1.5961    2.7353   -5.7012 O.3       1 COA         0.1618
     16 P3B        -0.6948    3.4882   -6.8546 P.3       1 COA        -1.1921
     17 O7A        -1.5419    4.6766   -7.3000 O.co2     1 COA         0.3195
     18 O8A        -0.5270    2.4117   -7.9228 O.co2     1 COA         0.3195
     19 O9A         0.6037    3.8701   -6.1501 O.co2     1 COA         0.3195
     20 C4B        -0.8155    3.2705   -3.5257 C.3       1 COA         0.1111
     21 O4B        -1.1344    2.0698   -2.7962 O.3       1 COA        -0.1436
     22 C5B        -0.6774    4.4099   -2.5246 C.3       1 COA         0.1504
     23 O5B         0.3986    4.1249   -1.6460 O.3       1 COA         0.1618
     24 P1A         0.7670    5.1936   -0.4641 P.3       1 COA        -1.1062
     25 O1A         1.1289    6.5260   -1.0837 O.co2     1 COA         0.3195
     26 O2A         1.6876    4.5161    0.5275 O.co2     1 COA         0.3195
     27 O3A        -0.6886    5.3125    0.2679 O.3       1 COA         0.4672
     28 P2A        -1.1429    6.2040    1.5594 P.3       1 COA        -1.1062
     29 O4A        -2.6377    6.0612    1.7476 O.co2     1 COA         0.3195
     30 O5A        -0.1888    5.9134    2.6974 O.co2     1 COA         0.3195
     31 O6A        -0.8065    7.6957    0.9792 O.3       1 COA         0.1618
     32 CBP        -1.0090    9.5771   -0.5793 C.3       1 COA         0.0000
     33 CCP        -1.4652    8.1470   -0.1994 C.3       1 COA         0.1504
     34 CDP         0.5182    9.5632   -0.8289 C.3       1 COA         0.1179
     35 CEP        -1.6888   10.0085   -1.8940 C.3       1 COA         0.1179
     36 CAP        -1.3149   10.5877    0.5658 C.3       1 COA         0.0611
     37 OAP        -2.6150   11.1430    0.3849 O.3       1 COA        -0.2728
     38 C9P        -1.2888    9.9815    1.9673 C.2       1 COA         0.3561
     39 O9P        -2.2761    9.4494    2.4714 O.2       1 COA        -0.2391
     40 N8P        -0.0453   10.0792    2.5706 N.am      1 COA        -0.1909
     41 C7P         0.2338    9.5548    3.8876 C.3       1 COA         0.1160
     42 C6P        -0.0469   10.6226    4.9350 C.3       1 COA         0.0286
     43 C5P         0.2269   10.1355    6.3466 C.2       1 COA         0.3561
     44 O5P         1.0762    9.2895    6.6129 O.2       1 COA        -0.2391
     45 N4P        -0.5965   10.7615    7.2709 N.am      1 COA        -0.1909
     46 C3P        -0.5449   10.4801    8.6871 C.3       1 COA         0.1160
     47 C2P        -1.4794    9.3540    9.0979 C.3       1 COA         0.2607
     48 S1P        -1.4040    9.0109   10.8823 S.3       1 COA        -0.3539
     49 H2A        -3.1164    4.2717    1.2395 H         1 COA        -0.1369
     50 H61A       -4.9530    0.5922    3.3076 H         1 COA         0.2048
     51 H62A       -4.9456   -0.6585    2.0932 H         1 COA         0.2048
     52 H8A        -3.5298   -0.9412   -2.5018 H         1 COA        -0.1292
     53 H1B        -2.3698    0.7525   -3.8030 H         1 COA        -0.0393
     54 H2B        -3.4073    3.5789   -2.9846 H         1 COA        -0.0393
     55 H3B        -2.0891    4.5191   -4.8158 H         1 COA        -0.0393
     56 H4B         0.1478    3.1100   -4.0235 H         1 COA        -0.0393
     57 H51A       -1.5937    4.5171   -1.9365 H         1 COA        -0.0393
     58 H52A       -0.4707    5.3519   -3.0411 H         1 COA        -0.0393
     59 H121       -1.2324    7.4355   -0.9984 H         1 COA        -0.0393
     60 H122       -2.5440    8.1138   -0.0133 H         1 COA        -0.0393
     61 H131        0.8796   10.5616   -1.1013 H         1 COA        -0.0393
     62 H132        0.7886    8.8842   -1.6454 H         1 COA        -0.0393
     63 H133        1.0681    9.2399    0.0618 H         1 COA        -0.0393
     64 H141       -1.3855   11.0192   -2.1904 H         1 COA        -0.0393
     65 H142       -2.7797   10.0132   -1.7903 H         1 COA        -0.0393
     66 H143       -1.4280    9.3402   -2.7211 H         1 COA        -0.0393
     67 H10        -0.6003   11.4196    0.5288 H         1 COA        -0.0393
     68 HO1        -3.2380   10.4002    0.4064 H         1 COA         0.2010
     69 HN8         0.7221   10.5122    2.0658 H         1 COA         0.0865
     70 H71        -0.3872    8.6704    4.0616 H         1 COA        -0.0393
     71 H72         1.2796    9.2346    3.9331 H         1 COA        -0.0393
     72 H61        -1.0952   10.9409    4.8767 H         1 COA        -0.0393
     73 H62         0.5754   11.5067    4.7477 H         1 COA        -0.0393
     74 HN4        -1.2659   11.4487    6.9370 H         1 COA         0.0865
     75 H31         0.4887   10.1984    8.9044 H         1 COA        -0.0393
     76 H32        -0.7602   11.4112    9.2174 H         1 COA        -0.0393
     77 H21        -2.5158    9.5874    8.8332 H         1 COA        -0.0393
     78 H22        -1.1937    8.4375    8.5722 H         1 COA        -0.0393
     79 HS1        -0.1013    8.7004   10.9088 H         1 COA         0.1718
@<TRIPOS>BOND
     1    1    2 ar
     2    1    6 ar
     3    2    3 ar
     4    2   49 1
     5    3    4 ar
     6    4    5 ar
     7    4   10 ar
     8    5    6 ar
     9    5    8 ar
    10    6    7 1
    11    7   50 1
    12    7   51 1
    13    8    9 ar
    14    9   10 ar
    15    9   52 1
    16   10   11 1
    17   11   12 1
    18   11   21 1
    19   11   53 1
    20   12   13 1
    21   12   14 1
    22   12   54 1
    23   14   15 1
    24   14   20 1
    25   14   55 1
    26   15   16 1
    27   16   17 2
    28   16   18 1
    29   16   19 1
    30   20   21 1
    31   20   22 1
    32   20   56 1
    33   22   23 1
    34   22   57 1
    35   22   58 1
    36   23   24 1
    37   24   25 2
    38   24   26 1
    39   24   27 1
    40   27   28 1
    41   28   29 2
    42   28   30 1
    43   28   31 1
    44   31   33 1
    45   32   33 1
    46   32   34 1
    47   32   35 1
    48   32   36 1
    49   33   59 1
    50   33   60 1
    51   34   61 1
    52   34   62 1
    53   34   63 1
    54   35   64 1
    55   35   65 1
    56   35   66 1
    57   36   37 1
    58   36   38 1
    59   36   67 1
    60   37   68 1
    61   38   39 2
    62   38   40 am
    63   40   41 1
    64   40   69 1
    65   41   42 1
    66   41   70 1
    67   41   71 1
    68   42   43 1
    69   42   72 1
    70   42   73 1
    71   43   44 2
    72   43   45 am
    73   45   46 1
    74   45   74 1
    75   46   47 1
    76   46   75 1
    77   46   76 1
    78   47   48 1
    79   47   77 1
    80   47   78 1
    81   48   79 1
@<TRIPOS>SUBSTRUCTURE
     1 COA         1 GROUP 0 A     ****
@<TRIPOS>MOLECULE
[5-(6-aminopurin-9-yl)-2-[[[[3-hydroxy-2,2-dimethyl-4-oxo-4-[[3-oxo-3-(2-sulfanylethylamino)propyl]amino]butoxy]-oxido-phosphoryl]oxy-oxido-phosphoryl]oxymethyl]-4-oxido-tetrahydrofuran-3-yl] phosphate
   79    81     1     0     0
SMALL
USER_CHARGES

@<TRIPOS>ATOM
      1 N1A         6.3197    3.3711    0.1967 N.ar      1 COA        -0.5260
      2 C2A         5.0033    3.3256    0.5141 C.ar      1 COA         0.6629
      3 N3A         4.0730    2.4196    0.1418 N.ar      1 COA        -0.5260
      4 C4A         4.6208    1.4811   -0.6447 C.ar      1 COA         0.5212
      5 C5A         5.9423    1.3962   -1.0530 C.ar      1 COA         0.0088
      6 C6A         6.8050    2.3902   -0.6021 C.ar      1 COA         0.5212
      7 N6A         8.1621    2.3826   -0.9671 N.pl3     1 COA        -0.6025
      8 N7A         6.1335    0.2987   -1.8543 N.2       1 COA        -0.4271
      9 C8A         4.9500   -0.2731   -1.9316 C.ar      1 COA         0.5691
     10 N9A         4.0006    0.4065   -1.2155 N.pl3     1 COA        -0.5033
     11 C1B         2.5376    0.0288   -1.0907 C.3       1 COA         0.2693
     12 C2B         1.9579   -0.2640    0.3131 C.3       1 COA         0.2008
     13 O2B         2.1299   -1.5323    0.6368 O.co2     1 COA        -0.1615
     14 C3B         0.4729    0.0487    0.0699 C.3       1 COA         0.1111
     15 O3B        -0.1943   -0.9780   -0.6709 O.3       1 COA         0.1618
     16 P3B        -1.8364   -1.0586   -0.5907 P.3       1 COA        -1.1921
     17 O7A        -2.1459   -1.2889    0.8856 O.co2     1 COA         0.3195
     18 O8A        -2.1706   -2.2476   -1.4866 O.co2     1 COA         0.3195
     19 O9A        -2.3217    0.2823   -1.1335 O.co2     1 COA         0.3195
     20 C4B         0.5412    1.2713   -0.8394 C.3       1 COA         0.1111
     21 O4B         1.7485    1.1278   -1.6124 O.3       1 COA        -0.1436
     22 C5B         0.6184    2.5901   -0.0816 C.3       1 COA         0.1504
     23 O5B         0.6777    3.6562   -1.0149 O.3       1 COA         0.1618
     24 P1A         0.7670    5.1936   -0.4641 P.3       1 COA        -1.1062
     25 O1A         0.8194    6.1476   -1.6376 O.co2     1 COA         0.3195
     26 O2A         1.8029    5.2507    0.6375 O.co2     1 COA         0.3195
     27 O3A        -0.6886    5.3125    0.2679 O.3       1 COA         0.4672
     28 P2A        -1.1429    6.2040    1.5594 P.3       1 COA        -1.1062
     29 O4A        -2.6377    6.0612    1.7476 O.co2     1 COA         0.3195
     30 O5A        -0.1888    5.9134    2.6974 O.co2     1 COA         0.3195
     31 O6A        -0.8065    7.6957    0.9792 O.3       1 COA         0.1618
     32 CBP        -1.0090    9.5771   -0.5793 C.3       1 COA         0.0000
     33 CCP        -1.4652    8.1470   -0.1994 C.3       1 COA         0.1504
     34 CDP         0.5182    9.5632   -0.8289 C.3       1 COA         0.1179
     35 CEP        -1.6888   10.0085   -1.8940 C.3       1 COA         0.1179
     36 CAP        -1.3149   10.5877    0.5658 C.3       1 COA         0.0611
     37 OAP        -2.7163   10.6149    0.8239 O.3       1 COA        -0.2728
     38 C9P        -0.6314   10.2649    1.8928 C.2       1 COA         0.3561
     39 O9P        -0.7862    9.1884    2.4667 O.2       1 COA        -0.2391
     40 N8P         0.1805   11.2940    2.3420 N.am      1 COA        -0.1909
     41 C7P         0.9514   11.2131    3.5612 C.3       1 COA         0.1160
     42 C6P         0.1235   11.7336    4.7271 C.3       1 COA         0.0286
     43 C5P        -0.2981   13.1798    4.5383 C.2       1 COA         0.3561
     44 O5P         0.3672   13.9971    3.9079 O.2       1 COA        -0.2391
     45 N4P        -1.5082   13.4440    5.1628 N.am      1 COA        -0.1909
     46 C3P        -2.1368   14.7448    5.1405 C.3       1 COA         0.1160
     47 C2P        -3.6532   14.6669    5.2082 C.3       1 COA         0.2607
     48 S1P        -4.3594   13.7368    3.8139 S.3       1 COA        -0.3539
     49 H2A         4.6492    4.1260    1.1552 H         1 COA        -0.1369
     50 H61A        8.7564    3.1335   -0.6708 H         1 COA         0.2048
     51 H62A        8.4991    1.6788   -1.5963 H         1 COA         0.2048
     52 H8A         4.7208   -1.1726   -2.4865 H         1 COA        -0.1292
     53 H1B         2.4085   -0.8200   -1.8256 H         1 COA        -0.0393
     54 H2B         2.3286    0.5212    0.9904 H         1 COA        -0.0393
     55 H3B        -0.0977    0.2245    0.9885 H         1 COA        -0.0393
     56 H4B        -0.2996    1.3083   -1.5416 H         1 COA        -0.0393
     57 H51A        1.5144    2.6204    0.5455 H         1 COA        -0.0393
     58 H52A       -0.2654    2.7227    0.5494 H         1 COA        -0.0393
     59 H121       -1.2324    7.4355   -0.9984 H         1 COA        -0.0393
     60 H122       -2.5440    8.1138   -0.0133 H         1 COA        -0.0393
     61 H131        0.8796   10.5616   -1.1013 H         1 COA        -0.0393
     62 H132        0.7886    8.8842   -1.6454 H         1 COA        -0.0393
     63 H133        1.0681    9.2399    0.0618 H         1 COA        -0.0393
     64 H141       -1.3855   11.0192   -2.1904 H         1 COA        -0.0393
     65 H142       -2.7797   10.0132   -1.7903 H         1 COA        -0.0393
     66 H143       -1.4280    9.3402   -2.7211 H         1 COA        -0.0393
     67 H10        -1.0237   11.5996    0.2569 H         1 COA        -0.0393
     68 HO1        -2.9668    9.7148    1.0837 H         1 COA         0.2010
     69 HN8         0.2691   12.1390    1.7860 H         1 COA         0.0865
     70 H71         1.2472   10.1731    3.7314 H         1 COA        -0.0393
     71 H72         1.8685   11.7996    3.4464 H         1 COA        -0.0393
     72 H61         0.6977   11.6602    5.6592 H         1 COA        -0.0393
     73 H62        -0.7801   11.1234    4.8495 H         1 COA        -0.0393
     74 HN4        -1.9734   12.6890    5.6583 H         1 COA         0.0865
     75 H31        -1.7566   15.2821    6.0132 H         1 COA        -0.0393
     76 H32        -1.7884   15.2652    4.2448 H         1 COA        -0.0393
     77 H21        -3.9811   14.1959    6.1406 H         1 COA        -0.0393
     78 H22        -4.0688   15.6788    5.1754 H         1 COA        -0.0393
     79 HS1        -3.7236   12.5877    4.0776 H         1 COA         0.1718
@<TRIPOS>BOND
     1    1    2 ar
     2    1    6 ar
     3    2    3 ar
     4    2   49 1
     5    3    4 ar
     6    4    5 ar
     7    4   10 ar
     8    5    6 ar
     9    5    8 ar
    10    6    7 1
    11    7   50 1
    12    7   51 1
    13    8    9 ar
    14    9   10 ar
    15    9   52 1
    16   10   11 1
    17   11   12 1
    18   11   21 1
    19   11   53 1
    20   12   13 1
    21   12   14 1
    22   12   54 1
    23   14   15 1
    24   14   20 1
    25   14   55 1
    26   15   16 1
    27   16   17 2
    28   16   18 1
    29   16   19 1
    30   20   21 1
    31   20   22 1
    32   20   56 1
    33   22   23 1
    34   22   57 1
    35   22   58 1
    36   23   24 1
    37   24   25 2
    38   24   26 1
    39   24   27 1
    40   27   28 1
    41   28   29 2
    42   28   30 1
    43   28   31 1
    44   31   33 1
    45   32   33 1
    46   32   34 1
    47   32   35 1
    48   32   36 1
    49   33   59 1
    50   33   60 1
    51   34   61 1
    52   34   62 1
    53   34   63 1
    54   35   64 1
    55   35   65 1
    56   35   66 1
    57   36   37 1
    58   36   38 1
    59   36   67 1
    60   37   68 1
    61   38   39 2
    62   38   40 am
    63   40   41 1
    64   40   69 1
    65   41   42 1
    66   41   70 1
    67   41   71 1
    68   42   43 1
    69   42   72 1
    70   42   73 1
    71   43   44 2
    72   43   45 am
    73   45   46 1
    74   45   74 1
    75   46   47 1
    76   46   75 1
    77   46   76 1
    78   47   48 1
    79   47   77 1
    80   47   78 1
    81   48   79 1
@<TRIPOS>SUBSTRUCTURE
     1 COA         1 GROUP 0 A     ****
