@<TRIPOS>MOLECULE
[[[5-(2-amino-6-oxo-7,8-dihydro-3~{H}-purin-8-ylium-9-yl)-3,4-dihydroxy-tetrahydrofuran-2-yl]methoxy-oxido-phosphoryl]oxy-oxido-phosphoryl] hydrogen phosphate
   46    48     1     0     0
SMALL
USER_CHARGES

@<TRIPOS>ATOM
      1 PG          2.5730    5.2383   -2.9385 P.3       1 GTP         1.5447
      2 O1G         3.0847    4.2549   -1.9096 O.co2     1 GTP        -0.8705
      3 O2G         3.5310    6.0500   -3.7818 O.co2     1 GTP        -0.8705
      4 O3G         1.5327    6.2614   -2.2057 O.3       1 GTP        -0.7914
      5 O3B         1.5172    4.4762   -3.9226 O.3       1 GTP        -0.8116
      6 PB          1.7726    3.2827   -5.0069 P.3       1 GTP         1.6738
      7 O1B         0.4374    2.8346   -5.5582 O.co2     1 GTP        -0.8763
      8 O2B         2.9124    3.6797   -5.9183 O.co2     1 GTP        -0.8763
      9 O3A         2.3599    2.1376   -4.0025 O.3       1 GTP        -0.8005
     10 PA          2.8621    0.6170   -4.3270 P.3       1 GTP         1.5754
     11 O1A         1.6809   -0.1909   -4.8193 O.co2     1 GTP        -0.8771
     12 O2A         4.1462    0.6908   -5.1241 O.co2     1 GTP        -0.8771
     13 O5'         3.2903    0.1346   -2.8241 O.3       1 GTP        -0.5809
     14 C5'         2.2816   -0.2918   -1.9206 C.3       1 GTP         0.1986
     15 C4'         2.7248    0.0226   -0.4980 C.3       1 GTP         0.0418
     16 O4'         2.4697    1.4219   -0.2462 O.3       1 GTP        -0.3505
     17 C3'         1.9404   -0.7419    0.5596 C.3       1 GTP         0.0909
     18 O3'         2.7418   -0.8086    1.7389 O.3       1 GTP        -0.6187
     19 C2'         0.7477    0.1630    0.7858 C.3       1 GTP         0.0706
     20 O2'         0.1373   -0.0577    2.0407 O.3       1 GTP        -0.6294
     21 C1'         1.3733    1.5427    0.6747 C.3       1 GTP         0.3895
     22 N9          0.4520    2.5240    0.1767 N.pl3     1 GTP        -0.4733
     23 C8          0.2012    2.8401   -1.0899 C.ar      1 GTP         0.2958
     24 N7         -0.7168    3.7990   -1.1981 N.pl3     1 GTP        -0.4933
     25 C5         -1.0645    4.1043    0.0896 C.ar      1 GTP        -0.1494
     26 C6         -2.0336    5.0870    0.5973 C.ar      1 GTP         0.7954
     27 O6         -2.6730    5.7839   -0.1834 O.2       1 GTP        -0.5729
     28 N1         -2.1539    5.1517    1.9868 N.2       1 GTP        -0.7443
     29 C2         -1.4288    4.3650    2.7566 C.ar      1 GTP         0.8831
     30 N2         -1.5126    4.3922    4.1250 N.pl3     1 GTP        -0.9204
     31 N3         -0.5167    3.4388    2.2748 N.pl3     1 GTP        -0.7173
     32 C4         -0.3638    3.3392    0.9318 C.ar      1 GTP         0.2626
     33 HOG3        1.1116    6.9645   -2.7448 H         1 GTP         0.4102
     34 H5'         1.3514    0.2330   -2.1577 H         1 GTP         0.0289
     35 H5''        2.1280   -1.3678   -2.0460 H         1 GTP         0.0289
     36 H4'         3.8044   -0.1397   -0.4040 H         1 GTP         0.2056
     37 H3'         1.6764   -1.7639    0.2728 H         1 GTP         0.1140
     38 HO3'        2.2232   -1.2979    2.3953 H         1 GTP         0.4287
     39 H2'        -0.0011    0.0027    0.0003 H         1 GTP         0.0809
     40 HO2'       -0.6141    0.5574    2.1082 H         1 GTP         0.4385
     41 H1'         1.7826    1.9024    1.6451 H         1 GTP         0.0794
     42 H8          0.6787    2.3803   -1.9373 H         1 GTP         0.3821
     43 HN21       -2.1462    5.0320    4.5446 H         1 GTP         0.4411
     44 HN22       -0.9365    3.7712    4.6440 H         1 GTP         0.4411
     45 H45         0.0318    2.8419    2.8816 H         1 GTP         0.4819
     46 H46        -1.0718    4.2049   -2.0526 H         1 GTP         0.5182
@<TRIPOS>BOND
     1    1    2 2
     2    1    3 1
     3    1    4 1
     4    1    5 1
     5    4   33 1
     6    5    6 1
     7    6    7 2
     8    6    8 1
     9    6    9 1
    10    9   10 1
    11   10   11 2
    12   10   12 1
    13   10   13 1
    14   13   14 1
    15   14   15 1
    16   14   34 1
    17   14   35 1
    18   15   16 1
    19   15   17 1
    20   15   36 1
    21   16   21 1
    22   17   18 1
    23   17   19 1
    24   17   37 1
    25   18   38 1
    26   19   20 1
    27   19   21 1
    28   19   39 1
    29   20   40 1
    30   21   22 1
    31   21   41 1
    32   22   23 ar
    33   22   32 ar
    34   23   24 ar
    35   23   42 1
    36   24   25 ar
    37   24   46 1
    38   25   26 ar
    39   25   32 ar
    40   26   27 2
    41   26   28 ar
    42   28   29 ar
    43   29   30 1
    44   29   31 ar
    45   30   43 1
    46   30   44 1
    47   31   32 ar
    48   31   45 1
@<TRIPOS>SUBSTRUCTURE
     1 GTP         1 GROUP 0 A     ****
@<TRIPOS>MOLECULE
[[[5-(2-amino-6-oxo-7,8-dihydro-3~{H}-purin-8-ylium-9-yl)-3,4-dihydroxy-tetrahydrofuran-2-yl]methoxy-oxido-phosphoryl]oxy-oxido-phosphoryl] hydrogen phosphate
   46    48     1     0     0
SMALL
USER_CHARGES

@<TRIPOS>ATOM
      1 PG         -2.0448    0.5750   -3.7765 P.3       1 GTP         1.5447
      2 O1G        -2.6553   -0.6904   -4.3364 O.co2     1 GTP        -0.8705
      3 O2G        -1.1925    0.5401   -2.5275 O.co2     1 GTP        -0.8705
      4 O3G        -3.2336    1.6736   -3.5623 O.3       1 GTP        -0.7914
      5 O3B        -1.2174    1.3347   -4.9605 O.3       1 GTP        -0.8116
      6 PB          0.1391    0.8790   -5.7466 P.3       1 GTP         1.6738
      7 O1B        -0.0774   -0.5006   -6.3274 O.co2     1 GTP        -0.8763
      8 O2B         0.6251    2.0297   -6.5994 O.co2     1 GTP        -0.8763
      9 O3A         1.1584    0.7817   -4.4753 O.3       1 GTP        -0.8005
     10 PA          2.7407    0.3769   -4.4297 P.3       1 GTP         1.5754
     11 O1A         2.8866   -1.0655   -4.8640 O.co2     1 GTP        -0.8771
     12 O2A         3.5415    1.4776   -5.0906 O.co2     1 GTP        -0.8771
     13 O5'         3.0213    0.5153   -2.8245 O.3       1 GTP        -0.5809
     14 C5'         2.2816   -0.2918   -1.9206 C.3       1 GTP         0.1986
     15 C4'         2.7248    0.0226   -0.4980 C.3       1 GTP         0.0418
     16 O4'         2.4697    1.4219   -0.2462 O.3       1 GTP        -0.3505
     17 C3'         1.9404   -0.7419    0.5596 C.3       1 GTP         0.0909
     18 O3'         2.7418   -0.8086    1.7389 O.3       1 GTP        -0.6187
     19 C2'         0.7477    0.1630    0.7858 C.3       1 GTP         0.0706
     20 O2'         0.1373   -0.0577    2.0407 O.3       1 GTP        -0.6294
     21 C1'         1.3733    1.5427    0.6747 C.3       1 GTP         0.3895
     22 N9          0.4520    2.5240    0.1767 N.pl3     1 GTP        -0.4733
     23 C8          0.2012    2.8401   -1.0899 C.ar      1 GTP         0.2958
     24 N7         -0.7168    3.7990   -1.1981 N.pl3     1 GTP        -0.4933
     25 C5         -1.0645    4.1043    0.0896 C.ar      1 GTP        -0.1494
     26 C6         -2.0336    5.0870    0.5973 C.ar      1 GTP         0.7954
     27 O6         -2.6730    5.7839   -0.1834 O.2       1 GTP        -0.5729
     28 N1         -2.1539    5.1517    1.9868 N.2       1 GTP        -0.7443
     29 C2         -1.4288    4.3650    2.7566 C.ar      1 GTP         0.8831
     30 N2         -1.5126    4.3922    4.1250 N.pl3     1 GTP        -0.9204
     31 N3         -0.5167    3.4388    2.2748 N.pl3     1 GTP        -0.7173
     32 C4         -0.3638    3.3392    0.9318 C.ar      1 GTP         0.2626
     33 HOG3       -2.9959    2.5545   -3.2021 H         1 GTP         0.4102
     34 H5'         1.2163   -0.0770   -2.0471 H         1 GTP         0.0289
     35 H5''        2.4655   -1.3443   -2.1563 H         1 GTP         0.0289
     36 H4'         3.8044   -0.1397   -0.4040 H         1 GTP         0.2056
     37 H3'         1.6764   -1.7639    0.2728 H         1 GTP         0.1140
     38 HO3'        2.2232   -1.2979    2.3953 H         1 GTP         0.4287
     39 H2'        -0.0011    0.0027    0.0003 H         1 GTP         0.0809
     40 HO2'       -0.6141    0.5574    2.1082 H         1 GTP         0.4385
     41 H1'         1.7826    1.9024    1.6451 H         1 GTP         0.0794
     42 H8          0.6787    2.3803   -1.9373 H         1 GTP         0.3821
     43 HN21       -2.1462    5.0320    4.5446 H         1 GTP         0.4411
     44 HN22       -0.9365    3.7712    4.6440 H         1 GTP         0.4411
     45 H45         0.0318    2.8419    2.8816 H         1 GTP         0.4819
     46 H46        -1.0718    4.2049   -2.0526 H         1 GTP         0.5182
@<TRIPOS>BOND
     1    1    2 2
     2    1    3 1
     3    1    4 1
     4    1    5 1
     5    4   33 1
     6    5    6 1
     7    6    7 2
     8    6    8 1
     9    6    9 1
    10    9   10 1
    11   10   11 2
    12   10   12 1
    13   10   13 1
    14   13   14 1
    15   14   15 1
    16   14   34 1
    17   14   35 1
    18   15   16 1
    19   15   17 1
    20   15   36 1
    21   16   21 1
    22   17   18 1
    23   17   19 1
    24   17   37 1
    25   18   38 1
    26   19   20 1
    27   19   21 1
    28   19   39 1
    29   20   40 1
    30   21   22 1
    31   21   41 1
    32   22   23 ar
    33   22   32 ar
    34   23   24 ar
    35   23   42 1
    36   24   25 ar
    37   24   46 1
    38   25   26 ar
    39   25   32 ar
    40   26   27 2
    41   26   28 ar
    42   28   29 ar
    43   29   30 1
    44   29   31 ar
    45   30   43 1
    46   30   44 1
    47   31   32 ar
    48   31   45 1
@<TRIPOS>SUBSTRUCTURE
     1 GTP         1 GROUP 0 A     ****
@<TRIPOS>MOLECULE
[[[5-(2-amino-6-oxo-7,8-dihydro-3~{H}-purin-8-ylium-9-yl)-3,4-dihydroxy-tetrahydrofuran-2-yl]methoxy-oxido-phosphoryl]oxy-oxido-phosphoryl] hydrogen phosphate
   46    48     1     0     0
SMALL
USER_CHARGES

@<TRIPOS>ATOM
      1 PG         -1.9427    3.3234   -5.8227 P.3       1 GTP         1.5447
      2 O1G        -1.4549    4.4168   -6.7467 O.co2     1 GTP        -0.8705
      3 O2G        -2.9279    2.2813   -6.3036 O.co2     1 GTP        -0.8705
      4 O3G        -2.5395    4.0156   -4.4697 O.3       1 GTP        -0.7914
      5 O3B        -0.6534    2.5688   -5.1655 O.3       1 GTP        -0.8116
      6 PB          0.4851    1.6362   -5.8724 P.3       1 GTP         1.6738
      7 O1B        -0.1721    0.3747   -6.3864 O.co2     1 GTP        -0.8763
      8 O2B         1.3461    2.5010   -6.7660 O.co2     1 GTP        -0.8763
      9 O3A         1.3881    1.2844   -4.5588 O.3       1 GTP        -0.8005
     10 PA          2.7407    0.3769   -4.4297 P.3       1 GTP         1.5754
     11 O1A         2.4007   -1.0556   -4.7799 O.co2     1 GTP        -0.8771
     12 O2A         3.8776    1.1015   -5.1169 O.co2     1 GTP        -0.8771
     13 O5'         3.0213    0.5153   -2.8245 O.3       1 GTP        -0.5809
     14 C5'         2.2816   -0.2918   -1.9206 C.3       1 GTP         0.1986
     15 C4'         2.7248    0.0226   -0.4980 C.3       1 GTP         0.0418
     16 O4'         2.4697    1.4219   -0.2462 O.3       1 GTP        -0.3505
     17 C3'         1.9404   -0.7419    0.5596 C.3       1 GTP         0.0909
     18 O3'         2.7418   -0.8086    1.7389 O.3       1 GTP        -0.6187
     19 C2'         0.7477    0.1630    0.7858 C.3       1 GTP         0.0706
     20 O2'         0.1373   -0.0577    2.0407 O.3       1 GTP        -0.6294
     21 C1'         1.3733    1.5427    0.6747 C.3       1 GTP         0.3895
     22 N9          0.4520    2.5240    0.1767 N.pl3     1 GTP        -0.4733
     23 C8          0.2012    2.8401   -1.0899 C.ar      1 GTP         0.2958
     24 N7         -0.7168    3.7990   -1.1981 N.pl3     1 GTP        -0.4933
     25 C5         -1.0645    4.1043    0.0896 C.ar      1 GTP        -0.1494
     26 C6         -2.0336    5.0870    0.5973 C.ar      1 GTP         0.7954
     27 O6         -2.6730    5.7839   -0.1834 O.2       1 GTP        -0.5729
     28 N1         -2.1539    5.1517    1.9868 N.2       1 GTP        -0.7443
     29 C2         -1.4288    4.3650    2.7566 C.ar      1 GTP         0.8831
     30 N2         -1.5126    4.3922    4.1250 N.pl3     1 GTP        -0.9204
     31 N3         -0.5167    3.4388    2.2748 N.pl3     1 GTP        -0.7173
     32 C4         -0.3638    3.3392    0.9318 C.ar      1 GTP         0.2626
     33 HOG3       -2.8980    3.4332   -3.7664 H         1 GTP         0.4102
     34 H5'         1.2163   -0.0770   -2.0471 H         1 GTP         0.0289
     35 H5''        2.4655   -1.3443   -2.1563 H         1 GTP         0.0289
     36 H4'         3.8044   -0.1397   -0.4040 H         1 GTP         0.2056
     37 H3'         1.6764   -1.7639    0.2728 H         1 GTP         0.1140
     38 HO3'        2.2232   -1.2979    2.3953 H         1 GTP         0.4287
     39 H2'        -0.0011    0.0027    0.0003 H         1 GTP         0.0809
     40 HO2'       -0.6141    0.5574    2.1082 H         1 GTP         0.4385
     41 H1'         1.7826    1.9024    1.6451 H         1 GTP         0.0794
     42 H8          0.6787    2.3803   -1.9373 H         1 GTP         0.3821
     43 HN21       -2.1462    5.0320    4.5446 H         1 GTP         0.4411
     44 HN22       -0.9365    3.7712    4.6440 H         1 GTP         0.4411
     45 H45         0.0318    2.8419    2.8816 H         1 GTP         0.4819
     46 H46        -1.0718    4.2049   -2.0526 H         1 GTP         0.5182
@<TRIPOS>BOND
     1    1    2 2
     2    1    3 1
     3    1    4 1
     4    1    5 1
     5    4   33 1
     6    5    6 1
     7    6    7 2
     8    6    8 1
     9    6    9 1
    10    9   10 1
    11   10   11 2
    12   10   12 1
    13   10   13 1
    14   13   14 1
    15   14   15 1
    16   14   34 1
    17   14   35 1
    18   15   16 1
    19   15   17 1
    20   15   36 1
    21   16   21 1
    22   17   18 1
    23   17   19 1
    24   17   37 1
    25   18   38 1
    26   19   20 1
    27   19   21 1
    28   19   39 1
    29   20   40 1
    30   21   22 1
    31   21   41 1
    32   22   23 ar
    33   22   32 ar
    34   23   24 ar
    35   23   42 1
    36   24   25 ar
    37   24   46 1
    38   25   26 ar
    39   25   32 ar
    40   26   27 2
    41   26   28 ar
    42   28   29 ar
    43   29   30 1
    44   29   31 ar
    45   30   43 1
    46   30   44 1
    47   31   32 ar
    48   31   45 1
@<TRIPOS>SUBSTRUCTURE
     1 GTP         1 GROUP 0 A     ****
@<TRIPOS>MOLECULE
[[[5-(2-amino-6-oxo-7,8-dihydro-3~{H}-purin-8-ylium-9-yl)-3,4-dihydroxy-tetrahydrofuran-2-yl]methoxy-oxido-phosphoryl]oxy-oxido-phosphoryl] hydrogen phosphate
   46    48     1     0     0
SMALL
USER_CHARGES

@<TRIPOS>ATOM
      1 PG          2.9951    6.4564   -1.6141 P.3       1 GTP         1.5447
      2 O1G         4.1212    7.1839   -2.3141 O.co2     1 GTP        -0.8705
      3 O2G         1.5686    6.9484   -1.7180 O.co2     1 GTP        -0.8705
      4 O3G         3.3778    6.3062   -0.0339 O.3       1 GTP        -0.7914
      5 O3B         3.0421    4.8789   -2.0302 O.3       1 GTP        -0.8116
      6 PB          2.7694    4.1698   -3.4753 P.3       1 GTP         1.6738
      7 O1B         1.3180    4.3730   -3.8489 O.co2     1 GTP        -0.8763
      8 O2B         3.8897    4.5355   -4.4234 O.co2     1 GTP        -0.8763
      9 O3A         3.0106    2.6117   -3.0522 O.3       1 GTP        -0.8005
     10 PA          2.9232    1.2546   -3.9579 P.3       1 GTP         1.5754
     11 O1A         1.4961    1.0747   -4.4283 O.co2     1 GTP        -0.8771
     12 O2A         4.0762    1.2511   -4.9378 O.co2     1 GTP        -0.8771
     13 O5'         3.2903    0.1346   -2.8241 O.3       1 GTP        -0.5809
     14 C5'         2.2816   -0.2918   -1.9206 C.3       1 GTP         0.1986
     15 C4'         2.7248    0.0226   -0.4980 C.3       1 GTP         0.0418
     16 O4'         2.4697    1.4219   -0.2462 O.3       1 GTP        -0.3505
     17 C3'         1.9404   -0.7419    0.5596 C.3       1 GTP         0.0909
     18 O3'         2.7418   -0.8086    1.7389 O.3       1 GTP        -0.6187
     19 C2'         0.7477    0.1630    0.7858 C.3       1 GTP         0.0706
     20 O2'         0.1373   -0.0577    2.0407 O.3       1 GTP        -0.6294
     21 C1'         1.3733    1.5427    0.6747 C.3       1 GTP         0.3895
     22 N9          0.4520    2.5240    0.1767 N.pl3     1 GTP        -0.4733
     23 C8         -0.2136    2.5096   -0.9739 C.ar      1 GTP         0.2958
     24 N7         -0.9896    3.5820   -1.1212 N.pl3     1 GTP        -0.4933
     25 C5         -0.7962    4.3186    0.0156 C.ar      1 GTP        -0.1494
     26 C6         -1.3875    5.6031    0.4192 C.ar      1 GTP         0.7954
     27 O6         -2.1869    6.1731   -0.3158 O.2       1 GTP        -0.5729
     28 N1         -0.9745    6.0930    1.6597 N.2       1 GTP        -0.7443
     29 C2         -0.1105    5.4166    2.3900 C.ar      1 GTP         0.8831
     30 N2          0.3241    5.8571    3.6138 N.pl3     1 GTP        -0.9204
     31 N3          0.4444    4.2053    2.0072 N.pl3     1 GTP        -0.7173
     32 C4          0.0746    3.6889    0.8098 C.ar      1 GTP         0.2626
     33 HOG3        2.7420    5.8522    0.5594 H         1 GTP         0.4102
     34 H5'         1.3514    0.2330   -2.1577 H         1 GTP         0.0289
     35 H5''        2.1280   -1.3678   -2.0460 H         1 GTP         0.0289
     36 H4'         3.8044   -0.1397   -0.4040 H         1 GTP         0.2056
     37 H3'         1.6764   -1.7639    0.2728 H         1 GTP         0.1140
     38 HO3'        2.2232   -1.2979    2.3953 H         1 GTP         0.4287
     39 H2'        -0.0011    0.0027    0.0003 H         1 GTP         0.0809
     40 HO2'       -0.6141    0.5574    2.1082 H         1 GTP         0.4385
     41 H1'         1.7826    1.9024    1.6451 H         1 GTP         0.0794
     42 H8         -0.1415    1.7265   -1.7082 H         1 GTP         0.3821
     43 HN21       -0.0303    6.7197    3.9559 H         1 GTP         0.4411
     44 HN22        0.9765    5.2967    4.1108 H         1 GTP         0.4411
     45 H45         1.1068    3.6990    2.5819 H         1 GTP         0.4819
     46 H46        -1.5877    3.7943   -1.9074 H         1 GTP         0.5182
@<TRIPOS>BOND
     1    1    2 2
     2    1    3 1
     3    1    4 1
     4    1    5 1
     5    4   33 1
     6    5    6 1
     7    6    7 2
     8    6    8 1
     9    6    9 1
    10    9   10 1
    11   10   11 2
    12   10   12 1
    13   10   13 1
    14   13   14 1
    15   14   15 1
    16   14   34 1
    17   14   35 1
    18   15   16 1
    19   15   17 1
    20   15   36 1
    21   16   21 1
    22   17   18 1
    23   17   19 1
    24   17   37 1
    25   18   38 1
    26   19   20 1
    27   19   21 1
    28   19   39 1
    29   20   40 1
    30   21   22 1
    31   21   41 1
    32   22   23 ar
    33   22   32 ar
    34   23   24 ar
    35   23   42 1
    36   24   25 ar
    37   24   46 1
    38   25   26 ar
    39   25   32 ar
    40   26   27 2
    41   26   28 ar
    42   28   29 ar
    43   29   30 1
    44   29   31 ar
    45   30   43 1
    46   30   44 1
    47   31   32 ar
    48   31   45 1
@<TRIPOS>SUBSTRUCTURE
     1 GTP         1 GROUP 0 A     ****
@<TRIPOS>MOLECULE
[[[5-(2-amino-6-oxo-7,8-dihydro-3~{H}-purin-8-ylium-9-yl)-3,4-dihydroxy-tetrahydrofuran-2-yl]methoxy-oxido-phosphoryl]oxy-oxido-phosphoryl] hydrogen phosphate
   46    48     1     0     0
SMALL
USER_CHARGES

@<TRIPOS>ATOM
      1 PG          0.9288    5.9823   -4.1446 P.3       1 GTP         1.5447
      2 O1G        -0.3930    5.8917   -4.8740 O.co2     1 GTP        -0.8705
      3 O2G         1.0501    6.7521   -2.8483 O.co2     1 GTP        -0.8705
      4 O3G         2.0582    6.5375   -5.1849 O.3       1 GTP        -0.7914
      5 O3B         1.5172    4.4762   -3.9226 O.3       1 GTP        -0.8116
      6 PB          1.7726    3.2827   -5.0069 P.3       1 GTP         1.6738
      7 O1B         0.4374    2.8346   -5.5582 O.co2     1 GTP        -0.8763
      8 O2B         2.9124    3.6797   -5.9183 O.co2     1 GTP        -0.8763
      9 O3A         2.3599    2.1376   -4.0025 O.3       1 GTP        -0.8005
     10 PA          2.8621    0.6170   -4.3270 P.3       1 GTP         1.5754
     11 O1A         1.6809   -0.1909   -4.8193 O.co2     1 GTP        -0.8771
     12 O2A         4.1462    0.6908   -5.1241 O.co2     1 GTP        -0.8771
     13 O5'         3.2903    0.1346   -2.8241 O.3       1 GTP        -0.5809
     14 C5'         2.2816   -0.2918   -1.9206 C.3       1 GTP         0.1986
     15 C4'         2.7248    0.0226   -0.4980 C.3       1 GTP         0.0418
     16 O4'         2.4697    1.4219   -0.2462 O.3       1 GTP        -0.3505
     17 C3'         1.9404   -0.7419    0.5596 C.3       1 GTP         0.0909
     18 O3'         2.7418   -0.8086    1.7389 O.3       1 GTP        -0.6187
     19 C2'         0.7477    0.1630    0.7858 C.3       1 GTP         0.0706
     20 O2'         0.1373   -0.0577    2.0407 O.3       1 GTP        -0.6294
     21 C1'         1.3733    1.5427    0.6747 C.3       1 GTP         0.3895
     22 N9          0.4520    2.5240    0.1767 N.pl3     1 GTP        -0.4733
     23 C8          0.2012    2.8401   -1.0899 C.ar      1 GTP         0.2958
     24 N7         -0.7168    3.7990   -1.1981 N.pl3     1 GTP        -0.4933
     25 C5         -1.0645    4.1043    0.0896 C.ar      1 GTP        -0.1494
     26 C6         -2.0336    5.0870    0.5973 C.ar      1 GTP         0.7954
     27 O6         -2.6730    5.7839   -0.1834 O.2       1 GTP        -0.5729
     28 N1         -2.1539    5.1517    1.9868 N.2       1 GTP        -0.7443
     29 C2         -1.4288    4.3650    2.7566 C.ar      1 GTP         0.8831
     30 N2         -1.5126    4.3922    4.1250 N.pl3     1 GTP        -0.9204
     31 N3         -0.5167    3.4388    2.2748 N.pl3     1 GTP        -0.7173
     32 C4         -0.3638    3.3392    0.9318 C.ar      1 GTP         0.2626
     33 HOG3        2.9764    6.6525   -4.8595 H         1 GTP         0.4102
     34 H5'         1.3514    0.2330   -2.1577 H         1 GTP         0.0289
     35 H5''        2.1280   -1.3678   -2.0460 H         1 GTP         0.0289
     36 H4'         3.8044   -0.1397   -0.4040 H         1 GTP         0.2056
     37 H3'         1.6764   -1.7639    0.2728 H         1 GTP         0.1140
     38 HO3'        2.2232   -1.2979    2.3953 H         1 GTP         0.4287
     39 H2'        -0.0011    0.0027    0.0003 H         1 GTP         0.0809
     40 HO2'       -0.6141    0.5574    2.1082 H         1 GTP         0.4385
     41 H1'         1.7826    1.9024    1.6451 H         1 GTP         0.0794
     42 H8          0.6787    2.3803   -1.9373 H         1 GTP         0.3821
     43 HN21       -2.1462    5.0320    4.5446 H         1 GTP         0.4411
     44 HN22       -0.9365    3.7712    4.6440 H         1 GTP         0.4411
     45 H45         0.0318    2.8419    2.8816 H         1 GTP         0.4819
     46 H46        -1.0718    4.2049   -2.0526 H         1 GTP         0.5182
@<TRIPOS>BOND
     1    1    2 2
     2    1    3 1
     3    1    4 1
     4    1    5 1
     5    4   33 1
     6    5    6 1
     7    6    7 2
     8    6    8 1
     9    6    9 1
    10    9   10 1
    11   10   11 2
    12   10   12 1
    13   10   13 1
    14   13   14 1
    15   14   15 1
    16   14   34 1
    17   14   35 1
    18   15   16 1
    19   15   17 1
    20   15   36 1
    21   16   21 1
    22   17   18 1
    23   17   19 1
    24   17   37 1
    25   18   38 1
    26   19   20 1
    27   19   21 1
    28   19   39 1
    29   20   40 1
    30   21   22 1
    31   21   41 1
    32   22   23 ar
    33   22   32 ar
    34   23   24 ar
    35   23   42 1
    36   24   25 ar
    37   24   46 1
    38   25   26 ar
    39   25   32 ar
    40   26   27 2
    41   26   28 ar
    42   28   29 ar
    43   29   30 1
    44   29   31 ar
    45   30   43 1
    46   30   44 1
    47   31   32 ar
    48   31   45 1
@<TRIPOS>SUBSTRUCTURE
     1 GTP         1 GROUP 0 A     ****
@<TRIPOS>MOLECULE
[[[5-(2-amino-6-oxo-7,8-dihydro-3~{H}-purin-8-ylium-9-yl)-3,4-dihydroxy-tetrahydrofuran-2-yl]methoxy-oxido-phosphoryl]oxy-oxido-phosphoryl] hydrogen phosphate
   46    48     1     0     0
SMALL
USER_CHARGES

@<TRIPOS>ATOM
      1 PG          0.2355    5.2251   -4.5748 P.3       1 GTP         1.5447
      2 O1G        -0.0695    6.2194   -3.4767 O.co2     1 GTP        -0.8705
      3 O2G         0.7674    5.6850   -5.9140 O.co2     1 GTP        -0.8705
      4 O3G        -1.0932    4.3114   -4.8308 O.3       1 GTP        -0.7914
      5 O3B         1.2213    4.0665   -3.9836 O.3       1 GTP        -0.8116
      6 PB          2.7694    4.1698   -3.4753 P.3       1 GTP         1.6738
      7 O1B         3.6464    4.5136   -4.6587 O.co2     1 GTP        -0.8763
      8 O2B         2.8157    4.9743   -2.1954 O.co2     1 GTP        -0.8763
      9 O3A         3.0106    2.6117   -3.0522 O.3       1 GTP        -0.8005
     10 PA          2.9232    1.2546   -3.9579 P.3       1 GTP         1.5754
     11 O1A         1.4961    1.0747   -4.4283 O.co2     1 GTP        -0.8771
     12 O2A         4.0762    1.2511   -4.9378 O.co2     1 GTP        -0.8771
     13 O5'         3.2903    0.1346   -2.8241 O.3       1 GTP        -0.5809
     14 C5'         2.2816   -0.2918   -1.9206 C.3       1 GTP         0.1986
     15 C4'         2.7248    0.0226   -0.4980 C.3       1 GTP         0.0418
     16 O4'         2.4697    1.4219   -0.2462 O.3       1 GTP        -0.3505
     17 C3'         1.9404   -0.7419    0.5596 C.3       1 GTP         0.0909
     18 O3'         2.7418   -0.8086    1.7389 O.3       1 GTP        -0.6187
     19 C2'         0.7477    0.1630    0.7858 C.3       1 GTP         0.0706
     20 O2'         0.1373   -0.0577    2.0407 O.3       1 GTP        -0.6294
     21 C1'         1.3733    1.5427    0.6747 C.3       1 GTP         0.3895
     22 N9          0.4520    2.5240    0.1767 N.pl3     1 GTP        -0.4733
     23 C8          0.2012    2.8401   -1.0899 C.ar      1 GTP         0.2958
     24 N7         -0.7168    3.7990   -1.1981 N.pl3     1 GTP        -0.4933
     25 C5         -1.0645    4.1043    0.0896 C.ar      1 GTP        -0.1494
     26 C6         -2.0336    5.0870    0.5973 C.ar      1 GTP         0.7954
     27 O6         -2.6730    5.7839   -0.1834 O.2       1 GTP        -0.5729
     28 N1         -2.1539    5.1517    1.9868 N.2       1 GTP        -0.7443
     29 C2         -1.4288    4.3650    2.7566 C.ar      1 GTP         0.8831
     30 N2         -1.5126    4.3922    4.1250 N.pl3     1 GTP        -0.9204
     31 N3         -0.5167    3.4388    2.2748 N.pl3     1 GTP        -0.7173
     32 C4         -0.3638    3.3392    0.9318 C.ar      1 GTP         0.2626
     33 HOG3       -1.0545    3.6137   -5.5193 H         1 GTP         0.4102
     34 H5'         1.3514    0.2330   -2.1577 H         1 GTP         0.0289
     35 H5''        2.1280   -1.3678   -2.0460 H         1 GTP         0.0289
     36 H4'         3.8044   -0.1397   -0.4040 H         1 GTP         0.2056
     37 H3'         1.6764   -1.7639    0.2728 H         1 GTP         0.1140
     38 HO3'        2.2232   -1.2979    2.3953 H         1 GTP         0.4287
     39 H2'        -0.0011    0.0027    0.0003 H         1 GTP         0.0809
     40 HO2'       -0.6141    0.5574    2.1082 H         1 GTP         0.4385
     41 H1'         1.7826    1.9024    1.6451 H         1 GTP         0.0794
     42 H8          0.6787    2.3803   -1.9373 H         1 GTP         0.3821
     43 HN21       -2.1462    5.0320    4.5446 H         1 GTP         0.4411
     44 HN22       -0.9365    3.7712    4.6440 H         1 GTP         0.4411
     45 H45         0.0318    2.8419    2.8816 H         1 GTP         0.4819
     46 H46        -1.0718    4.2049   -2.0526 H         1 GTP         0.5182
@<TRIPOS>BOND
     1    1    2 2
     2    1    3 1
     3    1    4 1
     4    1    5 1
     5    4   33 1
     6    5    6 1
     7    6    7 2
     8    6    8 1
     9    6    9 1
    10    9   10 1
    11   10   11 2
    12   10   12 1
    13   10   13 1
    14   13   14 1
    15   14   15 1
    16   14   34 1
    17   14   35 1
    18   15   16 1
    19   15   17 1
    20   15   36 1
    21   16   21 1
    22   17   18 1
    23   17   19 1
    24   17   37 1
    25   18   38 1
    26   19   20 1
    27   19   21 1
    28   19   39 1
    29   20   40 1
    30   21   22 1
    31   21   41 1
    32   22   23 ar
    33   22   32 ar
    34   23   24 ar
    35   23   42 1
    36   24   25 ar
    37   24   46 1
    38   25   26 ar
    39   25   32 ar
    40   26   27 2
    41   26   28 ar
    42   28   29 ar
    43   29   30 1
    44   29   31 ar
    45   30   43 1
    46   30   44 1
    47   31   32 ar
    48   31   45 1
@<TRIPOS>SUBSTRUCTURE
     1 GTP         1 GROUP 0 A     ****
@<TRIPOS>MOLECULE
[[[5-(2-amino-6-oxo-7,8-dihydro-3~{H}-purin-8-ylium-9-yl)-3,4-dihydroxy-tetrahydrofuran-2-yl]methoxy-oxido-phosphoryl]oxy-oxido-phosphoryl] hydrogen phosphate
   46    48     1     0     0
SMALL
USER_CHARGES

@<TRIPOS>ATOM
      1 PG         -2.0448    0.5750   -3.7765 P.3       1 GTP         1.5447
      2 O1G        -2.6553   -0.6904   -4.3364 O.co2     1 GTP        -0.8705
      3 O2G        -1.1925    0.5401   -2.5275 O.co2     1 GTP        -0.8705
      4 O3G        -3.2336    1.6736   -3.5623 O.3       1 GTP        -0.7914
      5 O3B        -1.2174    1.3347   -4.9605 O.3       1 GTP        -0.8116
      6 PB          0.1391    0.8790   -5.7466 P.3       1 GTP         1.6738
      7 O1B        -0.0774   -0.5006   -6.3274 O.co2     1 GTP        -0.8763
      8 O2B         0.6251    2.0297   -6.5994 O.co2     1 GTP        -0.8763
      9 O3A         1.1584    0.7817   -4.4753 O.3       1 GTP        -0.8005
     10 PA          2.7407    0.3769   -4.4297 P.3       1 GTP         1.5754
     11 O1A         2.8866   -1.0655   -4.8640 O.co2     1 GTP        -0.8771
     12 O2A         3.5415    1.4776   -5.0906 O.co2     1 GTP        -0.8771
     13 O5'         3.0213    0.5153   -2.8245 O.3       1 GTP        -0.5809
     14 C5'         2.2816   -0.2918   -1.9206 C.3       1 GTP         0.1986
     15 C4'         2.7248    0.0226   -0.4980 C.3       1 GTP         0.0418
     16 O4'         2.4697    1.4219   -0.2462 O.3       1 GTP        -0.3505
     17 C3'         1.9404   -0.7419    0.5596 C.3       1 GTP         0.0909
     18 O3'         2.7418   -0.8086    1.7389 O.3       1 GTP        -0.6187
     19 C2'         0.7477    0.1630    0.7858 C.3       1 GTP         0.0706
     20 O2'         0.1373   -0.0577    2.0407 O.3       1 GTP        -0.6294
     21 C1'         1.3733    1.5427    0.6747 C.3       1 GTP         0.3895
     22 N9          0.4520    2.5240    0.1767 N.pl3     1 GTP        -0.4733
     23 C8         -0.6872    2.9292    0.7291 C.ar      1 GTP         0.2958
     24 N7         -1.2991    3.8596   -0.0015 N.pl3     1 GTP        -0.4933
     25 C5         -0.4870    4.0499   -1.0861 C.ar      1 GTP        -0.1494
     26 C6         -0.6427    4.9562   -2.2336 C.ar      1 GTP         0.7954
     27 O6         -1.6219    5.6904   -2.3123 O.2       1 GTP        -0.5729
     28 N1          0.3798    4.9069   -3.1832 N.2       1 GTP        -0.7443
     29 C2          1.4004    4.0885   -3.0226 C.ar      1 GTP         0.8831
     30 N2          2.4275    4.0052   -3.9273 N.pl3     1 GTP        -0.9204
     31 N3          1.5448    3.2359   -1.9390 N.pl3     1 GTP        -0.7173
     32 C4          0.5769    3.2470   -0.9903 C.ar      1 GTP         0.2626
     33 HOG3       -2.9959    2.5545   -3.2021 H         1 GTP         0.4102
     34 H5'         1.2163   -0.0770   -2.0471 H         1 GTP         0.0289
     35 H5''        2.4655   -1.3443   -2.1563 H         1 GTP         0.0289
     36 H4'         3.8044   -0.1397   -0.4040 H         1 GTP         0.2056
     37 H3'         1.6764   -1.7639    0.2728 H         1 GTP         0.1140
     38 HO3'        2.2232   -1.2979    2.3953 H         1 GTP         0.4287
     39 H2'        -0.0011    0.0027    0.0003 H         1 GTP         0.0809
     40 HO2'       -0.1563   -0.9855    2.0596 H         1 GTP         0.4385
     41 H1'         1.7826    1.9024    1.6451 H         1 GTP         0.0794
     42 H8         -1.0786    2.5555    1.6591 H         1 GTP         0.3821
     43 HN21        2.3939    4.5871   -4.7317 H         1 GTP         0.4411
     44 HN22        3.1656    3.3663   -3.7434 H         1 GTP         0.4411
     45 H45         2.3366    2.6138   -1.8319 H         1 GTP         0.4819
     46 H46        -2.1740    4.3186    0.2105 H         1 GTP         0.5182
@<TRIPOS>BOND
     1    1    2 2
     2    1    3 1
     3    1    4 1
     4    1    5 1
     5    4   33 1
     6    5    6 1
     7    6    7 2
     8    6    8 1
     9    6    9 1
    10    9   10 1
    11   10   11 2
    12   10   12 1
    13   10   13 1
    14   13   14 1
    15   14   15 1
    16   14   34 1
    17   14   35 1
    18   15   16 1
    19   15   17 1
    20   15   36 1
    21   16   21 1
    22   17   18 1
    23   17   19 1
    24   17   37 1
    25   18   38 1
    26   19   20 1
    27   19   21 1
    28   19   39 1
    29   20   40 1
    30   21   22 1
    31   21   41 1
    32   22   23 ar
    33   22   32 ar
    34   23   24 ar
    35   23   42 1
    36   24   25 ar
    37   24   46 1
    38   25   26 ar
    39   25   32 ar
    40   26   27 2
    41   26   28 ar
    42   28   29 ar
    43   29   30 1
    44   29   31 ar
    45   30   43 1
    46   30   44 1
    47   31   32 ar
    48   31   45 1
@<TRIPOS>SUBSTRUCTURE
     1 GTP         1 GROUP 0 A     ****
@<TRIPOS>MOLECULE
[[[5-(2-amino-6-oxo-7,8-dihydro-3~{H}-purin-8-ylium-9-yl)-3,4-dihydroxy-tetrahydrofuran-2-yl]methoxy-oxido-phosphoryl]oxy-oxido-phosphoryl] hydrogen phosphate
   46    48     1     0     0
SMALL
USER_CHARGES

@<TRIPOS>ATOM
      1 PG         -2.7097    1.6454   -5.5439 P.3       1 GTP         1.5447
      2 O1G        -3.6557    1.8648   -4.3845 O.co2     1 GTP        -0.8705
      3 O2G        -2.5983    2.6610   -6.6592 O.co2     1 GTP        -0.8705
      4 O3G        -3.0261    0.1851   -6.2023 O.3       1 GTP        -0.7914
      5 O3B        -1.2174    1.3347   -4.9605 O.3       1 GTP        -0.8116
      6 PB          0.1391    0.8790   -5.7466 P.3       1 GTP         1.6738
      7 O1B        -0.0774   -0.5006   -6.3274 O.co2     1 GTP        -0.8763
      8 O2B         0.6251    2.0297   -6.5994 O.co2     1 GTP        -0.8763
      9 O3A         1.1584    0.7817   -4.4753 O.3       1 GTP        -0.8005
     10 PA          2.7407    0.3769   -4.4297 P.3       1 GTP         1.5754
     11 O1A         2.8866   -1.0655   -4.8640 O.co2     1 GTP        -0.8771
     12 O2A         3.5415    1.4776   -5.0906 O.co2     1 GTP        -0.8771
     13 O5'         3.0213    0.5153   -2.8245 O.3       1 GTP        -0.5809
     14 C5'         2.2816   -0.2918   -1.9206 C.3       1 GTP         0.1986
     15 C4'         2.7248    0.0226   -0.4980 C.3       1 GTP         0.0418
     16 O4'         2.4697    1.4219   -0.2462 O.3       1 GTP        -0.3505
     17 C3'         1.9404   -0.7419    0.5596 C.3       1 GTP         0.0909
     18 O3'         2.7418   -0.8086    1.7389 O.3       1 GTP        -0.6187
     19 C2'         0.7477    0.1630    0.7858 C.3       1 GTP         0.0706
     20 O2'         0.1373   -0.0577    2.0407 O.3       1 GTP        -0.6294
     21 C1'         1.3733    1.5427    0.6747 C.3       1 GTP         0.3895
     22 N9          0.4520    2.5240    0.1767 N.pl3     1 GTP        -0.4733
     23 C8          0.2012    2.8401   -1.0899 C.ar      1 GTP         0.2958
     24 N7         -0.7168    3.7990   -1.1981 N.pl3     1 GTP        -0.4933
     25 C5         -1.0645    4.1043    0.0896 C.ar      1 GTP        -0.1494
     26 C6         -2.0336    5.0870    0.5973 C.ar      1 GTP         0.7954
     27 O6         -2.6730    5.7839   -0.1834 O.2       1 GTP        -0.5729
     28 N1         -2.1539    5.1517    1.9868 N.2       1 GTP        -0.7443
     29 C2         -1.4288    4.3650    2.7566 C.ar      1 GTP         0.8831
     30 N2         -1.5126    4.3922    4.1250 N.pl3     1 GTP        -0.9204
     31 N3         -0.5167    3.4388    2.2748 N.pl3     1 GTP        -0.7173
     32 C4         -0.3638    3.3392    0.9318 C.ar      1 GTP         0.2626
     33 HOG3       -2.4915   -0.1061   -6.9715 H         1 GTP         0.4102
     34 H5'         1.2163   -0.0770   -2.0471 H         1 GTP         0.0289
     35 H5''        2.4655   -1.3443   -2.1563 H         1 GTP         0.0289
     36 H4'         3.8044   -0.1397   -0.4040 H         1 GTP         0.2056
     37 H3'         1.6764   -1.7639    0.2728 H         1 GTP         0.1140
     38 HO3'        2.2232   -1.2979    2.3953 H         1 GTP         0.4287
     39 H2'        -0.0011    0.0027    0.0003 H         1 GTP         0.0809
     40 HO2'       -0.6141    0.5574    2.1082 H         1 GTP         0.4385
     41 H1'         1.7826    1.9024    1.6451 H         1 GTP         0.0794
     42 H8          0.6787    2.3803   -1.9373 H         1 GTP         0.3821
     43 HN21       -2.1462    5.0320    4.5446 H         1 GTP         0.4411
     44 HN22       -0.9365    3.7712    4.6440 H         1 GTP         0.4411
     45 H45         0.0318    2.8419    2.8816 H         1 GTP         0.4819
     46 H46        -1.0718    4.2049   -2.0526 H         1 GTP         0.5182
@<TRIPOS>BOND
     1    1    2 2
     2    1    3 1
     3    1    4 1
     4    1    5 1
     5    4   33 1
     6    5    6 1
     7    6    7 2
     8    6    8 1
     9    6    9 1
    10    9   10 1
    11   10   11 2
    12   10   12 1
    13   10   13 1
    14   13   14 1
    15   14   15 1
    16   14   34 1
    17   14   35 1
    18   15   16 1
    19   15   17 1
    20   15   36 1
    21   16   21 1
    22   17   18 1
    23   17   19 1
    24   17   37 1
    25   18   38 1
    26   19   20 1
    27   19   21 1
    28   19   39 1
    29   20   40 1
    30   21   22 1
    31   21   41 1
    32   22   23 ar
    33   22   32 ar
    34   23   24 ar
    35   23   42 1
    36   24   25 ar
    37   24   46 1
    38   25   26 ar
    39   25   32 ar
    40   26   27 2
    41   26   28 ar
    42   28   29 ar
    43   29   30 1
    44   29   31 ar
    45   30   43 1
    46   30   44 1
    47   31   32 ar
    48   31   45 1
@<TRIPOS>SUBSTRUCTURE
     1 GTP         1 GROUP 0 A     ****
@<TRIPOS>MOLECULE
[[[5-(2-amino-6-oxo-7,8-dihydro-3~{H}-purin-8-ylium-9-yl)-3,4-dihydroxy-tetrahydrofuran-2-yl]methoxy-oxido-phosphoryl]oxy-oxido-phosphoryl] hydrogen phosphate
   46    48     1     0     0
SMALL
USER_CHARGES

@<TRIPOS>ATOM
      1 PG         -0.5249   -1.3860   -7.5277 P.3       1 GTP         1.5447
      2 O1G        -2.0109   -1.4391   -7.2512 O.co2     1 GTP        -0.8705
      3 O2G         0.0054   -0.7976   -8.8161 O.co2     1 GTP        -0.8705
      4 O3G         0.0892   -2.8887   -7.3526 O.3       1 GTP        -0.7914
      5 O3B         0.2240   -0.6654   -6.2693 O.3       1 GTP        -0.8116
      6 PB          0.1391    0.8790   -5.7466 P.3       1 GTP         1.6738
      7 O1B         0.7346    1.7821   -6.8037 O.co2     1 GTP        -0.8763
      8 O2B        -1.2381    1.1310   -5.1743 O.co2     1 GTP        -0.8763
      9 O3A         1.1584    0.7817   -4.4753 O.3       1 GTP        -0.8005
     10 PA          2.7407    0.3769   -4.4297 P.3       1 GTP         1.5754
     11 O1A         2.8866   -1.0655   -4.8640 O.co2     1 GTP        -0.8771
     12 O2A         3.5415    1.4776   -5.0906 O.co2     1 GTP        -0.8771
     13 O5'         3.0213    0.5153   -2.8245 O.3       1 GTP        -0.5809
     14 C5'         2.2816   -0.2918   -1.9206 C.3       1 GTP         0.1986
     15 C4'         2.7248    0.0226   -0.4980 C.3       1 GTP         0.0418
     16 O4'         2.4697    1.4219   -0.2462 O.3       1 GTP        -0.3505
     17 C3'         1.9404   -0.7419    0.5596 C.3       1 GTP         0.0909
     18 O3'         2.7418   -0.8086    1.7389 O.3       1 GTP        -0.6187
     19 C2'         0.7477    0.1630    0.7858 C.3       1 GTP         0.0706
     20 O2'         0.1373   -0.0577    2.0407 O.3       1 GTP        -0.6294
     21 C1'         1.3733    1.5427    0.6747 C.3       1 GTP         0.3895
     22 N9          0.4520    2.5240    0.1767 N.pl3     1 GTP        -0.4733
     23 C8          0.2012    2.8401   -1.0899 C.ar      1 GTP         0.2958
     24 N7         -0.7168    3.7990   -1.1981 N.pl3     1 GTP        -0.4933
     25 C5         -1.0645    4.1043    0.0896 C.ar      1 GTP        -0.1494
     26 C6         -2.0336    5.0870    0.5973 C.ar      1 GTP         0.7954
     27 O6         -2.6730    5.7839   -0.1834 O.2       1 GTP        -0.5729
     28 N1         -2.1539    5.1517    1.9868 N.2       1 GTP        -0.7443
     29 C2         -1.4288    4.3650    2.7566 C.ar      1 GTP         0.8831
     30 N2         -1.5126    4.3922    4.1250 N.pl3     1 GTP        -0.9204
     31 N3         -0.5167    3.4388    2.2748 N.pl3     1 GTP        -0.7173
     32 C4         -0.3638    3.3392    0.9318 C.ar      1 GTP         0.2626
     33 HOG3        1.0501   -3.0205   -7.4998 H         1 GTP         0.4102
     34 H5'         1.2163   -0.0770   -2.0471 H         1 GTP         0.0289
     35 H5''        2.4655   -1.3443   -2.1563 H         1 GTP         0.0289
     36 H4'         3.8044   -0.1397   -0.4040 H         1 GTP         0.2056
     37 H3'         1.6764   -1.7639    0.2728 H         1 GTP         0.1140
     38 HO3'        2.2232   -1.2979    2.3953 H         1 GTP         0.4287
     39 H2'        -0.0011    0.0027    0.0003 H         1 GTP         0.0809
     40 HO2'       -0.6141    0.5574    2.1082 H         1 GTP         0.4385
     41 H1'         1.7826    1.9024    1.6451 H         1 GTP         0.0794
     42 H8          0.6787    2.3803   -1.9373 H         1 GTP         0.3821
     43 HN21       -2.1462    5.0320    4.5446 H         1 GTP         0.4411
     44 HN22       -0.9365    3.7712    4.6440 H         1 GTP         0.4411
     45 H45         0.0318    2.8419    2.8816 H         1 GTP         0.4819
     46 H46        -1.0718    4.2049   -2.0526 H         1 GTP         0.5182
@<TRIPOS>BOND
     1    1    2 2
     2    1    3 1
     3    1    4 1
     4    1    5 1
     5    4   33 1
     6    5    6 1
     7    6    7 2
     8    6    8 1
     9    6    9 1
    10    9   10 1
    11   10   11 2
    12   10   12 1
    13   10   13 1
    14   13   14 1
    15   14   15 1
    16   14   34 1
    17   14   35 1
    18   15   16 1
    19   15   17 1
    20   15   36 1
    21   16   21 1
    22   17   18 1
    23   17   19 1
    24   17   37 1
    25   18   38 1
    26   19   20 1
    27   19   21 1
    28   19   39 1
    29   20   40 1
    30   21   22 1
    31   21   41 1
    32   22   23 ar
    33   22   32 ar
    34   23   24 ar
    35   23   42 1
    36   24   25 ar
    37   24   46 1
    38   25   26 ar
    39   25   32 ar
    40   26   27 2
    41   26   28 ar
    42   28   29 ar
    43   29   30 1
    44   29   31 ar
    45   30   43 1
    46   30   44 1
    47   31   32 ar
    48   31   45 1
@<TRIPOS>SUBSTRUCTURE
     1 GTP         1 GROUP 0 A     ****
@<TRIPOS>MOLECULE
[[[5-(2-amino-6-oxo-7,8-dihydro-3~{H}-purin-8-ylium-9-yl)-3,4-dihydroxy-tetrahydrofuran-2-yl]methoxy-oxido-phosphoryl]oxy-oxido-phosphoryl] hydrogen phosphate
   46    48     1     0     0
SMALL
USER_CHARGES

@<TRIPOS>ATOM
      1 PG          0.5297    2.6759   -8.0623 P.3       1 GTP         1.5447
      2 O1G         0.6298    1.6141   -9.1347 O.co2     1 GTP        -0.8705
      3 O2G        -0.7284    3.4994   -7.8988 O.co2     1 GTP        -0.8705
      4 O3G         1.7979    3.6923   -8.2188 O.3       1 GTP        -0.7914
      5 O3B         0.9199    2.0146   -6.6221 O.3       1 GTP        -0.8116
      6 PB          0.1391    0.8790   -5.7466 P.3       1 GTP         1.6738
      7 O1B        -1.1864    1.4459   -5.2892 O.co2     1 GTP        -0.8763
      8 O2B         0.2261   -0.4469   -6.4691 O.co2     1 GTP        -0.8763
      9 O3A         1.1584    0.7817   -4.4753 O.3       1 GTP        -0.8005
     10 PA          2.7407    0.3769   -4.4297 P.3       1 GTP         1.5754
     11 O1A         2.8866   -1.0655   -4.8640 O.co2     1 GTP        -0.8771
     12 O2A         3.5415    1.4776   -5.0906 O.co2     1 GTP        -0.8771
     13 O5'         3.0213    0.5153   -2.8245 O.3       1 GTP        -0.5809
     14 C5'         2.2816   -0.2918   -1.9206 C.3       1 GTP         0.1986
     15 C4'         2.7248    0.0226   -0.4980 C.3       1 GTP         0.0418
     16 O4'         2.4697    1.4219   -0.2462 O.3       1 GTP        -0.3505
     17 C3'         1.9404   -0.7419    0.5596 C.3       1 GTP         0.0909
     18 O3'         2.7418   -0.8086    1.7389 O.3       1 GTP        -0.6187
     19 C2'         0.7477    0.1630    0.7858 C.3       1 GTP         0.0706
     20 O2'         0.1373   -0.0577    2.0407 O.3       1 GTP        -0.6294
     21 C1'         1.3733    1.5427    0.6747 C.3       1 GTP         0.3895
     22 N9          0.4520    2.5240    0.1767 N.pl3     1 GTP        -0.4733
     23 C8          0.2012    2.8401   -1.0899 C.ar      1 GTP         0.2958
     24 N7         -0.7168    3.7990   -1.1981 N.pl3     1 GTP        -0.4933
     25 C5         -1.0645    4.1043    0.0896 C.ar      1 GTP        -0.1494
     26 C6         -2.0336    5.0870    0.5973 C.ar      1 GTP         0.7954
     27 O6         -2.6730    5.7839   -0.1834 O.2       1 GTP        -0.5729
     28 N1         -2.1539    5.1517    1.9868 N.2       1 GTP        -0.7443
     29 C2         -1.4288    4.3650    2.7566 C.ar      1 GTP         0.8831
     30 N2         -1.5126    4.3922    4.1250 N.pl3     1 GTP        -0.9204
     31 N3         -0.5167    3.4388    2.2748 N.pl3     1 GTP        -0.7173
     32 C4         -0.3638    3.3392    0.9318 C.ar      1 GTP         0.2626
     33 HOG3        1.8759    4.4418   -7.5907 H         1 GTP         0.4102
     34 H5'         1.2163   -0.0770   -2.0471 H         1 GTP         0.0289
     35 H5''        2.4655   -1.3443   -2.1563 H         1 GTP         0.0289
     36 H4'         3.8044   -0.1397   -0.4040 H         1 GTP         0.2056
     37 H3'         1.6764   -1.7639    0.2728 H         1 GTP         0.1140
     38 HO3'        2.2232   -1.2979    2.3953 H         1 GTP         0.4287
     39 H2'        -0.0011    0.0027    0.0003 H         1 GTP         0.0809
     40 HO2'       -0.6141    0.5574    2.1082 H         1 GTP         0.4385
     41 H1'         1.7826    1.9024    1.6451 H         1 GTP         0.0794
     42 H8          0.6787    2.3803   -1.9373 H         1 GTP         0.3821
     43 HN21       -2.1462    5.0320    4.5446 H         1 GTP         0.4411
     44 HN22       -0.9365    3.7712    4.6440 H         1 GTP         0.4411
     45 H45         0.0318    2.8419    2.8816 H         1 GTP         0.4819
     46 H46        -1.0718    4.2049   -2.0526 H         1 GTP         0.5182
@<TRIPOS>BOND
     1    1    2 2
     2    1    3 1
     3    1    4 1
     4    1    5 1
     5    4   33 1
     6    5    6 1
     7    6    7 2
     8    6    8 1
     9    6    9 1
    10    9   10 1
    11   10   11 2
    12   10   12 1
    13   10   13 1
    14   13   14 1
    15   14   15 1
    16   14   34 1
    17   14   35 1
    18   15   16 1
    19   15   17 1
    20   15   36 1
    21   16   21 1
    22   17   18 1
    23   17   19 1
    24   17   37 1
    25   18   38 1
    26   19   20 1
    27   19   21 1
    28   19   39 1
    29   20   40 1
    30   21   22 1
    31   21   41 1
    32   22   23 ar
    33   22   32 ar
    34   23   24 ar
    35   23   42 1
    36   24   25 ar
    37   24   46 1
    38   25   26 ar
    39   25   32 ar
    40   26   27 2
    41   26   28 ar
    42   28   29 ar
    43   29   30 1
    44   29   31 ar
    45   30   43 1
    46   30   44 1
    47   31   32 ar
    48   31   45 1
@<TRIPOS>SUBSTRUCTURE
     1 GTP         1 GROUP 0 A     ****
@<TRIPOS>MOLECULE
[[[5-(2-amino-6-oxo-7,8-dihydro-3~{H}-purin-8-ylium-9-yl)-3,4-dihydroxy-tetrahydrofuran-2-yl]methoxy-oxido-phosphoryl]oxy-oxido-phosphoryl] hydrogen phosphate
   46    48     1     0     0
SMALL
USER_CHARGES

@<TRIPOS>ATOM
      1 PG          2.5730    5.2383   -2.9385 P.3       1 GTP         1.5447
      2 O1G         1.8652    6.3839   -2.2499 O.co2     1 GTP        -0.8705
      3 O2G         3.3344    4.2031   -2.1408 O.co2     1 GTP        -0.8705
      4 O3G         3.5704    5.8532   -4.0756 O.3       1 GTP        -0.7914
      5 O3B         1.5172    4.4762   -3.9226 O.3       1 GTP        -0.8116
      6 PB          1.7726    3.2827   -5.0069 P.3       1 GTP         1.6738
      7 O1B         0.4374    2.8346   -5.5582 O.co2     1 GTP        -0.8763
      8 O2B         2.9124    3.6797   -5.9183 O.co2     1 GTP        -0.8763
      9 O3A         2.3599    2.1376   -4.0025 O.3       1 GTP        -0.8005
     10 PA          2.8621    0.6170   -4.3270 P.3       1 GTP         1.5754
     11 O1A         1.6809   -0.1909   -4.8193 O.co2     1 GTP        -0.8771
     12 O2A         4.1462    0.6908   -5.1241 O.co2     1 GTP        -0.8771
     13 O5'         3.2903    0.1346   -2.8241 O.3       1 GTP        -0.5809
     14 C5'         2.2816   -0.2918   -1.9206 C.3       1 GTP         0.1986
     15 C4'         2.7248    0.0226   -0.4980 C.3       1 GTP         0.0418
     16 O4'         2.4697    1.4219   -0.2462 O.3       1 GTP        -0.3505
     17 C3'         1.9404   -0.7419    0.5596 C.3       1 GTP         0.0909
     18 O3'         2.7418   -0.8086    1.7389 O.3       1 GTP        -0.6187
     19 C2'         0.7477    0.1630    0.7858 C.3       1 GTP         0.0706
     20 O2'         0.1373   -0.0577    2.0407 O.3       1 GTP        -0.6294
     21 C1'         1.3733    1.5427    0.6747 C.3       1 GTP         0.3895
     22 N9          0.4520    2.5240    0.1767 N.pl3     1 GTP        -0.4733
     23 C8         -0.2136    2.5096   -0.9739 C.ar      1 GTP         0.2958
     24 N7         -0.9896    3.5820   -1.1212 N.pl3     1 GTP        -0.4933
     25 C5         -0.7962    4.3186    0.0156 C.ar      1 GTP        -0.1494
     26 C6         -1.3875    5.6031    0.4192 C.ar      1 GTP         0.7954
     27 O6         -2.1869    6.1731   -0.3158 O.2       1 GTP        -0.5729
     28 N1         -0.9745    6.0930    1.6597 N.2       1 GTP        -0.7443
     29 C2         -0.1105    5.4166    2.3900 C.ar      1 GTP         0.8831
     30 N2          0.3241    5.8571    3.6138 N.pl3     1 GTP        -0.9204
     31 N3          0.4444    4.2053    2.0072 N.pl3     1 GTP        -0.7173
     32 C4          0.0746    3.6889    0.8098 C.ar      1 GTP         0.2626
     33 HOG3        4.1048    5.2311   -4.6137 H         1 GTP         0.4102
     34 H5'         1.3514    0.2330   -2.1577 H         1 GTP         0.0289
     35 H5''        2.1280   -1.3678   -2.0460 H         1 GTP         0.0289
     36 H4'         3.8044   -0.1397   -0.4040 H         1 GTP         0.2056
     37 H3'         1.6764   -1.7639    0.2728 H         1 GTP         0.1140
     38 HO3'        2.2232   -1.2979    2.3953 H         1 GTP         0.4287
     39 H2'        -0.0011    0.0027    0.0003 H         1 GTP         0.0809
     40 HO2'       -0.1563   -0.9855    2.0596 H         1 GTP         0.4385
     41 H1'         1.7826    1.9024    1.6451 H         1 GTP         0.0794
     42 H8         -0.1415    1.7265   -1.7082 H         1 GTP         0.3821
     43 HN21       -0.0303    6.7197    3.9559 H         1 GTP         0.4411
     44 HN22        0.9765    5.2967    4.1108 H         1 GTP         0.4411
     45 H45         1.1068    3.6990    2.5819 H         1 GTP         0.4819
     46 H46        -1.5877    3.7943   -1.9074 H         1 GTP         0.5182
@<TRIPOS>BOND
     1    1    2 2
     2    1    3 1
     3    1    4 1
     4    1    5 1
     5    4   33 1
     6    5    6 1
     7    6    7 2
     8    6    8 1
     9    6    9 1
    10    9   10 1
    11   10   11 2
    12   10   12 1
    13   10   13 1
    14   13   14 1
    15   14   15 1
    16   14   34 1
    17   14   35 1
    18   15   16 1
    19   15   17 1
    20   15   36 1
    21   16   21 1
    22   17   18 1
    23   17   19 1
    24   17   37 1
    25   18   38 1
    26   19   20 1
    27   19   21 1
    28   19   39 1
    29   20   40 1
    30   21   22 1
    31   21   41 1
    32   22   23 ar
    33   22   32 ar
    34   23   24 ar
    35   23   42 1
    36   24   25 ar
    37   24   46 1
    38   25   26 ar
    39   25   32 ar
    40   26   27 2
    41   26   28 ar
    42   28   29 ar
    43   29   30 1
    44   29   31 ar
    45   30   43 1
    46   30   44 1
    47   31   32 ar
    48   31   45 1
@<TRIPOS>SUBSTRUCTURE
     1 GTP         1 GROUP 0 A     ****
@<TRIPOS>MOLECULE
[[[5-(2-amino-6-oxo-7,8-dihydro-3~{H}-purin-8-ylium-9-yl)-3,4-dihydroxy-tetrahydrofuran-2-yl]methoxy-oxido-phosphoryl]oxy-oxido-phosphoryl] hydrogen phosphate
   46    48     1     0     0
SMALL
USER_CHARGES

@<TRIPOS>ATOM
      1 PG          0.2355    5.2251   -4.5748 P.3       1 GTP         1.5447
      2 O1G         0.9289    5.9223   -5.7240 O.co2     1 GTP        -0.8705
      3 O2G        -1.1537    4.6498   -4.7392 O.co2     1 GTP        -0.8705
      4 O3G         0.2323    6.2276   -3.2860 O.3       1 GTP        -0.7914
      5 O3B         1.2213    4.0665   -3.9836 O.3       1 GTP        -0.8116
      6 PB          2.7694    4.1698   -3.4753 P.3       1 GTP         1.6738
      7 O1B         3.6464    4.5136   -4.6587 O.co2     1 GTP        -0.8763
      8 O2B         2.8157    4.9743   -2.1954 O.co2     1 GTP        -0.8763
      9 O3A         3.0106    2.6117   -3.0522 O.3       1 GTP        -0.8005
     10 PA          2.9232    1.2546   -3.9579 P.3       1 GTP         1.5754
     11 O1A         1.4961    1.0747   -4.4283 O.co2     1 GTP        -0.8771
     12 O2A         4.0762    1.2511   -4.9378 O.co2     1 GTP        -0.8771
     13 O5'         3.2903    0.1346   -2.8241 O.3       1 GTP        -0.5809
     14 C5'         2.2816   -0.2918   -1.9206 C.3       1 GTP         0.1986
     15 C4'         2.7248    0.0226   -0.4980 C.3       1 GTP         0.0418
     16 O4'         2.4697    1.4219   -0.2462 O.3       1 GTP        -0.3505
     17 C3'         1.9404   -0.7419    0.5596 C.3       1 GTP         0.0909
     18 O3'         2.7418   -0.8086    1.7389 O.3       1 GTP        -0.6187
     19 C2'         0.7477    0.1630    0.7858 C.3       1 GTP         0.0706
     20 O2'         0.1373   -0.0577    2.0407 O.3       1 GTP        -0.6294
     21 C1'         1.3733    1.5427    0.6747 C.3       1 GTP         0.3895
     22 N9          0.4520    2.5240    0.1767 N.pl3     1 GTP        -0.4733
     23 C8         -0.2136    2.5096   -0.9739 C.ar      1 GTP         0.2958
     24 N7         -0.9896    3.5820   -1.1212 N.pl3     1 GTP        -0.4933
     25 C5         -0.7962    4.3186    0.0156 C.ar      1 GTP        -0.1494
     26 C6         -1.3875    5.6031    0.4192 C.ar      1 GTP         0.7954
     27 O6         -2.1869    6.1731   -0.3158 O.2       1 GTP        -0.5729
     28 N1         -0.9745    6.0930    1.6597 N.2       1 GTP        -0.7443
     29 C2         -0.1105    5.4166    2.3900 C.ar      1 GTP         0.8831
     30 N2          0.3241    5.8571    3.6138 N.pl3     1 GTP        -0.9204
     31 N3          0.4444    4.2053    2.0072 N.pl3     1 GTP        -0.7173
     32 C4          0.0746    3.6889    0.8098 C.ar      1 GTP         0.2626
     33 HOG3       -0.1853    5.9174   -2.4543 H         1 GTP         0.4102
     34 H5'         1.3514    0.2330   -2.1577 H         1 GTP         0.0289
     35 H5''        2.1280   -1.3678   -2.0460 H         1 GTP         0.0289
     36 H4'         3.8044   -0.1397   -0.4040 H         1 GTP         0.2056
     37 H3'         1.6764   -1.7639    0.2728 H         1 GTP         0.1140
     38 HO3'        2.2232   -1.2979    2.3953 H         1 GTP         0.4287
     39 H2'        -0.0011    0.0027    0.0003 H         1 GTP         0.0809
     40 HO2'       -0.6141    0.5574    2.1082 H         1 GTP         0.4385
     41 H1'         1.7826    1.9024    1.6451 H         1 GTP         0.0794
     42 H8         -0.1415    1.7265   -1.7082 H         1 GTP         0.3821
     43 HN21       -0.0303    6.7197    3.9559 H         1 GTP         0.4411
     44 HN22        0.9765    5.2967    4.1108 H         1 GTP         0.4411
     45 H45         1.1068    3.6990    2.5819 H         1 GTP         0.4819
     46 H46        -1.5877    3.7943   -1.9074 H         1 GTP         0.5182
@<TRIPOS>BOND
     1    1    2 2
     2    1    3 1
     3    1    4 1
     4    1    5 1
     5    4   33 1
     6    5    6 1
     7    6    7 2
     8    6    8 1
     9    6    9 1
    10    9   10 1
    11   10   11 2
    12   10   12 1
    13   10   13 1
    14   13   14 1
    15   14   15 1
    16   14   34 1
    17   14   35 1
    18   15   16 1
    19   15   17 1
    20   15   36 1
    21   16   21 1
    22   17   18 1
    23   17   19 1
    24   17   37 1
    25   18   38 1
    26   19   20 1
    27   19   21 1
    28   19   39 1
    29   20   40 1
    30   21   22 1
    31   21   41 1
    32   22   23 ar
    33   22   32 ar
    34   23   24 ar
    35   23   42 1
    36   24   25 ar
    37   24   46 1
    38   25   26 ar
    39   25   32 ar
    40   26   27 2
    41   26   28 ar
    42   28   29 ar
    43   29   30 1
    44   29   31 ar
    45   30   43 1
    46   30   44 1
    47   31   32 ar
    48   31   45 1
@<TRIPOS>SUBSTRUCTURE
     1 GTP         1 GROUP 0 A     ****
@<TRIPOS>MOLECULE
[[[5-(2-amino-6-oxo-7,8-dihydro-3~{H}-purin-8-ylium-9-yl)-3,4-dihydroxy-tetrahydrofuran-2-yl]methoxy-oxido-phosphoryl]oxy-oxido-phosphoryl] hydrogen phosphate
   46    48     1     0     0
SMALL
USER_CHARGES

@<TRIPOS>ATOM
      1 PG          3.5414    5.9496   -4.9296 P.3       1 GTP         1.5447
      2 O1G         2.6080    6.0906   -6.1113 O.co2     1 GTP        -0.8705
      3 O2G         3.6237    7.0271   -3.8713 O.co2     1 GTP        -0.8705
      4 O3G         5.0469    5.6570   -5.4897 O.3       1 GTP        -0.7914
      5 O3B         3.2653    4.5145   -4.2030 O.3       1 GTP        -0.8116
      6 PB          1.9515    3.9906   -3.3876 P.3       1 GTP         1.6738
      7 O1B         1.7985    4.8186   -2.1312 O.co2     1 GTP        -0.8763
      8 O2B         0.8075    3.8086   -4.3601 O.co2     1 GTP        -0.8763
      9 O3A         2.4676    2.4927   -2.9940 O.3       1 GTP        -0.8005
     10 PA          2.9232    1.2546   -3.9579 P.3       1 GTP         1.5754
     11 O1A         1.7279    0.8049   -4.7699 O.co2     1 GTP        -0.8771
     12 O2A         4.2314    1.6172   -4.6264 O.co2     1 GTP        -0.8771
     13 O5'         3.2903    0.1346   -2.8241 O.3       1 GTP        -0.5809
     14 C5'         2.2816   -0.2918   -1.9206 C.3       1 GTP         0.1986
     15 C4'         2.7248    0.0226   -0.4980 C.3       1 GTP         0.0418
     16 O4'         2.4697    1.4219   -0.2462 O.3       1 GTP        -0.3505
     17 C3'         1.9404   -0.7419    0.5596 C.3       1 GTP         0.0909
     18 O3'         2.7418   -0.8086    1.7389 O.3       1 GTP        -0.6187
     19 C2'         0.7477    0.1630    0.7858 C.3       1 GTP         0.0706
     20 O2'         0.1373   -0.0577    2.0407 O.3       1 GTP        -0.6294
     21 C1'         1.3733    1.5427    0.6747 C.3       1 GTP         0.3895
     22 N9          0.4520    2.5240    0.1767 N.pl3     1 GTP        -0.4733
     23 C8         -0.2136    2.5096   -0.9739 C.ar      1 GTP         0.2958
     24 N7         -0.9896    3.5820   -1.1212 N.pl3     1 GTP        -0.4933
     25 C5         -0.7962    4.3186    0.0156 C.ar      1 GTP        -0.1494
     26 C6         -1.3875    5.6031    0.4192 C.ar      1 GTP         0.7954
     27 O6         -2.1869    6.1731   -0.3158 O.2       1 GTP        -0.5729
     28 N1         -0.9745    6.0930    1.6597 N.2       1 GTP        -0.7443
     29 C2         -0.1105    5.4166    2.3900 C.ar      1 GTP         0.8831
     30 N2          0.3241    5.8571    3.6138 N.pl3     1 GTP        -0.9204
     31 N3          0.4444    4.2053    2.0072 N.pl3     1 GTP        -0.7173
     32 C4          0.0746    3.6889    0.8098 C.ar      1 GTP         0.2626
     33 HOG3        5.7723    5.5403   -4.8399 H         1 GTP         0.4102
     34 H5'         1.3514    0.2330   -2.1577 H         1 GTP         0.0289
     35 H5''        2.1280   -1.3678   -2.0460 H         1 GTP         0.0289
     36 H4'         3.8044   -0.1397   -0.4040 H         1 GTP         0.2056
     37 H3'         1.6764   -1.7639    0.2728 H         1 GTP         0.1140
     38 HO3'        2.2232   -1.2979    2.3953 H         1 GTP         0.4287
     39 H2'        -0.0011    0.0027    0.0003 H         1 GTP         0.0809
     40 HO2'       -0.6141    0.5574    2.1082 H         1 GTP         0.4385
     41 H1'         1.7826    1.9024    1.6451 H         1 GTP         0.0794
     42 H8         -0.1415    1.7265   -1.7082 H         1 GTP         0.3821
     43 HN21       -0.0303    6.7197    3.9559 H         1 GTP         0.4411
     44 HN22        0.9765    5.2967    4.1108 H         1 GTP         0.4411
     45 H45         1.1068    3.6990    2.5819 H         1 GTP         0.4819
     46 H46        -1.5877    3.7943   -1.9074 H         1 GTP         0.5182
@<TRIPOS>BOND
     1    1    2 2
     2    1    3 1
     3    1    4 1
     4    1    5 1
     5    4   33 1
     6    5    6 1
     7    6    7 2
     8    6    8 1
     9    6    9 1
    10    9   10 1
    11   10   11 2
    12   10   12 1
    13   10   13 1
    14   13   14 1
    15   14   15 1
    16   14   34 1
    17   14   35 1
    18   15   16 1
    19   15   17 1
    20   15   36 1
    21   16   21 1
    22   17   18 1
    23   17   19 1
    24   17   37 1
    25   18   38 1
    26   19   20 1
    27   19   21 1
    28   19   39 1
    29   20   40 1
    30   21   22 1
    31   21   41 1
    32   22   23 ar
    33   22   32 ar
    34   23   24 ar
    35   23   42 1
    36   24   25 ar
    37   24   46 1
    38   25   26 ar
    39   25   32 ar
    40   26   27 2
    41   26   28 ar
    42   28   29 ar
    43   29   30 1
    44   29   31 ar
    45   30   43 1
    46   30   44 1
    47   31   32 ar
    48   31   45 1
@<TRIPOS>SUBSTRUCTURE
     1 GTP         1 GROUP 0 A     ****
@<TRIPOS>MOLECULE
[[[5-(2-amino-6-oxo-7,8-dihydro-3~{H}-purin-8-ylium-9-yl)-3,4-dihydroxy-tetrahydrofuran-2-yl]methoxy-oxido-phosphoryl]oxy-oxido-phosphoryl] hydrogen phosphate
   46    48     1     0     0
SMALL
USER_CHARGES

@<TRIPOS>ATOM
      1 PG          4.9710   -3.9079   -4.6162 P.3       1 GTP         1.5447
      2 O1G         6.1149   -3.8075   -5.6006 O.co2     1 GTP        -0.8705
      3 O2G         5.0184   -3.1776   -3.2925 O.co2     1 GTP        -0.8705
      4 O3G         4.6728   -5.4869   -4.3268 O.3       1 GTP        -0.7914
      5 O3B         3.5788   -3.5298   -5.3793 O.3       1 GTP        -0.8116
      6 PB          3.0816   -2.1054   -6.0036 P.3       1 GTP         1.6738
      7 O1B         4.1337   -1.6053   -6.9682 O.co2     1 GTP        -0.8763
      8 O2B         1.6291   -2.2243   -6.4080 O.co2     1 GTP        -0.8763
      9 O3A         3.1119   -1.1996   -4.6459 O.3       1 GTP        -0.8005
     10 PA          2.7407    0.3769   -4.4297 P.3       1 GTP         1.5754
     11 O1A         3.7274    1.2201   -5.2081 O.co2     1 GTP        -0.8771
     12 O2A         1.2486    0.5523   -4.6100 O.co2     1 GTP        -0.8771
     13 O5'         3.0213    0.5153   -2.8245 O.3       1 GTP        -0.5809
     14 C5'         2.2816   -0.2918   -1.9206 C.3       1 GTP         0.1986
     15 C4'         2.7248    0.0226   -0.4980 C.3       1 GTP         0.0418
     16 O4'         2.4697    1.4219   -0.2462 O.3       1 GTP        -0.3505
     17 C3'         1.9404   -0.7419    0.5596 C.3       1 GTP         0.0909
     18 O3'         2.7418   -0.8086    1.7389 O.3       1 GTP        -0.6187
     19 C2'         0.7477    0.1630    0.7858 C.3       1 GTP         0.0706
     20 O2'         0.1373   -0.0577    2.0407 O.3       1 GTP        -0.6294
     21 C1'         1.3733    1.5427    0.6747 C.3       1 GTP         0.3895
     22 N9          0.4520    2.5240    0.1767 N.pl3     1 GTP        -0.4733
     23 C8          0.2012    2.8401   -1.0899 C.ar      1 GTP         0.2958
     24 N7         -0.7168    3.7990   -1.1981 N.pl3     1 GTP        -0.4933
     25 C5         -1.0645    4.1043    0.0896 C.ar      1 GTP        -0.1494
     26 C6         -2.0336    5.0870    0.5973 C.ar      1 GTP         0.7954
     27 O6         -2.6730    5.7839   -0.1834 O.2       1 GTP        -0.5729
     28 N1         -2.1539    5.1517    1.9868 N.2       1 GTP        -0.7443
     29 C2         -1.4288    4.3650    2.7566 C.ar      1 GTP         0.8831
     30 N2         -1.5126    4.3922    4.1250 N.pl3     1 GTP        -0.9204
     31 N3         -0.5167    3.4388    2.2748 N.pl3     1 GTP        -0.7173
     32 C4         -0.3638    3.3392    0.9318 C.ar      1 GTP         0.2626
     33 HOG3        3.9522   -5.7192   -3.7030 H         1 GTP         0.4102
     34 H5'         1.2163   -0.0770   -2.0471 H         1 GTP         0.0289
     35 H5''        2.4655   -1.3443   -2.1563 H         1 GTP         0.0289
     36 H4'         3.8044   -0.1397   -0.4040 H         1 GTP         0.2056
     37 H3'         1.6764   -1.7639    0.2728 H         1 GTP         0.1140
     38 HO3'        2.2232   -1.2979    2.3953 H         1 GTP         0.4287
     39 H2'        -0.0011    0.0027    0.0003 H         1 GTP         0.0809
     40 HO2'       -0.6141    0.5574    2.1082 H         1 GTP         0.4385
     41 H1'         1.7826    1.9024    1.6451 H         1 GTP         0.0794
     42 H8          0.6787    2.3803   -1.9373 H         1 GTP         0.3821
     43 HN21       -2.1462    5.0320    4.5446 H         1 GTP         0.4411
     44 HN22       -0.9365    3.7712    4.6440 H         1 GTP         0.4411
     45 H45         0.0318    2.8419    2.8816 H         1 GTP         0.4819
     46 H46        -1.0718    4.2049   -2.0526 H         1 GTP         0.5182
@<TRIPOS>BOND
     1    1    2 2
     2    1    3 1
     3    1    4 1
     4    1    5 1
     5    4   33 1
     6    5    6 1
     7    6    7 2
     8    6    8 1
     9    6    9 1
    10    9   10 1
    11   10   11 2
    12   10   12 1
    13   10   13 1
    14   13   14 1
    15   14   15 1
    16   14   34 1
    17   14   35 1
    18   15   16 1
    19   15   17 1
    20   15   36 1
    21   16   21 1
    22   17   18 1
    23   17   19 1
    24   17   37 1
    25   18   38 1
    26   19   20 1
    27   19   21 1
    28   19   39 1
    29   20   40 1
    30   21   22 1
    31   21   41 1
    32   22   23 ar
    33   22   32 ar
    34   23   24 ar
    35   23   42 1
    36   24   25 ar
    37   24   46 1
    38   25   26 ar
    39   25   32 ar
    40   26   27 2
    41   26   28 ar
    42   28   29 ar
    43   29   30 1
    44   29   31 ar
    45   30   43 1
    46   30   44 1
    47   31   32 ar
    48   31   45 1
@<TRIPOS>SUBSTRUCTURE
     1 GTP         1 GROUP 0 A     ****
@<TRIPOS>MOLECULE
[[[5-(2-amino-6-oxo-7,8-dihydro-3~{H}-purin-8-ylium-9-yl)-3,4-dihydroxy-tetrahydrofuran-2-yl]methoxy-oxido-phosphoryl]oxy-oxido-phosphoryl] hydrogen phosphate
   46    48     1     0     0
SMALL
USER_CHARGES

@<TRIPOS>ATOM
      1 PG          0.9288    5.9823   -4.1446 P.3       1 GTP         1.5447
      2 O1G         0.7300    6.6369   -2.7958 O.co2     1 GTP        -0.8705
      3 O2G         1.7297    6.6664   -5.2302 O.co2     1 GTP        -0.8705
      4 O3G        -0.5352    5.5883   -4.7508 O.3       1 GTP        -0.7914
      5 O3B         1.5172    4.4762   -3.9226 O.3       1 GTP        -0.8116
      6 PB          1.7726    3.2827   -5.0069 P.3       1 GTP         1.6738
      7 O1B         0.4374    2.8346   -5.5582 O.co2     1 GTP        -0.8763
      8 O2B         2.9124    3.6797   -5.9183 O.co2     1 GTP        -0.8763
      9 O3A         2.3599    2.1376   -4.0025 O.3       1 GTP        -0.8005
     10 PA          2.8621    0.6170   -4.3270 P.3       1 GTP         1.5754
     11 O1A         1.6809   -0.1909   -4.8193 O.co2     1 GTP        -0.8771
     12 O2A         4.1462    0.6908   -5.1241 O.co2     1 GTP        -0.8771
     13 O5'         3.2903    0.1346   -2.8241 O.3       1 GTP        -0.5809
     14 C5'         2.2816   -0.2918   -1.9206 C.3       1 GTP         0.1986
     15 C4'         2.7248    0.0226   -0.4980 C.3       1 GTP         0.0418
     16 O4'         2.4697    1.4219   -0.2462 O.3       1 GTP        -0.3505
     17 C3'         1.9404   -0.7419    0.5596 C.3       1 GTP         0.0909
     18 O3'         2.7418   -0.8086    1.7389 O.3       1 GTP        -0.6187
     19 C2'         0.7477    0.1630    0.7858 C.3       1 GTP         0.0706
     20 O2'         0.1373   -0.0577    2.0407 O.3       1 GTP        -0.6294
     21 C1'         1.3733    1.5427    0.6747 C.3       1 GTP         0.3895
     22 N9          0.4520    2.5240    0.1767 N.pl3     1 GTP        -0.4733
     23 C8         -0.2136    2.5096   -0.9739 C.ar      1 GTP         0.2958
     24 N7         -0.9896    3.5820   -1.1212 N.pl3     1 GTP        -0.4933
     25 C5         -0.7962    4.3186    0.0156 C.ar      1 GTP        -0.1494
     26 C6         -1.3875    5.6031    0.4192 C.ar      1 GTP         0.7954
     27 O6         -2.1869    6.1731   -0.3158 O.2       1 GTP        -0.5729
     28 N1         -0.9745    6.0930    1.6597 N.2       1 GTP        -0.7443
     29 C2         -0.1105    5.4166    2.3900 C.ar      1 GTP         0.8831
     30 N2          0.3241    5.8571    3.6138 N.pl3     1 GTP        -0.9204
     31 N3          0.4444    4.2053    2.0072 N.pl3     1 GTP        -0.7173
     32 C4          0.0746    3.6889    0.8098 C.ar      1 GTP         0.2626
     33 HOG3       -0.5751    5.1515   -5.6282 H         1 GTP         0.4102
     34 H5'         1.3514    0.2330   -2.1577 H         1 GTP         0.0289
     35 H5''        2.1280   -1.3678   -2.0460 H         1 GTP         0.0289
     36 H4'         3.8044   -0.1397   -0.4040 H         1 GTP         0.2056
     37 H3'         1.6764   -1.7639    0.2728 H         1 GTP         0.1140
     38 HO3'        2.2232   -1.2979    2.3953 H         1 GTP         0.4287
     39 H2'        -0.0011    0.0027    0.0003 H         1 GTP         0.0809
     40 HO2'       -0.6141    0.5574    2.1082 H         1 GTP         0.4385
     41 H1'         1.7826    1.9024    1.6451 H         1 GTP         0.0794
     42 H8         -0.1415    1.7265   -1.7082 H         1 GTP         0.3821
     43 HN21       -0.0303    6.7197    3.9559 H         1 GTP         0.4411
     44 HN22        0.9765    5.2967    4.1108 H         1 GTP         0.4411
     45 H45         1.1068    3.6990    2.5819 H         1 GTP         0.4819
     46 H46        -1.5877    3.7943   -1.9074 H         1 GTP         0.5182
@<TRIPOS>BOND
     1    1    2 2
     2    1    3 1
     3    1    4 1
     4    1    5 1
     5    4   33 1
     6    5    6 1
     7    6    7 2
     8    6    8 1
     9    6    9 1
    10    9   10 1
    11   10   11 2
    12   10   12 1
    13   10   13 1
    14   13   14 1
    15   14   15 1
    16   14   34 1
    17   14   35 1
    18   15   16 1
    19   15   17 1
    20   15   36 1
    21   16   21 1
    22   17   18 1
    23   17   19 1
    24   17   37 1
    25   18   38 1
    26   19   20 1
    27   19   21 1
    28   19   39 1
    29   20   40 1
    30   21   22 1
    31   21   41 1
    32   22   23 ar
    33   22   32 ar
    34   23   24 ar
    35   23   42 1
    36   24   25 ar
    37   24   46 1
    38   25   26 ar
    39   25   32 ar
    40   26   27 2
    41   26   28 ar
    42   28   29 ar
    43   29   30 1
    44   29   31 ar
    45   30   43 1
    46   30   44 1
    47   31   32 ar
    48   31   45 1
@<TRIPOS>SUBSTRUCTURE
     1 GTP         1 GROUP 0 A     ****
@<TRIPOS>MOLECULE
[[[5-(2-amino-6-oxo-7,8-dihydro-3~{H}-purin-8-ylium-9-yl)-3,4-dihydroxy-tetrahydrofuran-2-yl]methoxy-oxido-phosphoryl]oxy-oxido-phosphoryl] hydrogen phosphate
   46    48     1     0     0
SMALL
USER_CHARGES

@<TRIPOS>ATOM
      1 PG         -0.8689   -0.3843   -7.5539 P.3       1 GTP         1.5447
      2 O1G        -0.3276    0.2022   -8.8386 O.co2     1 GTP        -0.8705
      3 O2G        -1.1032   -1.8723   -7.4170 O.co2     1 GTP        -0.8705
      4 O3G        -2.2509    0.3956   -7.1695 O.3       1 GTP        -0.7914
      5 O3B         0.0551    0.1225   -6.3077 O.3       1 GTP        -0.8116
      6 PB          0.4851    1.6362   -5.8724 P.3       1 GTP         1.6738
      7 O1B         1.3696    2.2185   -6.9523 O.co2     1 GTP        -0.8763
      8 O2B        -0.7373    2.3707   -5.3687 O.co2     1 GTP        -0.8763
      9 O3A         1.3881    1.2844   -4.5588 O.3       1 GTP        -0.8005
     10 PA          2.7407    0.3769   -4.4297 P.3       1 GTP         1.5754
     11 O1A         2.4007   -1.0556   -4.7799 O.co2     1 GTP        -0.8771
     12 O2A         3.8776    1.1015   -5.1169 O.co2     1 GTP        -0.8771
     13 O5'         3.0213    0.5153   -2.8245 O.3       1 GTP        -0.5809
     14 C5'         2.2816   -0.2918   -1.9206 C.3       1 GTP         0.1986
     15 C4'         2.7248    0.0226   -0.4980 C.3       1 GTP         0.0418
     16 O4'         2.4697    1.4219   -0.2462 O.3       1 GTP        -0.3505
     17 C3'         1.9404   -0.7419    0.5596 C.3       1 GTP         0.0909
     18 O3'         2.7418   -0.8086    1.7389 O.3       1 GTP        -0.6187
     19 C2'         0.7477    0.1630    0.7858 C.3       1 GTP         0.0706
     20 O2'         0.1373   -0.0577    2.0407 O.3       1 GTP        -0.6294
     21 C1'         1.3733    1.5427    0.6747 C.3       1 GTP         0.3895
     22 N9          0.4520    2.5240    0.1767 N.pl3     1 GTP        -0.4733
     23 C8          0.2012    2.8401   -1.0899 C.ar      1 GTP         0.2958
     24 N7         -0.7168    3.7990   -1.1981 N.pl3     1 GTP        -0.4933
     25 C5         -1.0645    4.1043    0.0896 C.ar      1 GTP        -0.1494
     26 C6         -2.0336    5.0870    0.5973 C.ar      1 GTP         0.7954
     27 O6         -2.6730    5.7839   -0.1834 O.2       1 GTP        -0.5729
     28 N1         -2.1539    5.1517    1.9868 N.2       1 GTP        -0.7443
     29 C2         -1.4288    4.3650    2.7566 C.ar      1 GTP         0.8831
     30 N2         -1.5126    4.3922    4.1250 N.pl3     1 GTP        -0.9204
     31 N3         -0.5167    3.4388    2.2748 N.pl3     1 GTP        -0.7173
     32 C4         -0.3638    3.3392    0.9318 C.ar      1 GTP         0.2626
     33 HOG3       -2.7271    0.1277   -6.3548 H         1 GTP         0.4102
     34 H5'         1.2163   -0.0770   -2.0471 H         1 GTP         0.0289
     35 H5''        2.4655   -1.3443   -2.1563 H         1 GTP         0.0289
     36 H4'         3.8044   -0.1397   -0.4040 H         1 GTP         0.2056
     37 H3'         1.6764   -1.7639    0.2728 H         1 GTP         0.1140
     38 HO3'        2.2232   -1.2979    2.3953 H         1 GTP         0.4287
     39 H2'        -0.0011    0.0027    0.0003 H         1 GTP         0.0809
     40 HO2'       -0.6141    0.5574    2.1082 H         1 GTP         0.4385
     41 H1'         1.7826    1.9024    1.6451 H         1 GTP         0.0794
     42 H8          0.6787    2.3803   -1.9373 H         1 GTP         0.3821
     43 HN21       -2.1462    5.0320    4.5446 H         1 GTP         0.4411
     44 HN22       -0.9365    3.7712    4.6440 H         1 GTP         0.4411
     45 H45         0.0318    2.8419    2.8816 H         1 GTP         0.4819
     46 H46        -1.0718    4.2049   -2.0526 H         1 GTP         0.5182
@<TRIPOS>BOND
     1    1    2 2
     2    1    3 1
     3    1    4 1
     4    1    5 1
     5    4   33 1
     6    5    6 1
     7    6    7 2
     8    6    8 1
     9    6    9 1
    10    9   10 1
    11   10   11 2
    12   10   12 1
    13   10   13 1
    14   13   14 1
    15   14   15 1
    16   14   34 1
    17   14   35 1
    18   15   16 1
    19   15   17 1
    20   15   36 1
    21   16   21 1
    22   17   18 1
    23   17   19 1
    24   17   37 1
    25   18   38 1
    26   19   20 1
    27   19   21 1
    28   19   39 1
    29   20   40 1
    30   21   22 1
    31   21   41 1
    32   22   23 ar
    33   22   32 ar
    34   23   24 ar
    35   23   42 1
    36   24   25 ar
    37   24   46 1
    38   25   26 ar
    39   25   32 ar
    40   26   27 2
    41   26   28 ar
    42   28   29 ar
    43   29   30 1
    44   29   31 ar
    45   30   43 1
    46   30   44 1
    47   31   32 ar
    48   31   45 1
@<TRIPOS>SUBSTRUCTURE
     1 GTP         1 GROUP 0 A     ****
@<TRIPOS>MOLECULE
[[[5-(2-amino-6-oxo-7,8-dihydro-3~{H}-purin-8-ylium-9-yl)-3,4-dihydroxy-tetrahydrofuran-2-yl]methoxy-oxido-phosphoryl]oxy-oxido-phosphoryl] hydrogen phosphate
   46    48     1     0     0
SMALL
USER_CHARGES

@<TRIPOS>ATOM
      1 PG          3.2574    4.4047   -7.3047 P.3       1 GTP         1.5447
      2 O1G         2.3076    3.9696   -8.3984 O.co2     1 GTP        -0.8705
      3 O2G         3.3007    5.8433   -6.8397 O.co2     1 GTP        -0.8705
      4 O3G         4.7693    3.9480   -7.7188 O.3       1 GTP        -0.7914
      5 O3B         3.0536    3.4354   -6.0076 O.3       1 GTP        -0.8116
      6 PB          1.7726    3.2827   -5.0069 P.3       1 GTP         1.6738
      7 O1B         1.5940    4.5780   -4.2469 O.co2     1 GTP        -0.8763
      8 O2B         0.6290    2.6444   -5.7635 O.co2     1 GTP        -0.8763
      9 O3A         2.3599    2.1376   -4.0025 O.3       1 GTP        -0.8005
     10 PA          2.8621    0.6170   -4.3270 P.3       1 GTP         1.5754
     11 O1A         1.6809   -0.1909   -4.8193 O.co2     1 GTP        -0.8771
     12 O2A         4.1462    0.6908   -5.1241 O.co2     1 GTP        -0.8771
     13 O5'         3.2903    0.1346   -2.8241 O.3       1 GTP        -0.5809
     14 C5'         2.2816   -0.2918   -1.9206 C.3       1 GTP         0.1986
     15 C4'         2.7248    0.0226   -0.4980 C.3       1 GTP         0.0418
     16 O4'         2.4697    1.4219   -0.2462 O.3       1 GTP        -0.3505
     17 C3'         1.9404   -0.7419    0.5596 C.3       1 GTP         0.0909
     18 O3'         2.7418   -0.8086    1.7389 O.3       1 GTP        -0.6187
     19 C2'         0.7477    0.1630    0.7858 C.3       1 GTP         0.0706
     20 O2'         0.1373   -0.0577    2.0407 O.3       1 GTP        -0.6294
     21 C1'         1.3733    1.5427    0.6747 C.3       1 GTP         0.3895
     22 N9          0.4520    2.5240    0.1767 N.pl3     1 GTP        -0.4733
     23 C8          0.2012    2.8401   -1.0899 C.ar      1 GTP         0.2958
     24 N7         -0.7168    3.7990   -1.1981 N.pl3     1 GTP        -0.4933
     25 C5         -1.0645    4.1043    0.0896 C.ar      1 GTP        -0.1494
     26 C6         -2.0336    5.0870    0.5973 C.ar      1 GTP         0.7954
     27 O6         -2.6730    5.7839   -0.1834 O.2       1 GTP        -0.5729
     28 N1         -2.1539    5.1517    1.9868 N.2       1 GTP        -0.7443
     29 C2         -1.4288    4.3650    2.7566 C.ar      1 GTP         0.8831
     30 N2         -1.5126    4.3922    4.1250 N.pl3     1 GTP        -0.9204
     31 N3         -0.5167    3.4388    2.2748 N.pl3     1 GTP        -0.7173
     32 C4         -0.3638    3.3392    0.9318 C.ar      1 GTP         0.2626
     33 HOG3        5.5054    4.1600   -7.1060 H         1 GTP         0.4102
     34 H5'         1.3514    0.2330   -2.1577 H         1 GTP         0.0289
     35 H5''        2.1280   -1.3678   -2.0460 H         1 GTP         0.0289
     36 H4'         3.8044   -0.1397   -0.4040 H         1 GTP         0.2056
     37 H3'         1.6764   -1.7639    0.2728 H         1 GTP         0.1140
     38 HO3'        2.2232   -1.2979    2.3953 H         1 GTP         0.4287
     39 H2'        -0.0011    0.0027    0.0003 H         1 GTP         0.0809
     40 HO2'       -0.6141    0.5574    2.1082 H         1 GTP         0.4385
     41 H1'         1.7826    1.9024    1.6451 H         1 GTP         0.0794
     42 H8          0.6787    2.3803   -1.9373 H         1 GTP         0.3821
     43 HN21       -2.1462    5.0320    4.5446 H         1 GTP         0.4411
     44 HN22       -0.9365    3.7712    4.6440 H         1 GTP         0.4411
     45 H45         0.0318    2.8419    2.8816 H         1 GTP         0.4819
     46 H46        -1.0718    4.2049   -2.0526 H         1 GTP         0.5182
@<TRIPOS>BOND
     1    1    2 2
     2    1    3 1
     3    1    4 1
     4    1    5 1
     5    4   33 1
     6    5    6 1
     7    6    7 2
     8    6    8 1
     9    6    9 1
    10    9   10 1
    11   10   11 2
    12   10   12 1
    13   10   13 1
    14   13   14 1
    15   14   15 1
    16   14   34 1
    17   14   35 1
    18   15   16 1
    19   15   17 1
    20   15   36 1
    21   16   21 1
    22   17   18 1
    23   17   19 1
    24   17   37 1
    25   18   38 1
    26   19   20 1
    27   19   21 1
    28   19   39 1
    29   20   40 1
    30   21   22 1
    31   21   41 1
    32   22   23 ar
    33   22   32 ar
    34   23   24 ar
    35   23   42 1
    36   24   25 ar
    37   24   46 1
    38   25   26 ar
    39   25   32 ar
    40   26   27 2
    41   26   28 ar
    42   28   29 ar
    43   29   30 1
    44   29   31 ar
    45   30   43 1
    46   30   44 1
    47   31   32 ar
    48   31   45 1
@<TRIPOS>SUBSTRUCTURE
     1 GTP         1 GROUP 0 A     ****
@<TRIPOS>MOLECULE
[[[5-(2-amino-6-oxo-7,8-dihydro-3~{H}-purin-8-ylium-9-yl)-3,4-dihydroxy-tetrahydrofuran-2-yl]methoxy-oxido-phosphoryl]oxy-oxido-phosphoryl] hydrogen phosphate
   46    48     1     0     0
SMALL
USER_CHARGES

@<TRIPOS>ATOM
      1 PG         -2.2143   -0.1687   -3.5593 P.3       1 GTP         1.5447
      2 O1G        -1.2800    0.1599   -2.4163 O.co2     1 GTP        -0.8705
      3 O2G        -2.3279    0.7466   -4.7580 O.co2     1 GTP        -0.8705
      4 O3G        -3.7097   -0.4159   -2.9521 O.3       1 GTP        -0.7914
      5 O3B        -1.9055   -1.6848   -4.0787 O.3       1 GTP        -0.8116
      6 PB         -0.5823   -2.2865   -4.8222 P.3       1 GTP         1.6738
      7 O1B        -0.7458   -3.7831   -4.9668 O.co2     1 GTP        -0.8763
      8 O2B        -0.2399   -1.4094   -6.0059 O.co2     1 GTP        -0.8763
      9 O3A         0.5318   -1.9682   -3.6723 O.3       1 GTP        -0.8005
     10 PA          2.1372   -2.2718   -3.6563 P.3       1 GTP         1.5754
     11 O1A         2.3492   -3.7701   -3.6757 O.co2     1 GTP        -0.8771
     12 O2A         2.8102   -1.3732   -4.6709 O.co2     1 GTP        -0.8771
     13 O5'         2.5245   -1.6648   -2.1878 O.3       1 GTP        -0.5809
     14 C5'         2.2816   -0.2918   -1.9206 C.3       1 GTP         0.1986
     15 C4'         2.7248    0.0226   -0.4980 C.3       1 GTP         0.0418
     16 O4'         2.4697    1.4219   -0.2462 O.3       1 GTP        -0.3505
     17 C3'         1.9404   -0.7419    0.5596 C.3       1 GTP         0.0909
     18 O3'         2.7418   -0.8086    1.7389 O.3       1 GTP        -0.6187
     19 C2'         0.7477    0.1630    0.7858 C.3       1 GTP         0.0706
     20 O2'         0.1373   -0.0577    2.0407 O.3       1 GTP        -0.6294
     21 C1'         1.3733    1.5427    0.6747 C.3       1 GTP         0.3895
     22 N9          0.4520    2.5240    0.1767 N.pl3     1 GTP        -0.4733
     23 C8          0.2012    2.8401   -1.0899 C.ar      1 GTP         0.2958
     24 N7         -0.7168    3.7990   -1.1981 N.pl3     1 GTP        -0.4933
     25 C5         -1.0645    4.1043    0.0896 C.ar      1 GTP        -0.1494
     26 C6         -2.0336    5.0870    0.5973 C.ar      1 GTP         0.7954
     27 O6         -2.6730    5.7839   -0.1834 O.2       1 GTP        -0.5729
     28 N1         -2.1539    5.1517    1.9868 N.2       1 GTP        -0.7443
     29 C2         -1.4288    4.3650    2.7566 C.ar      1 GTP         0.8831
     30 N2         -1.5126    4.3922    4.1250 N.pl3     1 GTP        -0.9204
     31 N3         -0.5167    3.4388    2.2748 N.pl3     1 GTP        -0.7173
     32 C4         -0.3638    3.3392    0.9318 C.ar      1 GTP         0.2626
     33 HOG3       -4.4347   -0.6405   -3.5736 H         1 GTP         0.4102
     34 H5'         2.8432    0.3119   -2.6398 H         1 GTP         0.0289
     35 H5''        1.2128   -0.0927   -2.0428 H         1 GTP         0.0289
     36 H4'         3.8044   -0.1397   -0.4040 H         1 GTP         0.2056
     37 H3'         1.6764   -1.7639    0.2728 H         1 GTP         0.1140
     38 HO3'        2.2232   -1.2979    2.3953 H         1 GTP         0.4287
     39 H2'        -0.0011    0.0027    0.0003 H         1 GTP         0.0809
     40 HO2'       -0.6141    0.5574    2.1082 H         1 GTP         0.4385
     41 H1'         1.7826    1.9024    1.6451 H         1 GTP         0.0794
     42 H8          0.6787    2.3803   -1.9373 H         1 GTP         0.3821
     43 HN21       -2.1462    5.0320    4.5446 H         1 GTP         0.4411
     44 HN22       -0.9365    3.7712    4.6440 H         1 GTP         0.4411
     45 H45         0.0318    2.8419    2.8816 H         1 GTP         0.4819
     46 H46        -1.0718    4.2049   -2.0526 H         1 GTP         0.5182
@<TRIPOS>BOND
     1    1    2 2
     2    1    3 1
     3    1    4 1
     4    1    5 1
     5    4   33 1
     6    5    6 1
     7    6    7 2
     8    6    8 1
     9    6    9 1
    10    9   10 1
    11   10   11 2
    12   10   12 1
    13   10   13 1
    14   13   14 1
    15   14   15 1
    16   14   34 1
    17   14   35 1
    18   15   16 1
    19   15   17 1
    20   15   36 1
    21   16   21 1
    22   17   18 1
    23   17   19 1
    24   17   37 1
    25   18   38 1
    26   19   20 1
    27   19   21 1
    28   19   39 1
    29   20   40 1
    30   21   22 1
    31   21   41 1
    32   22   23 ar
    33   22   32 ar
    34   23   24 ar
    35   23   42 1
    36   24   25 ar
    37   24   46 1
    38   25   26 ar
    39   25   32 ar
    40   26   27 2
    41   26   28 ar
    42   28   29 ar
    43   29   30 1
    44   29   31 ar
    45   30   43 1
    46   30   44 1
    47   31   32 ar
    48   31   45 1
@<TRIPOS>SUBSTRUCTURE
     1 GTP         1 GROUP 0 A     ****
@<TRIPOS>MOLECULE
[[[5-(2-amino-6-oxo-7,8-dihydro-3~{H}-purin-8-ylium-9-yl)-3,4-dihydroxy-tetrahydrofuran-2-yl]methoxy-oxido-phosphoryl]oxy-oxido-phosphoryl] hydrogen phosphate
   46    48     1     0     0
SMALL
USER_CHARGES

@<TRIPOS>ATOM
      1 PG         -0.6672    2.9682   -6.6477 P.3       1 GTP         1.5447
      2 O1G        -1.5745    1.7999   -6.9628 O.co2     1 GTP        -0.8705
      3 O2G        -1.2366    4.2955   -6.1987 O.co2     1 GTP        -0.8705
      4 O3G         0.3067    3.2297   -7.9319 O.3       1 GTP        -0.7914
      5 O3B         0.4642    2.4876   -5.5741 O.3       1 GTP        -0.8116
      6 PB          1.7726    3.2827   -5.0069 P.3       1 GTP         1.6738
      7 O1B         2.7412    3.4986   -6.1483 O.co2     1 GTP        -0.8763
      8 O2B         1.3131    4.4270   -4.1312 O.co2     1 GTP        -0.8763
      9 O3A         2.3599    2.1376   -4.0025 O.3       1 GTP        -0.8005
     10 PA          2.8621    0.6170   -4.3270 P.3       1 GTP         1.5754
     11 O1A         1.6809   -0.1909   -4.8193 O.co2     1 GTP        -0.8771
     12 O2A         4.1462    0.6908   -5.1241 O.co2     1 GTP        -0.8771
     13 O5'         3.2903    0.1346   -2.8241 O.3       1 GTP        -0.5809
     14 C5'         2.2816   -0.2918   -1.9206 C.3       1 GTP         0.1986
     15 C4'         2.7248    0.0226   -0.4980 C.3       1 GTP         0.0418
     16 O4'         2.4697    1.4219   -0.2462 O.3       1 GTP        -0.3505
     17 C3'         1.9404   -0.7419    0.5596 C.3       1 GTP         0.0909
     18 O3'         2.7418   -0.8086    1.7389 O.3       1 GTP        -0.6187
     19 C2'         0.7477    0.1630    0.7858 C.3       1 GTP         0.0706
     20 O2'         0.1373   -0.0577    2.0407 O.3       1 GTP        -0.6294
     21 C1'         1.3733    1.5427    0.6747 C.3       1 GTP         0.3895
     22 N9          0.4520    2.5240    0.1767 N.pl3     1 GTP        -0.4733
     23 C8          0.2012    2.8401   -1.0899 C.ar      1 GTP         0.2958
     24 N7         -0.7168    3.7990   -1.1981 N.pl3     1 GTP        -0.4933
     25 C5         -1.0645    4.1043    0.0896 C.ar      1 GTP        -0.1494
     26 C6         -2.0336    5.0870    0.5973 C.ar      1 GTP         0.7954
     27 O6         -2.6730    5.7839   -0.1834 O.2       1 GTP        -0.5729
     28 N1         -2.1539    5.1517    1.9868 N.2       1 GTP        -0.7443
     29 C2         -1.4288    4.3650    2.7566 C.ar      1 GTP         0.8831
     30 N2         -1.5126    4.3922    4.1250 N.pl3     1 GTP        -0.9204
     31 N3         -0.5167    3.4388    2.2748 N.pl3     1 GTP        -0.7173
     32 C4         -0.3638    3.3392    0.9318 C.ar      1 GTP         0.2626
     33 HOG3        0.9586    3.9610   -7.8823 H         1 GTP         0.4102
     34 H5'         1.3514    0.2330   -2.1577 H         1 GTP         0.0289
     35 H5''        2.1280   -1.3678   -2.0460 H         1 GTP         0.0289
     36 H4'         3.8044   -0.1397   -0.4040 H         1 GTP         0.2056
     37 H3'         1.6764   -1.7639    0.2728 H         1 GTP         0.1140
     38 HO3'        2.2232   -1.2979    2.3953 H         1 GTP         0.4287
     39 H2'        -0.0011    0.0027    0.0003 H         1 GTP         0.0809
     40 HO2'       -0.6141    0.5574    2.1082 H         1 GTP         0.4385
     41 H1'         1.7826    1.9024    1.6451 H         1 GTP         0.0794
     42 H8          0.6787    2.3803   -1.9373 H         1 GTP         0.3821
     43 HN21       -2.1462    5.0320    4.5446 H         1 GTP         0.4411
     44 HN22       -0.9365    3.7712    4.6440 H         1 GTP         0.4411
     45 H45         0.0318    2.8419    2.8816 H         1 GTP         0.4819
     46 H46        -1.0718    4.2049   -2.0526 H         1 GTP         0.5182
@<TRIPOS>BOND
     1    1    2 2
     2    1    3 1
     3    1    4 1
     4    1    5 1
     5    4   33 1
     6    5    6 1
     7    6    7 2
     8    6    8 1
     9    6    9 1
    10    9   10 1
    11   10   11 2
    12   10   12 1
    13   10   13 1
    14   13   14 1
    15   14   15 1
    16   14   34 1
    17   14   35 1
    18   15   16 1
    19   15   17 1
    20   15   36 1
    21   16   21 1
    22   17   18 1
    23   17   19 1
    24   17   37 1
    25   18   38 1
    26   19   20 1
    27   19   21 1
    28   19   39 1
    29   20   40 1
    30   21   22 1
    31   21   41 1
    32   22   23 ar
    33   22   32 ar
    34   23   24 ar
    35   23   42 1
    36   24   25 ar
    37   24   46 1
    38   25   26 ar
    39   25   32 ar
    40   26   27 2
    41   26   28 ar
    42   28   29 ar
    43   29   30 1
    44   29   31 ar
    45   30   43 1
    46   30   44 1
    47   31   32 ar
    48   31   45 1
@<TRIPOS>SUBSTRUCTURE
     1 GTP         1 GROUP 0 A     ****
@<TRIPOS>MOLECULE
[[[5-(2-amino-6-oxo-7,8-dihydro-3~{H}-purin-8-ylium-9-yl)-3,4-dihydroxy-tetrahydrofuran-2-yl]methoxy-oxido-phosphoryl]oxy-oxido-phosphoryl] hydrogen phosphate
   46    48     1     0     0
SMALL
USER_CHARGES

@<TRIPOS>ATOM
      1 PG         -3.8327   -2.3166   -1.3651 P.3       1 GTP         1.5447
      2 O1G        -4.5870   -1.5185   -2.4051 O.co2     1 GTP        -0.8705
      3 O2G        -4.1846   -3.7614   -1.0883 O.co2     1 GTP        -0.8705
      4 O3G        -3.8681   -1.4950    0.0454 O.3       1 GTP        -0.7914
      5 O3B        -2.2332   -2.2112   -1.6719 O.3       1 GTP        -0.8116
      6 PB         -1.3685   -2.7942   -2.9281 P.3       1 GTP         1.6738
      7 O1B        -1.4060   -4.3055   -2.8827 O.co2     1 GTP        -0.8763
      8 O2B        -1.7399   -2.0302   -4.1794 O.co2     1 GTP        -0.8763
      9 O3A         0.1148   -2.2721   -2.4897 O.3       1 GTP        -0.8005
     10 PA          1.5544   -2.4558   -3.2404 P.3       1 GTP         1.5754
     11 O1A         1.9037   -3.9280   -3.2692 O.co2     1 GTP        -0.8771
     12 O2A         1.5492   -1.6282   -4.5072 O.co2     1 GTP        -0.8771
     13 O5'         2.5245   -1.6648   -2.1878 O.3       1 GTP        -0.5809
     14 C5'         2.2816   -0.2918   -1.9206 C.3       1 GTP         0.1986
     15 C4'         2.7248    0.0226   -0.4980 C.3       1 GTP         0.0418
     16 O4'         2.4697    1.4219   -0.2462 O.3       1 GTP        -0.3505
     17 C3'         1.9404   -0.7419    0.5596 C.3       1 GTP         0.0909
     18 O3'         2.7418   -0.8086    1.7389 O.3       1 GTP        -0.6187
     19 C2'         0.7477    0.1630    0.7858 C.3       1 GTP         0.0706
     20 O2'         0.1373   -0.0577    2.0407 O.3       1 GTP        -0.6294
     21 C1'         1.3733    1.5427    0.6747 C.3       1 GTP         0.3895
     22 N9          0.4520    2.5240    0.1767 N.pl3     1 GTP        -0.4733
     23 C8          0.2012    2.8401   -1.0899 C.ar      1 GTP         0.2958
     24 N7         -0.7168    3.7990   -1.1981 N.pl3     1 GTP        -0.4933
     25 C5         -1.0645    4.1043    0.0896 C.ar      1 GTP        -0.1494
     26 C6         -2.0336    5.0870    0.5973 C.ar      1 GTP         0.7954
     27 O6         -2.6730    5.7839   -0.1834 O.2       1 GTP        -0.5729
     28 N1         -2.1539    5.1517    1.9868 N.2       1 GTP        -0.7443
     29 C2         -1.4288    4.3650    2.7566 C.ar      1 GTP         0.8831
     30 N2         -1.5126    4.3922    4.1250 N.pl3     1 GTP        -0.9204
     31 N3         -0.5167    3.4388    2.2748 N.pl3     1 GTP        -0.7173
     32 C4         -0.3638    3.3392    0.9318 C.ar      1 GTP         0.2626
     33 HOG3       -3.4182   -1.8856    0.8247 H         1 GTP         0.4102
     34 H5'         2.8432    0.3119   -2.6398 H         1 GTP         0.0289
     35 H5''        1.2128   -0.0927   -2.0428 H         1 GTP         0.0289
     36 H4'         3.8044   -0.1397   -0.4040 H         1 GTP         0.2056
     37 H3'         1.6764   -1.7639    0.2728 H         1 GTP         0.1140
     38 HO3'        2.2232   -1.2979    2.3953 H         1 GTP         0.4287
     39 H2'        -0.0011    0.0027    0.0003 H         1 GTP         0.0809
     40 HO2'       -0.6141    0.5574    2.1082 H         1 GTP         0.4385
     41 H1'         1.7826    1.9024    1.6451 H         1 GTP         0.0794
     42 H8          0.6787    2.3803   -1.9373 H         1 GTP         0.3821
     43 HN21       -2.1462    5.0320    4.5446 H         1 GTP         0.4411
     44 HN22       -0.9365    3.7712    4.6440 H         1 GTP         0.4411
     45 H45         0.0318    2.8419    2.8816 H         1 GTP         0.4819
     46 H46        -1.0718    4.2049   -2.0526 H         1 GTP         0.5182
@<TRIPOS>BOND
     1    1    2 2
     2    1    3 1
     3    1    4 1
     4    1    5 1
     5    4   33 1
     6    5    6 1
     7    6    7 2
     8    6    8 1
     9    6    9 1
    10    9   10 1
    11   10   11 2
    12   10   12 1
    13   10   13 1
    14   13   14 1
    15   14   15 1
    16   14   34 1
    17   14   35 1
    18   15   16 1
    19   15   17 1
    20   15   36 1
    21   16   21 1
    22   17   18 1
    23   17   19 1
    24   17   37 1
    25   18   38 1
    26   19   20 1
    27   19   21 1
    28   19   39 1
    29   20   40 1
    30   21   22 1
    31   21   41 1
    32   22   23 ar
    33   22   32 ar
    34   23   24 ar
    35   23   42 1
    36   24   25 ar
    37   24   46 1
    38   25   26 ar
    39   25   32 ar
    40   26   27 2
    41   26   28 ar
    42   28   29 ar
    43   29   30 1
    44   29   31 ar
    45   30   43 1
    46   30   44 1
    47   31   32 ar
    48   31   45 1
@<TRIPOS>SUBSTRUCTURE
     1 GTP         1 GROUP 0 A     ****
@<TRIPOS>MOLECULE
[[[5-(2-amino-6-oxo-7,8-dihydro-3~{H}-purin-8-ylium-9-yl)-3,4-dihydroxy-tetrahydrofuran-2-yl]methoxy-oxido-phosphoryl]oxy-oxido-phosphoryl] hydrogen phosphate
   46    48     1     0     0
SMALL
USER_CHARGES

@<TRIPOS>ATOM
      1 PG          5.8591   -0.0105   -5.7543 P.3       1 GTP         1.5447
      2 O1G         5.7666    0.0955   -4.2484 O.co2     1 GTP        -0.8705
      3 O2G         6.7417   -1.0508   -6.4075 O.co2     1 GTP        -0.8705
      4 O3G         6.2548    1.4556   -6.3541 O.3       1 GTP        -0.7914
      5 O3B         4.3532   -0.1313   -6.3718 O.3       1 GTP        -0.8116
      6 PB          3.2576   -1.3334   -6.2291 P.3       1 GTP         1.6738
      7 O1B         1.9649   -0.8906   -6.8774 O.co2     1 GTP        -0.8763
      8 O2B         3.9157   -2.6462   -6.5909 O.co2     1 GTP        -0.8763
      9 O3A         3.0809   -1.3355   -4.6062 O.3       1 GTP        -0.8005
     10 PA          2.1372   -2.2718   -3.6563 P.3       1 GTP         1.5754
     11 O1A         0.6864   -1.9828   -3.9759 O.co2     1 GTP        -0.8771
     12 O2A         2.6769   -3.6852   -3.6801 O.co2     1 GTP        -0.8771
     13 O5'         2.5245   -1.6648   -2.1878 O.3       1 GTP        -0.5809
     14 C5'         2.2816   -0.2918   -1.9206 C.3       1 GTP         0.1986
     15 C4'         2.7248    0.0226   -0.4980 C.3       1 GTP         0.0418
     16 O4'         2.4697    1.4219   -0.2462 O.3       1 GTP        -0.3505
     17 C3'         1.9404   -0.7419    0.5596 C.3       1 GTP         0.0909
     18 O3'         2.7418   -0.8086    1.7389 O.3       1 GTP        -0.6187
     19 C2'         0.7477    0.1630    0.7858 C.3       1 GTP         0.0706
     20 O2'         0.1373   -0.0577    2.0407 O.3       1 GTP        -0.6294
     21 C1'         1.3733    1.5427    0.6747 C.3       1 GTP         0.3895
     22 N9          0.4520    2.5240    0.1767 N.pl3     1 GTP        -0.4733
     23 C8          0.2012    2.8401   -1.0899 C.ar      1 GTP         0.2958
     24 N7         -0.7168    3.7990   -1.1981 N.pl3     1 GTP        -0.4933
     25 C5         -1.0645    4.1043    0.0896 C.ar      1 GTP        -0.1494
     26 C6         -2.0336    5.0870    0.5973 C.ar      1 GTP         0.7954
     27 O6         -2.6730    5.7839   -0.1834 O.2       1 GTP        -0.5729
     28 N1         -2.1539    5.1517    1.9868 N.2       1 GTP        -0.7443
     29 C2         -1.4288    4.3650    2.7566 C.ar      1 GTP         0.8831
     30 N2         -1.5126    4.3922    4.1250 N.pl3     1 GTP        -0.9204
     31 N3         -0.5167    3.4388    2.2748 N.pl3     1 GTP        -0.7173
     32 C4         -0.3638    3.3392    0.9318 C.ar      1 GTP         0.2626
     33 HOG3        6.3535    1.5516   -7.3254 H         1 GTP         0.4102
     34 H5'         2.8432    0.3119   -2.6398 H         1 GTP         0.0289
     35 H5''        1.2128   -0.0927   -2.0428 H         1 GTP         0.0289
     36 H4'         3.8044   -0.1397   -0.4040 H         1 GTP         0.2056
     37 H3'         1.6764   -1.7639    0.2728 H         1 GTP         0.1140
     38 HO3'        2.2232   -1.2979    2.3953 H         1 GTP         0.4287
     39 H2'        -0.0011    0.0027    0.0003 H         1 GTP         0.0809
     40 HO2'       -0.6141    0.5574    2.1082 H         1 GTP         0.4385
     41 H1'         1.7826    1.9024    1.6451 H         1 GTP         0.0794
     42 H8          0.6787    2.3803   -1.9373 H         1 GTP         0.3821
     43 HN21       -2.1462    5.0320    4.5446 H         1 GTP         0.4411
     44 HN22       -0.9365    3.7712    4.6440 H         1 GTP         0.4411
     45 H45         0.0318    2.8419    2.8816 H         1 GTP         0.4819
     46 H46        -1.0718    4.2049   -2.0526 H         1 GTP         0.5182
@<TRIPOS>BOND
     1    1    2 2
     2    1    3 1
     3    1    4 1
     4    1    5 1
     5    4   33 1
     6    5    6 1
     7    6    7 2
     8    6    8 1
     9    6    9 1
    10    9   10 1
    11   10   11 2
    12   10   12 1
    13   10   13 1
    14   13   14 1
    15   14   15 1
    16   14   34 1
    17   14   35 1
    18   15   16 1
    19   15   17 1
    20   15   36 1
    21   16   21 1
    22   17   18 1
    23   17   19 1
    24   17   37 1
    25   18   38 1
    26   19   20 1
    27   19   21 1
    28   19   39 1
    29   20   40 1
    30   21   22 1
    31   21   41 1
    32   22   23 ar
    33   22   32 ar
    34   23   24 ar
    35   23   42 1
    36   24   25 ar
    37   24   46 1
    38   25   26 ar
    39   25   32 ar
    40   26   27 2
    41   26   28 ar
    42   28   29 ar
    43   29   30 1
    44   29   31 ar
    45   30   43 1
    46   30   44 1
    47   31   32 ar
    48   31   45 1
@<TRIPOS>SUBSTRUCTURE
     1 GTP         1 GROUP 0 A     ****
@<TRIPOS>MOLECULE
[[[5-(2-amino-6-oxo-7,8-dihydro-3~{H}-purin-8-ylium-9-yl)-3,4-dihydroxy-tetrahydrofuran-2-yl]methoxy-oxido-phosphoryl]oxy-oxido-phosphoryl] hydrogen phosphate
   46    48     1     0     0
SMALL
USER_CHARGES

@<TRIPOS>ATOM
      1 PG          1.8727    1.1219   -6.4756 P.3       1 GTP         1.5447
      2 O1G         0.4781    1.6343   -6.7585 O.co2     1 GTP        -0.8705
      3 O2G         2.5317    1.3611   -5.1354 O.co2     1 GTP        -0.8705
      4 O3G         2.8718    1.6625   -7.6485 O.3       1 GTP        -0.7914
      5 O3B         1.9319   -0.4730   -6.8170 O.3       1 GTP        -0.8116
      6 PB          1.1870   -1.7278   -6.0847 P.3       1 GTP         1.6738
      7 O1B        -0.2998   -1.4531   -6.0457 O.co2     1 GTP        -0.8763
      8 O2B         1.7388   -3.0217   -6.6406 O.co2     1 GTP        -0.8763
      9 O3A         1.8113   -1.5642   -4.5853 O.3       1 GTP        -0.8005
     10 PA          1.5544   -2.4558   -3.2404 P.3       1 GTP         1.5754
     11 O1A         0.1056   -2.3088   -2.8286 O.co2     1 GTP        -0.8771
     12 O2A         2.1769   -3.8208   -3.4380 O.co2     1 GTP        -0.8771
     13 O5'         2.5245   -1.6648   -2.1878 O.3       1 GTP        -0.5809
     14 C5'         2.2816   -0.2918   -1.9206 C.3       1 GTP         0.1986
     15 C4'         2.7248    0.0226   -0.4980 C.3       1 GTP         0.0418
     16 O4'         2.4697    1.4219   -0.2462 O.3       1 GTP        -0.3505
     17 C3'         1.9404   -0.7419    0.5596 C.3       1 GTP         0.0909
     18 O3'         2.7418   -0.8086    1.7389 O.3       1 GTP        -0.6187
     19 C2'         0.7477    0.1630    0.7858 C.3       1 GTP         0.0706
     20 O2'         0.1373   -0.0577    2.0407 O.3       1 GTP        -0.6294
     21 C1'         1.3733    1.5427    0.6747 C.3       1 GTP         0.3895
     22 N9          0.4520    2.5240    0.1767 N.pl3     1 GTP        -0.4733
     23 C8          0.2012    2.8401   -1.0899 C.ar      1 GTP         0.2958
     24 N7         -0.7168    3.7990   -1.1981 N.pl3     1 GTP        -0.4933
     25 C5         -1.0645    4.1043    0.0896 C.ar      1 GTP        -0.1494
     26 C6         -2.0336    5.0870    0.5973 C.ar      1 GTP         0.7954
     27 O6         -2.6730    5.7839   -0.1834 O.2       1 GTP        -0.5729
     28 N1         -2.1539    5.1517    1.9868 N.2       1 GTP        -0.7443
     29 C2         -1.4288    4.3650    2.7566 C.ar      1 GTP         0.8831
     30 N2         -1.5126    4.3922    4.1250 N.pl3     1 GTP        -0.9204
     31 N3         -0.5167    3.4388    2.2748 N.pl3     1 GTP        -0.7173
     32 C4         -0.3638    3.3392    0.9318 C.ar      1 GTP         0.2626
     33 HOG3        3.8195    1.4131   -7.6060 H         1 GTP         0.4102
     34 H5'         2.8432    0.3119   -2.6398 H         1 GTP         0.0289
     35 H5''        1.2128   -0.0927   -2.0428 H         1 GTP         0.0289
     36 H4'         3.8044   -0.1397   -0.4040 H         1 GTP         0.2056
     37 H3'         1.6764   -1.7639    0.2728 H         1 GTP         0.1140
     38 HO3'        2.2232   -1.2979    2.3953 H         1 GTP         0.4287
     39 H2'        -0.0011    0.0027    0.0003 H         1 GTP         0.0809
     40 HO2'       -0.6141    0.5574    2.1082 H         1 GTP         0.4385
     41 H1'         1.7826    1.9024    1.6451 H         1 GTP         0.0794
     42 H8          0.6787    2.3803   -1.9373 H         1 GTP         0.3821
     43 HN21       -2.1462    5.0320    4.5446 H         1 GTP         0.4411
     44 HN22       -0.9365    3.7712    4.6440 H         1 GTP         0.4411
     45 H45         0.0318    2.8419    2.8816 H         1 GTP         0.4819
     46 H46        -1.0718    4.2049   -2.0526 H         1 GTP         0.5182
@<TRIPOS>BOND
     1    1    2 2
     2    1    3 1
     3    1    4 1
     4    1    5 1
     5    4   33 1
     6    5    6 1
     7    6    7 2
     8    6    8 1
     9    6    9 1
    10    9   10 1
    11   10   11 2
    12   10   12 1
    13   10   13 1
    14   13   14 1
    15   14   15 1
    16   14   34 1
    17   14   35 1
    18   15   16 1
    19   15   17 1
    20   15   36 1
    21   16   21 1
    22   17   18 1
    23   17   19 1
    24   17   37 1
    25   18   38 1
    26   19   20 1
    27   19   21 1
    28   19   39 1
    29   20   40 1
    30   21   22 1
    31   21   41 1
    32   22   23 ar
    33   22   32 ar
    34   23   24 ar
    35   23   42 1
    36   24   25 ar
    37   24   46 1
    38   25   26 ar
    39   25   32 ar
    40   26   27 2
    41   26   28 ar
    42   28   29 ar
    43   29   30 1
    44   29   31 ar
    45   30   43 1
    46   30   44 1
    47   31   32 ar
    48   31   45 1
@<TRIPOS>SUBSTRUCTURE
     1 GTP         1 GROUP 0 A     ****
@<TRIPOS>MOLECULE
[[[5-(2-amino-6-oxo-7,8-dihydro-3~{H}-purin-8-ylium-9-yl)-3,4-dihydroxy-tetrahydrofuran-2-yl]methoxy-oxido-phosphoryl]oxy-oxido-phosphoryl] hydrogen phosphate
   46    48     1     0     0
SMALL
USER_CHARGES

@<TRIPOS>ATOM
      1 PG          4.3802    4.8675   -1.0958 P.3       1 GTP         1.5447
      2 O1G         4.1784    5.8162    0.0647 O.co2     1 GTP        -0.8705
      3 O2G         4.8036    3.4342   -0.8634 O.co2     1 GTP        -0.8705
      4 O3G         5.4228    5.5517   -2.1497 O.3       1 GTP        -0.7914
      5 O3B         3.0421    4.8789   -2.0302 O.3       1 GTP        -0.8116
      6 PB          2.7694    4.1698   -3.4753 P.3       1 GTP         1.6738
      7 O1B         1.3180    4.3730   -3.8489 O.co2     1 GTP        -0.8763
      8 O2B         3.8897    4.5355   -4.4234 O.co2     1 GTP        -0.8763
      9 O3A         3.0106    2.6117   -3.0522 O.3       1 GTP        -0.8005
     10 PA          2.9232    1.2546   -3.9579 P.3       1 GTP         1.5754
     11 O1A         1.4961    1.0747   -4.4283 O.co2     1 GTP        -0.8771
     12 O2A         4.0762    1.2511   -4.9378 O.co2     1 GTP        -0.8771
     13 O5'         3.2903    0.1346   -2.8241 O.3       1 GTP        -0.5809
     14 C5'         2.2816   -0.2918   -1.9206 C.3       1 GTP         0.1986
     15 C4'         2.7248    0.0226   -0.4980 C.3       1 GTP         0.0418
     16 O4'         2.4697    1.4219   -0.2462 O.3       1 GTP        -0.3505
     17 C3'         1.9404   -0.7419    0.5596 C.3       1 GTP         0.0909
     18 O3'         2.7418   -0.8086    1.7389 O.3       1 GTP        -0.6187
     19 C2'         0.7477    0.1630    0.7858 C.3       1 GTP         0.0706
     20 O2'         0.1373   -0.0577    2.0407 O.3       1 GTP        -0.6294
     21 C1'         1.3733    1.5427    0.6747 C.3       1 GTP         0.3895
     22 N9          0.4520    2.5240    0.1767 N.pl3     1 GTP        -0.4733
     23 C8          0.2012    2.8401   -1.0899 C.ar      1 GTP         0.2958
     24 N7         -0.7168    3.7990   -1.1981 N.pl3     1 GTP        -0.4933
     25 C5         -1.0645    4.1043    0.0896 C.ar      1 GTP        -0.1494
     26 C6         -2.0336    5.0870    0.5973 C.ar      1 GTP         0.7954
     27 O6         -2.6730    5.7839   -0.1834 O.2       1 GTP        -0.5729
     28 N1         -2.1539    5.1517    1.9868 N.2       1 GTP        -0.7443
     29 C2         -1.4288    4.3650    2.7566 C.ar      1 GTP         0.8831
     30 N2         -1.5126    4.3922    4.1250 N.pl3     1 GTP        -0.9204
     31 N3         -0.5167    3.4388    2.2748 N.pl3     1 GTP        -0.7173
     32 C4         -0.3638    3.3392    0.9318 C.ar      1 GTP         0.2626
     33 HOG3        5.6578    5.0555   -2.9627 H         1 GTP         0.4102
     34 H5'         1.3514    0.2330   -2.1577 H         1 GTP         0.0289
     35 H5''        2.1280   -1.3678   -2.0460 H         1 GTP         0.0289
     36 H4'         3.8044   -0.1397   -0.4040 H         1 GTP         0.2056
     37 H3'         1.6764   -1.7639    0.2728 H         1 GTP         0.1140
     38 HO3'        3.5554   -1.2733    1.4914 H         1 GTP         0.4287
     39 H2'        -0.0011    0.0027    0.0003 H         1 GTP         0.0809
     40 HO2'       -0.6141    0.5574    2.1082 H         1 GTP         0.4385
     41 H1'         1.7826    1.9024    1.6451 H         1 GTP         0.0794
     42 H8          0.6787    2.3803   -1.9373 H         1 GTP         0.3821
     43 HN21       -2.1462    5.0320    4.5446 H         1 GTP         0.4411
     44 HN22       -0.9365    3.7712    4.6440 H         1 GTP         0.4411
     45 H45         0.0318    2.8419    2.8816 H         1 GTP         0.4819
     46 H46        -1.0718    4.2049   -2.0526 H         1 GTP         0.5182
@<TRIPOS>BOND
     1    1    2 2
     2    1    3 1
     3    1    4 1
     4    1    5 1
     5    4   33 1
     6    5    6 1
     7    6    7 2
     8    6    8 1
     9    6    9 1
    10    9   10 1
    11   10   11 2
    12   10   12 1
    13   10   13 1
    14   13   14 1
    15   14   15 1
    16   14   34 1
    17   14   35 1
    18   15   16 1
    19   15   17 1
    20   15   36 1
    21   16   21 1
    22   17   18 1
    23   17   19 1
    24   17   37 1
    25   18   38 1
    26   19   20 1
    27   19   21 1
    28   19   39 1
    29   20   40 1
    30   21   22 1
    31   21   41 1
    32   22   23 ar
    33   22   32 ar
    34   23   24 ar
    35   23   42 1
    36   24   25 ar
    37   24   46 1
    38   25   26 ar
    39   25   32 ar
    40   26   27 2
    41   26   28 ar
    42   28   29 ar
    43   29   30 1
    44   29   31 ar
    45   30   43 1
    46   30   44 1
    47   31   32 ar
    48   31   45 1
@<TRIPOS>SUBSTRUCTURE
     1 GTP         1 GROUP 0 A     ****
@<TRIPOS>MOLECULE
[[[5-(2-amino-6-oxo-7,8-dihydro-3~{H}-purin-8-ylium-9-yl)-3,4-dihydroxy-tetrahydrofuran-2-yl]methoxy-oxido-phosphoryl]oxy-oxido-phosphoryl] hydrogen phosphate
   46    48     1     0     0
SMALL
USER_CHARGES

@<TRIPOS>ATOM
      1 PG          4.6799   -1.5335   -8.4247 P.3       1 GTP         1.5447
      2 O1G         5.4914   -2.8096   -8.4443 O.co2     1 GTP        -0.8705
      3 O2G         3.5309   -1.3281   -9.3866 O.co2     1 GTP        -0.8705
      4 O3G         5.7016   -0.2670   -8.5597 O.3       1 GTP        -0.7914
      5 O3B         4.1517   -1.2632   -6.9043 O.3       1 GTP        -0.8116
      6 PB          3.0816   -2.1054   -6.0036 P.3       1 GTP         1.6738
      7 O1B         1.7177   -2.0028   -6.6492 O.co2     1 GTP        -0.8763
      8 O2B         3.6872   -3.4430   -5.6408 O.co2     1 GTP        -0.8763
      9 O3A         3.1119   -1.1996   -4.6459 O.3       1 GTP        -0.8005
     10 PA          2.7407    0.3769   -4.4297 P.3       1 GTP         1.5754
     11 O1A         3.7274    1.2201   -5.2081 O.co2     1 GTP        -0.8771
     12 O2A         1.2486    0.5523   -4.6100 O.co2     1 GTP        -0.8771
     13 O5'         3.0213    0.5153   -2.8245 O.3       1 GTP        -0.5809
     14 C5'         2.2816   -0.2918   -1.9206 C.3       1 GTP         0.1986
     15 C4'         2.7248    0.0226   -0.4980 C.3       1 GTP         0.0418
     16 O4'         2.4697    1.4219   -0.2462 O.3       1 GTP        -0.3505
     17 C3'         1.9404   -0.7419    0.5596 C.3       1 GTP         0.0909
     18 O3'         2.7418   -0.8086    1.7389 O.3       1 GTP        -0.6187
     19 C2'         0.7477    0.1630    0.7858 C.3       1 GTP         0.0706
     20 O2'         0.1373   -0.0577    2.0407 O.3       1 GTP        -0.6294
     21 C1'         1.3733    1.5427    0.6747 C.3       1 GTP         0.3895
     22 N9          0.4520    2.5240    0.1767 N.pl3     1 GTP        -0.4733
     23 C8          0.2012    2.8401   -1.0899 C.ar      1 GTP         0.2958
     24 N7         -0.7168    3.7990   -1.1981 N.pl3     1 GTP        -0.4933
     25 C5         -1.0645    4.1043    0.0896 C.ar      1 GTP        -0.1494
     26 C6         -2.0336    5.0870    0.5973 C.ar      1 GTP         0.7954
     27 O6         -2.6730    5.7839   -0.1834 O.2       1 GTP        -0.5729
     28 N1         -2.1539    5.1517    1.9868 N.2       1 GTP        -0.7443
     29 C2         -1.4288    4.3650    2.7566 C.ar      1 GTP         0.8831
     30 N2         -1.5126    4.3922    4.1250 N.pl3     1 GTP        -0.9204
     31 N3         -0.5167    3.4388    2.2748 N.pl3     1 GTP        -0.7173
     32 C4         -0.3638    3.3392    0.9318 C.ar      1 GTP         0.2626
     33 HOG3        5.3248    0.6386   -8.5625 H         1 GTP         0.4102
     34 H5'         1.2163   -0.0770   -2.0471 H         1 GTP         0.0289
     35 H5''        2.4655   -1.3443   -2.1563 H         1 GTP         0.0289
     36 H4'         3.8044   -0.1397   -0.4040 H         1 GTP         0.2056
     37 H3'         1.6764   -1.7639    0.2728 H         1 GTP         0.1140
     38 HO3'        2.2232   -1.2979    2.3953 H         1 GTP         0.4287
     39 H2'        -0.0011    0.0027    0.0003 H         1 GTP         0.0809
     40 HO2'       -0.6141    0.5574    2.1082 H         1 GTP         0.4385
     41 H1'         1.7826    1.9024    1.6451 H         1 GTP         0.0794
     42 H8          0.6787    2.3803   -1.9373 H         1 GTP         0.3821
     43 HN21       -2.1462    5.0320    4.5446 H         1 GTP         0.4411
     44 HN22       -0.9365    3.7712    4.6440 H         1 GTP         0.4411
     45 H45         0.0318    2.8419    2.8816 H         1 GTP         0.4819
     46 H46        -1.0718    4.2049   -2.0526 H         1 GTP         0.5182
@<TRIPOS>BOND
     1    1    2 2
     2    1    3 1
     3    1    4 1
     4    1    5 1
     5    4   33 1
     6    5    6 1
     7    6    7 2
     8    6    8 1
     9    6    9 1
    10    9   10 1
    11   10   11 2
    12   10   12 1
    13   10   13 1
    14   13   14 1
    15   14   15 1
    16   14   34 1
    17   14   35 1
    18   15   16 1
    19   15   17 1
    20   15   36 1
    21   16   21 1
    22   17   18 1
    23   17   19 1
    24   17   37 1
    25   18   38 1
    26   19   20 1
    27   19   21 1
    28   19   39 1
    29   20   40 1
    30   21   22 1
    31   21   41 1
    32   22   23 ar
    33   22   32 ar
    34   23   24 ar
    35   23   42 1
    36   24   25 ar
    37   24   46 1
    38   25   26 ar
    39   25   32 ar
    40   26   27 2
    41   26   28 ar
    42   28   29 ar
    43   29   30 1
    44   29   31 ar
    45   30   43 1
    46   30   44 1
    47   31   32 ar
    48   31   45 1
@<TRIPOS>SUBSTRUCTURE
     1 GTP         1 GROUP 0 A     ****
@<TRIPOS>MOLECULE
[[[5-(2-amino-6-oxo-7,8-dihydro-3~{H}-purin-8-ylium-9-yl)-3,4-dihydroxy-tetrahydrofuran-2-yl]methoxy-oxido-phosphoryl]oxy-oxido-phosphoryl] hydrogen phosphate
   46    48     1     0     0
SMALL
USER_CHARGES

@<TRIPOS>ATOM
      1 PG          0.6607   -2.5885   -7.6312 P.3       1 GTP         1.5447
      2 O1G         1.1449   -1.9561   -8.9169 O.co2     1 GTP        -0.8705
      3 O2G         0.6054   -4.0922   -7.4773 O.co2     1 GTP        -0.8705
      4 O3G        -0.8103   -1.9764   -7.2740 O.3       1 GTP        -0.7914
      5 O3B         1.4998   -1.9593   -6.3807 O.3       1 GTP        -0.8116
      6 PB          3.0816   -2.1054   -6.0036 P.3       1 GTP         1.6738
      7 O1B         3.3653   -3.5493   -5.6541 O.co2     1 GTP        -0.8763
      8 O2B         3.9047   -1.3635   -7.0330 O.co2     1 GTP        -0.8763
      9 O3A         3.1119   -1.1996   -4.6459 O.3       1 GTP        -0.8005
     10 PA          2.7407    0.3769   -4.4297 P.3       1 GTP         1.5754
     11 O1A         3.7274    1.2201   -5.2081 O.co2     1 GTP        -0.8771
     12 O2A         1.2486    0.5523   -4.6100 O.co2     1 GTP        -0.8771
     13 O5'         3.0213    0.5153   -2.8245 O.3       1 GTP        -0.5809
     14 C5'         2.2816   -0.2918   -1.9206 C.3       1 GTP         0.1986
     15 C4'         2.7248    0.0226   -0.4980 C.3       1 GTP         0.0418
     16 O4'         2.4697    1.4219   -0.2462 O.3       1 GTP        -0.3505
     17 C3'         1.9404   -0.7419    0.5596 C.3       1 GTP         0.0909
     18 O3'         2.7418   -0.8086    1.7389 O.3       1 GTP        -0.6187
     19 C2'         0.7477    0.1630    0.7858 C.3       1 GTP         0.0706
     20 O2'         0.1373   -0.0577    2.0407 O.3       1 GTP        -0.6294
     21 C1'         1.3733    1.5427    0.6747 C.3       1 GTP         0.3895
     22 N9          0.4520    2.5240    0.1767 N.pl3     1 GTP        -0.4733
     23 C8          0.2012    2.8401   -1.0899 C.ar      1 GTP         0.2958
     24 N7         -0.7168    3.7990   -1.1981 N.pl3     1 GTP        -0.4933
     25 C5         -1.0645    4.1043    0.0896 C.ar      1 GTP        -0.1494
     26 C6         -2.0336    5.0870    0.5973 C.ar      1 GTP         0.7954
     27 O6         -2.6730    5.7839   -0.1834 O.2       1 GTP        -0.5729
     28 N1         -2.1539    5.1517    1.9868 N.2       1 GTP        -0.7443
     29 C2         -1.4288    4.3650    2.7566 C.ar      1 GTP         0.8831
     30 N2         -1.5126    4.3922    4.1250 N.pl3     1 GTP        -0.9204
     31 N3         -0.5167    3.4388    2.2748 N.pl3     1 GTP        -0.7173
     32 C4         -0.3638    3.3392    0.9318 C.ar      1 GTP         0.2626
     33 HOG3       -1.2619   -2.2902   -6.4617 H         1 GTP         0.4102
     34 H5'         1.2163   -0.0770   -2.0471 H         1 GTP         0.0289
     35 H5''        2.4655   -1.3443   -2.1563 H         1 GTP         0.0289
     36 H4'         3.8044   -0.1397   -0.4040 H         1 GTP         0.2056
     37 H3'         1.6764   -1.7639    0.2728 H         1 GTP         0.1140
     38 HO3'        2.2232   -1.2979    2.3953 H         1 GTP         0.4287
     39 H2'        -0.0011    0.0027    0.0003 H         1 GTP         0.0809
     40 HO2'       -0.6141    0.5574    2.1082 H         1 GTP         0.4385
     41 H1'         1.7826    1.9024    1.6451 H         1 GTP         0.0794
     42 H8          0.6787    2.3803   -1.9373 H         1 GTP         0.3821
     43 HN21       -2.1462    5.0320    4.5446 H         1 GTP         0.4411
     44 HN22       -0.9365    3.7712    4.6440 H         1 GTP         0.4411
     45 H45         0.0318    2.8419    2.8816 H         1 GTP         0.4819
     46 H46        -1.0718    4.2049   -2.0526 H         1 GTP         0.5182
@<TRIPOS>BOND
     1    1    2 2
     2    1    3 1
     3    1    4 1
     4    1    5 1
     5    4   33 1
     6    5    6 1
     7    6    7 2
     8    6    8 1
     9    6    9 1
    10    9   10 1
    11   10   11 2
    12   10   12 1
    13   10   13 1
    14   13   14 1
    15   14   15 1
    16   14   34 1
    17   14   35 1
    18   15   16 1
    19   15   17 1
    20   15   36 1
    21   16   21 1
    22   17   18 1
    23   17   19 1
    24   17   37 1
    25   18   38 1
    26   19   20 1
    27   19   21 1
    28   19   39 1
    29   20   40 1
    30   21   22 1
    31   21   41 1
    32   22   23 ar
    33   22   32 ar
    34   23   24 ar
    35   23   42 1
    36   24   25 ar
    37   24   46 1
    38   25   26 ar
    39   25   32 ar
    40   26   27 2
    41   26   28 ar
    42   28   29 ar
    43   29   30 1
    44   29   31 ar
    45   30   43 1
    46   30   44 1
    47   31   32 ar
    48   31   45 1
@<TRIPOS>SUBSTRUCTURE
     1 GTP         1 GROUP 0 A     ****
@<TRIPOS>MOLECULE
[[[5-(2-amino-6-oxo-7,8-dihydro-3~{H}-purin-8-ylium-9-yl)-3,4-dihydroxy-tetrahydrofuran-2-yl]methoxy-oxido-phosphoryl]oxy-oxido-phosphoryl] hydrogen phosphate
   46    48     1     0     0
SMALL
USER_CHARGES

@<TRIPOS>ATOM
      1 PG         -1.5713   -1.0854   -7.0509 P.3       1 GTP         1.5447
      2 O1G        -1.5827   -0.1185   -8.2138 O.co2     1 GTP        -0.8705
      3 O2G        -1.5787   -2.5801   -7.2826 O.co2     1 GTP        -0.8705
      4 O3G        -2.8067   -0.7096   -6.0517 O.3       1 GTP        -0.7914
      5 O3B        -0.3299   -0.7100   -6.0600 O.3       1 GTP        -0.8116
      6 PB          1.2796   -0.8054   -6.3174 P.3       1 GTP         1.6738
      7 O1B         1.6595   -2.2605   -6.4776 O.co2     1 GTP        -0.8763
      8 O2B         1.6778    0.2342   -7.3413 O.co2     1 GTP        -0.8763
      9 O3A         1.8086   -0.2594   -4.8729 O.3       1 GTP        -0.8005
     10 PA          3.3343   -0.0514   -4.3264 P.3       1 GTP         1.5754
     11 O1A         4.0106   -1.4028   -4.2454 O.co2     1 GTP        -0.8771
     12 O2A         3.9675    1.0961   -5.0826 O.co2     1 GTP        -0.8771
     13 O5'         3.0213    0.5153   -2.8245 O.3       1 GTP        -0.5809
     14 C5'         2.2816   -0.2918   -1.9206 C.3       1 GTP         0.1986
     15 C4'         2.7248    0.0226   -0.4980 C.3       1 GTP         0.0418
     16 O4'         2.4697    1.4219   -0.2462 O.3       1 GTP        -0.3505
     17 C3'         1.9404   -0.7419    0.5596 C.3       1 GTP         0.0909
     18 O3'         2.7418   -0.8086    1.7389 O.3       1 GTP        -0.6187
     19 C2'         0.7477    0.1630    0.7858 C.3       1 GTP         0.0706
     20 O2'         0.1373   -0.0577    2.0407 O.3       1 GTP        -0.6294
     21 C1'         1.3733    1.5427    0.6747 C.3       1 GTP         0.3895
     22 N9          0.4520    2.5240    0.1767 N.pl3     1 GTP        -0.4733
     23 C8          0.2012    2.8401   -1.0899 C.ar      1 GTP         0.2958
     24 N7         -0.7168    3.7990   -1.1981 N.pl3     1 GTP        -0.4933
     25 C5         -1.0645    4.1043    0.0896 C.ar      1 GTP        -0.1494
     26 C6         -2.0336    5.0870    0.5973 C.ar      1 GTP         0.7954
     27 O6         -2.6730    5.7839   -0.1834 O.2       1 GTP        -0.5729
     28 N1         -2.1539    5.1517    1.9868 N.2       1 GTP        -0.7443
     29 C2         -1.4288    4.3650    2.7566 C.ar      1 GTP         0.8831
     30 N2         -1.5126    4.3922    4.1250 N.pl3     1 GTP        -0.9204
     31 N3         -0.5167    3.4388    2.2748 N.pl3     1 GTP        -0.7173
     32 C4         -0.3638    3.3392    0.9318 C.ar      1 GTP         0.2626
     33 HOG3       -2.9345   -1.2503   -5.2433 H         1 GTP         0.4102
     34 H5'         1.2163   -0.0770   -2.0471 H         1 GTP         0.0289
     35 H5''        2.4655   -1.3443   -2.1563 H         1 GTP         0.0289
     36 H4'         3.8044   -0.1397   -0.4040 H         1 GTP         0.2056
     37 H3'         1.6764   -1.7639    0.2728 H         1 GTP         0.1140
     38 HO3'        2.2232   -1.2979    2.3953 H         1 GTP         0.4287
     39 H2'        -0.0011    0.0027    0.0003 H         1 GTP         0.0809
     40 HO2'       -0.6141    0.5574    2.1082 H         1 GTP         0.4385
     41 H1'         1.7826    1.9024    1.6451 H         1 GTP         0.0794
     42 H8          0.6787    2.3803   -1.9373 H         1 GTP         0.3821
     43 HN21       -2.1462    5.0320    4.5446 H         1 GTP         0.4411
     44 HN22       -0.9365    3.7712    4.6440 H         1 GTP         0.4411
     45 H45         0.0318    2.8419    2.8816 H         1 GTP         0.4819
     46 H46        -1.0718    4.2049   -2.0526 H         1 GTP         0.5182
@<TRIPOS>BOND
     1    1    2 2
     2    1    3 1
     3    1    4 1
     4    1    5 1
     5    4   33 1
     6    5    6 1
     7    6    7 2
     8    6    8 1
     9    6    9 1
    10    9   10 1
    11   10   11 2
    12   10   12 1
    13   10   13 1
    14   13   14 1
    15   14   15 1
    16   14   34 1
    17   14   35 1
    18   15   16 1
    19   15   17 1
    20   15   36 1
    21   16   21 1
    22   17   18 1
    23   17   19 1
    24   17   37 1
    25   18   38 1
    26   19   20 1
    27   19   21 1
    28   19   39 1
    29   20   40 1
    30   21   22 1
    31   21   41 1
    32   22   23 ar
    33   22   32 ar
    34   23   24 ar
    35   23   42 1
    36   24   25 ar
    37   24   46 1
    38   25   26 ar
    39   25   32 ar
    40   26   27 2
    41   26   28 ar
    42   28   29 ar
    43   29   30 1
    44   29   31 ar
    45   30   43 1
    46   30   44 1
    47   31   32 ar
    48   31   45 1
@<TRIPOS>SUBSTRUCTURE
     1 GTP         1 GROUP 0 A     ****
@<TRIPOS>MOLECULE
[[[5-(2-amino-6-oxo-7,8-dihydro-3~{H}-purin-8-ylium-9-yl)-3,4-dihydroxy-tetrahydrofuran-2-yl]methoxy-oxido-phosphoryl]oxy-oxido-phosphoryl] hydrogen phosphate
   46    48     1     0     0
SMALL
USER_CHARGES

@<TRIPOS>ATOM
      1 PG         -1.9427    3.3234   -5.8227 P.3       1 GTP         1.5447
      2 O1G        -2.7813    3.9203   -4.7146 O.co2     1 GTP        -0.8705
      3 O2G        -1.4751    4.1699   -6.9857 O.co2     1 GTP        -0.8705
      4 O3G        -2.7198    2.0146   -6.4135 O.3       1 GTP        -0.7914
      5 O3B        -0.6534    2.5688   -5.1655 O.3       1 GTP        -0.8116
      6 PB          0.4851    1.6362   -5.8724 P.3       1 GTP         1.6738
      7 O1B        -0.1721    0.3747   -6.3864 O.co2     1 GTP        -0.8763
      8 O2B         1.3461    2.5010   -6.7660 O.co2     1 GTP        -0.8763
      9 O3A         1.3881    1.2844   -4.5588 O.3       1 GTP        -0.8005
     10 PA          2.7407    0.3769   -4.4297 P.3       1 GTP         1.5754
     11 O1A         2.4007   -1.0556   -4.7799 O.co2     1 GTP        -0.8771
     12 O2A         3.8776    1.1015   -5.1169 O.co2     1 GTP        -0.8771
     13 O5'         3.0213    0.5153   -2.8245 O.3       1 GTP        -0.5809
     14 C5'         2.2816   -0.2918   -1.9206 C.3       1 GTP         0.1986
     15 C4'         2.7248    0.0226   -0.4980 C.3       1 GTP         0.0418
     16 O4'         2.4697    1.4219   -0.2462 O.3       1 GTP        -0.3505
     17 C3'         1.9404   -0.7419    0.5596 C.3       1 GTP         0.0909
     18 O3'         2.7418   -0.8086    1.7389 O.3       1 GTP        -0.6187
     19 C2'         0.7477    0.1630    0.7858 C.3       1 GTP         0.0706
     20 O2'         0.1373   -0.0577    2.0407 O.3       1 GTP        -0.6294
     21 C1'         1.3733    1.5427    0.6747 C.3       1 GTP         0.3895
     22 N9          0.4520    2.5240    0.1767 N.pl3     1 GTP        -0.4733
     23 C8         -0.6872    2.9292    0.7291 C.ar      1 GTP         0.2958
     24 N7         -1.2991    3.8596   -0.0015 N.pl3     1 GTP        -0.4933
     25 C5         -0.4870    4.0499   -1.0861 C.ar      1 GTP        -0.1494
     26 C6         -0.6427    4.9562   -2.2336 C.ar      1 GTP         0.7954
     27 O6         -1.6219    5.6904   -2.3123 O.2       1 GTP        -0.5729
     28 N1          0.3798    4.9069   -3.1832 N.2       1 GTP        -0.7443
     29 C2          1.4004    4.0885   -3.0226 C.ar      1 GTP         0.8831
     30 N2          2.4275    4.0052   -3.9273 N.pl3     1 GTP        -0.9204
     31 N3          1.5448    3.2359   -1.9390 N.pl3     1 GTP        -0.7173
     32 C4          0.5769    3.2470   -0.9903 C.ar      1 GTP         0.2626
     33 HOG3       -2.3000    1.5129   -7.1446 H         1 GTP         0.4102
     34 H5'         1.2163   -0.0770   -2.0471 H         1 GTP         0.0289
     35 H5''        2.4655   -1.3443   -2.1563 H         1 GTP         0.0289
     36 H4'         3.8044   -0.1397   -0.4040 H         1 GTP         0.2056
     37 H3'         1.6764   -1.7639    0.2728 H         1 GTP         0.1140
     38 HO3'        2.2232   -1.2979    2.3953 H         1 GTP         0.4287
     39 H2'        -0.0011    0.0027    0.0003 H         1 GTP         0.0809
     40 HO2'       -0.1563   -0.9855    2.0596 H         1 GTP         0.4385
     41 H1'         1.7826    1.9024    1.6451 H         1 GTP         0.0794
     42 H8         -1.0786    2.5555    1.6591 H         1 GTP         0.3821
     43 HN21        2.3939    4.5871   -4.7317 H         1 GTP         0.4411
     44 HN22        3.1656    3.3663   -3.7434 H         1 GTP         0.4411
     45 H45         2.3366    2.6138   -1.8319 H         1 GTP         0.4819
     46 H46        -2.1740    4.3186    0.2105 H         1 GTP         0.5182
@<TRIPOS>BOND
     1    1    2 2
     2    1    3 1
     3    1    4 1
     4    1    5 1
     5    4   33 1
     6    5    6 1
     7    6    7 2
     8    6    8 1
     9    6    9 1
    10    9   10 1
    11   10   11 2
    12   10   12 1
    13   10   13 1
    14   13   14 1
    15   14   15 1
    16   14   34 1
    17   14   35 1
    18   15   16 1
    19   15   17 1
    20   15   36 1
    21   16   21 1
    22   17   18 1
    23   17   19 1
    24   17   37 1
    25   18   38 1
    26   19   20 1
    27   19   21 1
    28   19   39 1
    29   20   40 1
    30   21   22 1
    31   21   41 1
    32   22   23 ar
    33   22   32 ar
    34   23   24 ar
    35   23   42 1
    36   24   25 ar
    37   24   46 1
    38   25   26 ar
    39   25   32 ar
    40   26   27 2
    41   26   28 ar
    42   28   29 ar
    43   29   30 1
    44   29   31 ar
    45   30   43 1
    46   30   44 1
    47   31   32 ar
    48   31   45 1
@<TRIPOS>SUBSTRUCTURE
     1 GTP         1 GROUP 0 A     ****
@<TRIPOS>MOLECULE
[[[5-(2-amino-6-oxo-7,8-dihydro-3~{H}-purin-8-ylium-9-yl)-3,4-dihydroxy-tetrahydrofuran-2-yl]methoxy-oxido-phosphoryl]oxy-oxido-phosphoryl] hydrogen phosphate
   46    48     1     0     0
SMALL
USER_CHARGES

@<TRIPOS>ATOM
      1 PG         -1.2563    0.5848   -5.7007 P.3       1 GTP         1.5447
      2 O1G        -2.7111    0.1721   -5.7290 O.co2     1 GTP        -0.8705
      3 O2G        -0.6709    1.2872   -4.4959 O.co2     1 GTP        -0.8705
      4 O3G        -0.9468    1.4853   -7.0270 O.3       1 GTP        -0.7914
      5 O3B        -0.3299   -0.7100   -6.0600 O.3       1 GTP        -0.8116
      6 PB          1.2796   -0.8054   -6.3174 P.3       1 GTP         1.6738
      7 O1B         1.6595   -2.2605   -6.4776 O.co2     1 GTP        -0.8763
      8 O2B         1.6778    0.2342   -7.3413 O.co2     1 GTP        -0.8763
      9 O3A         1.8086   -0.2594   -4.8729 O.3       1 GTP        -0.8005
     10 PA          3.3343   -0.0514   -4.3264 P.3       1 GTP         1.5754
     11 O1A         4.0106   -1.4028   -4.2454 O.co2     1 GTP        -0.8771
     12 O2A         3.9675    1.0961   -5.0826 O.co2     1 GTP        -0.8771
     13 O5'         3.0213    0.5153   -2.8245 O.3       1 GTP        -0.5809
     14 C5'         2.2816   -0.2918   -1.9206 C.3       1 GTP         0.1986
     15 C4'         2.7248    0.0226   -0.4980 C.3       1 GTP         0.0418
     16 O4'         2.4697    1.4219   -0.2462 O.3       1 GTP        -0.3505
     17 C3'         1.9404   -0.7419    0.5596 C.3       1 GTP         0.0909
     18 O3'         2.7418   -0.8086    1.7389 O.3       1 GTP        -0.6187
     19 C2'         0.7477    0.1630    0.7858 C.3       1 GTP         0.0706
     20 O2'         0.1373   -0.0577    2.0407 O.3       1 GTP        -0.6294
     21 C1'         1.3733    1.5427    0.6747 C.3       1 GTP         0.3895
     22 N9          0.4520    2.5240    0.1767 N.pl3     1 GTP        -0.4733
     23 C8          0.2012    2.8401   -1.0899 C.ar      1 GTP         0.2958
     24 N7         -0.7168    3.7990   -1.1981 N.pl3     1 GTP        -0.4933
     25 C5         -1.0645    4.1043    0.0896 C.ar      1 GTP        -0.1494
     26 C6         -2.0336    5.0870    0.5973 C.ar      1 GTP         0.7954
     27 O6         -2.6730    5.7839   -0.1834 O.2       1 GTP        -0.5729
     28 N1         -2.1539    5.1517    1.9868 N.2       1 GTP        -0.7443
     29 C2         -1.4288    4.3650    2.7566 C.ar      1 GTP         0.8831
     30 N2         -1.5126    4.3922    4.1250 N.pl3     1 GTP        -0.9204
     31 N3         -0.5167    3.4388    2.2748 N.pl3     1 GTP        -0.7173
     32 C4         -0.3638    3.3392    0.9318 C.ar      1 GTP         0.2626
     33 HOG3       -0.0379    1.8317   -7.1545 H         1 GTP         0.4102
     34 H5'         1.2163   -0.0770   -2.0471 H         1 GTP         0.0289
     35 H5''        2.4655   -1.3443   -2.1563 H         1 GTP         0.0289
     36 H4'         3.8044   -0.1397   -0.4040 H         1 GTP         0.2056
     37 H3'         1.6764   -1.7639    0.2728 H         1 GTP         0.1140
     38 HO3'        2.2232   -1.2979    2.3953 H         1 GTP         0.4287
     39 H2'        -0.0011    0.0027    0.0003 H         1 GTP         0.0809
     40 HO2'       -0.6141    0.5574    2.1082 H         1 GTP         0.4385
     41 H1'         1.7826    1.9024    1.6451 H         1 GTP         0.0794
     42 H8          0.6787    2.3803   -1.9373 H         1 GTP         0.3821
     43 HN21       -2.1462    5.0320    4.5446 H         1 GTP         0.4411
     44 HN22       -0.9365    3.7712    4.6440 H         1 GTP         0.4411
     45 H45         0.0318    2.8419    2.8816 H         1 GTP         0.4819
     46 H46        -1.0718    4.2049   -2.0526 H         1 GTP         0.5182
@<TRIPOS>BOND
     1    1    2 2
     2    1    3 1
     3    1    4 1
     4    1    5 1
     5    4   33 1
     6    5    6 1
     7    6    7 2
     8    6    8 1
     9    6    9 1
    10    9   10 1
    11   10   11 2
    12   10   12 1
    13   10   13 1
    14   13   14 1
    15   14   15 1
    16   14   34 1
    17   14   35 1
    18   15   16 1
    19   15   17 1
    20   15   36 1
    21   16   21 1
    22   17   18 1
    23   17   19 1
    24   17   37 1
    25   18   38 1
    26   19   20 1
    27   19   21 1
    28   19   39 1
    29   20   40 1
    30   21   22 1
    31   21   41 1
    32   22   23 ar
    33   22   32 ar
    34   23   24 ar
    35   23   42 1
    36   24   25 ar
    37   24   46 1
    38   25   26 ar
    39   25   32 ar
    40   26   27 2
    41   26   28 ar
    42   28   29 ar
    43   29   30 1
    44   29   31 ar
    45   30   43 1
    46   30   44 1
    47   31   32 ar
    48   31   45 1
@<TRIPOS>SUBSTRUCTURE
     1 GTP         1 GROUP 0 A     ****
@<TRIPOS>MOLECULE
[[[5-(2-amino-6-oxo-7,8-dihydro-3~{H}-purin-8-ylium-9-yl)-3,4-dihydroxy-tetrahydrofuran-2-yl]methoxy-oxido-phosphoryl]oxy-oxido-phosphoryl] hydrogen phosphate
   46    48     1     0     0
SMALL
USER_CHARGES

@<TRIPOS>ATOM
      1 PG          0.4031   -3.2460   -5.1852 P.3       1 GTP         1.5447
      2 O1G         0.8939   -4.6615   -4.9781 O.co2     1 GTP        -0.8705
      3 O2G         0.1370   -2.3354   -4.0073 O.co2     1 GTP        -0.8705
      4 O3G        -0.9366   -3.2928   -6.1174 O.3       1 GTP        -0.7914
      5 O3B         1.4022   -2.4846   -6.2273 O.3       1 GTP        -0.8116
      6 PB          2.9657   -2.0498   -6.0488 P.3       1 GTP         1.6738
      7 O1B         3.7667   -3.2709   -5.6554 O.co2     1 GTP        -0.8763
      8 O2B         3.3719   -1.1789   -7.2167 O.co2     1 GTP        -0.8763
      9 O3A         2.8162   -1.0576   -4.7611 O.3       1 GTP        -0.8005
     10 PA          3.9554   -0.2064   -3.9565 P.3       1 GTP         1.5754
     11 O1A         4.9156   -1.1760   -3.3022 O.co2     1 GTP        -0.8771
     12 O2A         4.4556    0.9034   -4.8553 O.co2     1 GTP        -0.8771
     13 O5'         3.0213    0.5153   -2.8245 O.3       1 GTP        -0.5809
     14 C5'         2.2816   -0.2918   -1.9206 C.3       1 GTP         0.1986
     15 C4'         2.7248    0.0226   -0.4980 C.3       1 GTP         0.0418
     16 O4'         2.4697    1.4219   -0.2462 O.3       1 GTP        -0.3505
     17 C3'         1.9404   -0.7419    0.5596 C.3       1 GTP         0.0909
     18 O3'         2.7418   -0.8086    1.7389 O.3       1 GTP        -0.6187
     19 C2'         0.7477    0.1630    0.7858 C.3       1 GTP         0.0706
     20 O2'         0.1373   -0.0577    2.0407 O.3       1 GTP        -0.6294
     21 C1'         1.3733    1.5427    0.6747 C.3       1 GTP         0.3895
     22 N9          0.4520    2.5240    0.1767 N.pl3     1 GTP        -0.4733
     23 C8          0.2012    2.8401   -1.0899 C.ar      1 GTP         0.2958
     24 N7         -0.7168    3.7990   -1.1981 N.pl3     1 GTP        -0.4933
     25 C5         -1.0645    4.1043    0.0896 C.ar      1 GTP        -0.1494
     26 C6         -2.0336    5.0870    0.5973 C.ar      1 GTP         0.7954
     27 O6         -2.6730    5.7839   -0.1834 O.2       1 GTP        -0.5729
     28 N1         -2.1539    5.1517    1.9868 N.2       1 GTP        -0.7443
     29 C2         -1.4288    4.3650    2.7566 C.ar      1 GTP         0.8831
     30 N2         -1.5126    4.3922    4.1250 N.pl3     1 GTP        -0.9204
     31 N3         -0.5167    3.4388    2.2748 N.pl3     1 GTP        -0.7173
     32 C4         -0.3638    3.3392    0.9318 C.ar      1 GTP         0.2626
     33 HOG3       -1.3778   -2.4463   -6.3436 H         1 GTP         0.4102
     34 H5'         1.2163   -0.0770   -2.0471 H         1 GTP         0.0289
     35 H5''        2.4655   -1.3443   -2.1563 H         1 GTP         0.0289
     36 H4'         3.8044   -0.1397   -0.4040 H         1 GTP         0.2056
     37 H3'         1.6764   -1.7639    0.2728 H         1 GTP         0.1140
     38 HO3'        2.2232   -1.2979    2.3953 H         1 GTP         0.4287
     39 H2'        -0.0011    0.0027    0.0003 H         1 GTP         0.0809
     40 HO2'       -0.6141    0.5574    2.1082 H         1 GTP         0.4385
     41 H1'         1.7826    1.9024    1.6451 H         1 GTP         0.0794
     42 H8          0.6787    2.3803   -1.9373 H         1 GTP         0.3821
     43 HN21       -2.1462    5.0320    4.5446 H         1 GTP         0.4411
     44 HN22       -0.9365    3.7712    4.6440 H         1 GTP         0.4411
     45 H45         0.0318    2.8419    2.8816 H         1 GTP         0.4819
     46 H46        -1.0718    4.2049   -2.0526 H         1 GTP         0.5182
@<TRIPOS>BOND
     1    1    2 2
     2    1    3 1
     3    1    4 1
     4    1    5 1
     5    4   33 1
     6    5    6 1
     7    6    7 2
     8    6    8 1
     9    6    9 1
    10    9   10 1
    11   10   11 2
    12   10   12 1
    13   10   13 1
    14   13   14 1
    15   14   15 1
    16   14   34 1
    17   14   35 1
    18   15   16 1
    19   15   17 1
    20   15   36 1
    21   16   21 1
    22   17   18 1
    23   17   19 1
    24   17   37 1
    25   18   38 1
    26   19   20 1
    27   19   21 1
    28   19   39 1
    29   20   40 1
    30   21   22 1
    31   21   41 1
    32   22   23 ar
    33   22   32 ar
    34   23   24 ar
    35   23   42 1
    36   24   25 ar
    37   24   46 1
    38   25   26 ar
    39   25   32 ar
    40   26   27 2
    41   26   28 ar
    42   28   29 ar
    43   29   30 1
    44   29   31 ar
    45   30   43 1
    46   30   44 1
    47   31   32 ar
    48   31   45 1
@<TRIPOS>SUBSTRUCTURE
     1 GTP         1 GROUP 0 A     ****
@<TRIPOS>MOLECULE
[[[5-(2-amino-6-oxo-7,8-dihydro-3~{H}-purin-8-ylium-9-yl)-3,4-dihydroxy-tetrahydrofuran-2-yl]methoxy-oxido-phosphoryl]oxy-oxido-phosphoryl] hydrogen phosphate
   46    48     1     0     0
SMALL
USER_CHARGES

@<TRIPOS>ATOM
      1 PG          1.0608   -0.8325   -8.1440 P.3       1 GTP         1.5447
      2 O1G         1.6306    0.4085   -8.7940 O.co2     1 GTP        -0.8705
      3 O2G         1.0971   -2.1679   -8.8533 O.co2     1 GTP        -0.8705
      4 O3G        -0.4793   -0.5240   -7.6982 O.3       1 GTP        -0.7914
      5 O3B         1.7175   -1.0040   -6.6597 O.3       1 GTP        -0.8116
      6 PB          3.2576   -1.3334   -6.2291 P.3       1 GTP         1.6738
      7 O1B         3.6054   -2.7275   -6.7012 O.co2     1 GTP        -0.8763
      8 O2B         4.1288   -0.1434   -6.5645 O.co2     1 GTP        -0.8763
      9 O3A         3.0809   -1.3355   -4.6062 O.3       1 GTP        -0.8005
     10 PA          2.1372   -2.2718   -3.6563 P.3       1 GTP         1.5754
     11 O1A         0.6864   -1.9828   -3.9759 O.co2     1 GTP        -0.8771
     12 O2A         2.6769   -3.6852   -3.6801 O.co2     1 GTP        -0.8771
     13 O5'         2.5245   -1.6648   -2.1878 O.3       1 GTP        -0.5809
     14 C5'         2.2816   -0.2918   -1.9206 C.3       1 GTP         0.1986
     15 C4'         2.7248    0.0226   -0.4980 C.3       1 GTP         0.0418
     16 O4'         2.4697    1.4219   -0.2462 O.3       1 GTP        -0.3505
     17 C3'         1.9404   -0.7419    0.5596 C.3       1 GTP         0.0909
     18 O3'         2.7418   -0.8086    1.7389 O.3       1 GTP        -0.6187
     19 C2'         0.7477    0.1630    0.7858 C.3       1 GTP         0.0706
     20 O2'         0.1373   -0.0577    2.0407 O.3       1 GTP        -0.6294
     21 C1'         1.3733    1.5427    0.6747 C.3       1 GTP         0.3895
     22 N9          0.4520    2.5240    0.1767 N.pl3     1 GTP        -0.4733
     23 C8          0.2012    2.8401   -1.0899 C.ar      1 GTP         0.2958
     24 N7         -0.7168    3.7990   -1.1981 N.pl3     1 GTP        -0.4933
     25 C5         -1.0645    4.1043    0.0896 C.ar      1 GTP        -0.1494
     26 C6         -2.0336    5.0870    0.5973 C.ar      1 GTP         0.7954
     27 O6         -2.6730    5.7839   -0.1834 O.2       1 GTP        -0.5729
     28 N1         -2.1539    5.1517    1.9868 N.2       1 GTP        -0.7443
     29 C2         -1.4288    4.3650    2.7566 C.ar      1 GTP         0.8831
     30 N2         -1.5126    4.3922    4.1250 N.pl3     1 GTP        -0.9204
     31 N3         -0.5167    3.4388    2.2748 N.pl3     1 GTP        -0.7173
     32 C4         -0.3638    3.3392    0.9318 C.ar      1 GTP         0.2626
     33 HOG3       -0.9899   -1.2370   -7.2586 H         1 GTP         0.4102
     34 H5'         2.8432    0.3119   -2.6398 H         1 GTP         0.0289
     35 H5''        1.2128   -0.0927   -2.0428 H         1 GTP         0.0289
     36 H4'         3.8044   -0.1397   -0.4040 H         1 GTP         0.2056
     37 H3'         1.6764   -1.7639    0.2728 H         1 GTP         0.1140
     38 HO3'        2.2232   -1.2979    2.3953 H         1 GTP         0.4287
     39 H2'        -0.0011    0.0027    0.0003 H         1 GTP         0.0809
     40 HO2'       -0.6141    0.5574    2.1082 H         1 GTP         0.4385
     41 H1'         1.7826    1.9024    1.6451 H         1 GTP         0.0794
     42 H8          0.6787    2.3803   -1.9373 H         1 GTP         0.3821
     43 HN21       -2.1462    5.0320    4.5446 H         1 GTP         0.4411
     44 HN22       -0.9365    3.7712    4.6440 H         1 GTP         0.4411
     45 H45         0.0318    2.8419    2.8816 H         1 GTP         0.4819
     46 H46        -1.0718    4.2049   -2.0526 H         1 GTP         0.5182
@<TRIPOS>BOND
     1    1    2 2
     2    1    3 1
     3    1    4 1
     4    1    5 1
     5    4   33 1
     6    5    6 1
     7    6    7 2
     8    6    8 1
     9    6    9 1
    10    9   10 1
    11   10   11 2
    12   10   12 1
    13   10   13 1
    14   13   14 1
    15   14   15 1
    16   14   34 1
    17   14   35 1
    18   15   16 1
    19   15   17 1
    20   15   36 1
    21   16   21 1
    22   17   18 1
    23   17   19 1
    24   17   37 1
    25   18   38 1
    26   19   20 1
    27   19   21 1
    28   19   39 1
    29   20   40 1
    30   21   22 1
    31   21   41 1
    32   22   23 ar
    33   22   32 ar
    34   23   24 ar
    35   23   42 1
    36   24   25 ar
    37   24   46 1
    38   25   26 ar
    39   25   32 ar
    40   26   27 2
    41   26   28 ar
    42   28   29 ar
    43   29   30 1
    44   29   31 ar
    45   30   43 1
    46   30   44 1
    47   31   32 ar
    48   31   45 1
@<TRIPOS>SUBSTRUCTURE
     1 GTP         1 GROUP 0 A     ****
@<TRIPOS>MOLECULE
[[[5-(2-amino-6-oxo-7,8-dihydro-3~{H}-purin-8-ylium-9-yl)-3,4-dihydroxy-tetrahydrofuran-2-yl]methoxy-oxido-phosphoryl]oxy-oxido-phosphoryl] hydrogen phosphate
   46    48     1     0     0
SMALL
USER_CHARGES

@<TRIPOS>ATOM
      1 PG          5.5222    0.3779   -5.8673 P.3       1 GTP         1.5447
      2 O1G         4.0832    0.7353   -6.1658 O.co2     1 GTP        -0.8705
      3 O2G         6.3060    1.1262   -4.8121 O.co2     1 GTP        -0.8705
      4 O3G         6.3665    0.4155   -7.2643 O.3       1 GTP        -0.7914
      5 O3B         5.6199   -1.2226   -5.5631 O.3       1 GTP        -0.8116
      6 PB          5.0152   -2.0896   -4.3188 P.3       1 GTP         1.6738
      7 O1B         5.2682   -3.5572   -4.5823 O.co2     1 GTP        -0.8763
      8 O2B         5.4250   -1.4367   -3.0175 O.co2     1 GTP        -0.8763
      9 O3A         3.4281   -1.7650   -4.5203 O.3       1 GTP        -0.8005
     10 PA          2.1372   -2.2718   -3.6563 P.3       1 GTP         1.5754
     11 O1A         0.8958   -1.5923   -4.1925 O.co2     1 GTP        -0.8771
     12 O2A         2.2074   -3.7770   -3.5183 O.co2     1 GTP        -0.8771
     13 O5'         2.5245   -1.6648   -2.1878 O.3       1 GTP        -0.5809
     14 C5'         2.2816   -0.2918   -1.9206 C.3       1 GTP         0.1986
     15 C4'         2.7248    0.0226   -0.4980 C.3       1 GTP         0.0418
     16 O4'         2.4697    1.4219   -0.2462 O.3       1 GTP        -0.3505
     17 C3'         1.9404   -0.7419    0.5596 C.3       1 GTP         0.0909
     18 O3'         2.7418   -0.8086    1.7389 O.3       1 GTP        -0.6187
     19 C2'         0.7477    0.1630    0.7858 C.3       1 GTP         0.0706
     20 O2'         0.1373   -0.0577    2.0407 O.3       1 GTP        -0.6294
     21 C1'         1.3733    1.5427    0.6747 C.3       1 GTP         0.3895
     22 N9          0.4520    2.5240    0.1767 N.pl3     1 GTP        -0.4733
     23 C8          0.2012    2.8401   -1.0899 C.ar      1 GTP         0.2958
     24 N7         -0.7168    3.7990   -1.1981 N.pl3     1 GTP        -0.4933
     25 C5         -1.0645    4.1043    0.0896 C.ar      1 GTP        -0.1494
     26 C6         -2.0336    5.0870    0.5973 C.ar      1 GTP         0.7954
     27 O6         -2.6730    5.7839   -0.1834 O.2       1 GTP        -0.5729
     28 N1         -2.1539    5.1517    1.9868 N.2       1 GTP        -0.7443
     29 C2         -1.4288    4.3650    2.7566 C.ar      1 GTP         0.8831
     30 N2         -1.5126    4.3922    4.1250 N.pl3     1 GTP        -0.9204
     31 N3         -0.5167    3.4388    2.2748 N.pl3     1 GTP        -0.7173
     32 C4         -0.3638    3.3392    0.9318 C.ar      1 GTP         0.2626
     33 HOG3        7.3242    0.2047   -7.2368 H         1 GTP         0.4102
     34 H5'         2.8432    0.3119   -2.6398 H         1 GTP         0.0289
     35 H5''        1.2128   -0.0927   -2.0428 H         1 GTP         0.0289
     36 H4'         3.8044   -0.1397   -0.4040 H         1 GTP         0.2056
     37 H3'         1.6764   -1.7639    0.2728 H         1 GTP         0.1140
     38 HO3'        2.2232   -1.2979    2.3953 H         1 GTP         0.4287
     39 H2'        -0.0011    0.0027    0.0003 H         1 GTP         0.0809
     40 HO2'       -0.6141    0.5574    2.1082 H         1 GTP         0.4385
     41 H1'         1.7826    1.9024    1.6451 H         1 GTP         0.0794
     42 H8          0.6787    2.3803   -1.9373 H         1 GTP         0.3821
     43 HN21       -2.1462    5.0320    4.5446 H         1 GTP         0.4411
     44 HN22       -0.9365    3.7712    4.6440 H         1 GTP         0.4411
     45 H45         0.0318    2.8419    2.8816 H         1 GTP         0.4819
     46 H46        -1.0718    4.2049   -2.0526 H         1 GTP         0.5182
@<TRIPOS>BOND
     1    1    2 2
     2    1    3 1
     3    1    4 1
     4    1    5 1
     5    4   33 1
     6    5    6 1
     7    6    7 2
     8    6    8 1
     9    6    9 1
    10    9   10 1
    11   10   11 2
    12   10   12 1
    13   10   13 1
    14   13   14 1
    15   14   15 1
    16   14   34 1
    17   14   35 1
    18   15   16 1
    19   15   17 1
    20   15   36 1
    21   16   21 1
    22   17   18 1
    23   17   19 1
    24   17   37 1
    25   18   38 1
    26   19   20 1
    27   19   21 1
    28   19   39 1
    29   20   40 1
    30   21   22 1
    31   21   41 1
    32   22   23 ar
    33   22   32 ar
    34   23   24 ar
    35   23   42 1
    36   24   25 ar
    37   24   46 1
    38   25   26 ar
    39   25   32 ar
    40   26   27 2
    41   26   28 ar
    42   28   29 ar
    43   29   30 1
    44   29   31 ar
    45   30   43 1
    46   30   44 1
    47   31   32 ar
    48   31   45 1
@<TRIPOS>SUBSTRUCTURE
     1 GTP         1 GROUP 0 A     ****
@<TRIPOS>MOLECULE
[[[5-(2-amino-6-oxo-7,8-dihydro-3~{H}-purin-8-ylium-9-yl)-3,4-dihydroxy-tetrahydrofuran-2-yl]methoxy-oxido-phosphoryl]oxy-oxido-phosphoryl] hydrogen phosphate
   46    48     1     0     0
SMALL
USER_CHARGES

@<TRIPOS>ATOM
      1 PG          2.8801   -4.4515   -4.2416 P.3       1 GTP         1.5447
      2 O1G         3.2421   -4.8635   -2.8321 O.co2     1 GTP        -0.8705
      3 O2G         1.5380   -3.8249   -4.5478 O.co2     1 GTP        -0.8705
      4 O3G         3.0894   -5.7361   -5.2274 O.3       1 GTP        -0.7914
      5 O3B         4.0596   -3.4914   -4.8339 O.3       1 GTP        -0.8116
      6 PB          4.5143   -1.9910   -4.3782 P.3       1 GTP         1.6738
      7 O1B         4.8121   -2.0040   -2.8954 O.co2     1 GTP        -0.8763
      8 O2B         5.5098   -1.4514   -5.3810 O.co2     1 GTP        -0.8763
      9 O3A         3.1119   -1.1996   -4.6459 O.3       1 GTP        -0.8005
     10 PA          2.7407    0.3769   -4.4297 P.3       1 GTP         1.5754
     11 O1A         3.7274    1.2201   -5.2081 O.co2     1 GTP        -0.8771
     12 O2A         1.2486    0.5523   -4.6100 O.co2     1 GTP        -0.8771
     13 O5'         3.0213    0.5153   -2.8245 O.3       1 GTP        -0.5809
     14 C5'         2.2816   -0.2918   -1.9206 C.3       1 GTP         0.1986
     15 C4'         2.7248    0.0226   -0.4980 C.3       1 GTP         0.0418
     16 O4'         2.4697    1.4219   -0.2462 O.3       1 GTP        -0.3505
     17 C3'         1.9404   -0.7419    0.5596 C.3       1 GTP         0.0909
     18 O3'         2.7418   -0.8086    1.7389 O.3       1 GTP        -0.6187
     19 C2'         0.7477    0.1630    0.7858 C.3       1 GTP         0.0706
     20 O2'         0.1373   -0.0577    2.0407 O.3       1 GTP        -0.6294
     21 C1'         1.3733    1.5427    0.6747 C.3       1 GTP         0.3895
     22 N9          0.4520    2.5240    0.1767 N.pl3     1 GTP        -0.4733
     23 C8          0.2012    2.8401   -1.0899 C.ar      1 GTP         0.2958
     24 N7         -0.7168    3.7990   -1.1981 N.pl3     1 GTP        -0.4933
     25 C5         -1.0645    4.1043    0.0896 C.ar      1 GTP        -0.1494
     26 C6         -2.0336    5.0870    0.5973 C.ar      1 GTP         0.7954
     27 O6         -2.6730    5.7839   -0.1834 O.2       1 GTP        -0.5729
     28 N1         -2.1539    5.1517    1.9868 N.2       1 GTP        -0.7443
     29 C2         -1.4288    4.3650    2.7566 C.ar      1 GTP         0.8831
     30 N2         -1.5126    4.3922    4.1250 N.pl3     1 GTP        -0.9204
     31 N3         -0.5167    3.4388    2.2748 N.pl3     1 GTP        -0.7173
     32 C4         -0.3638    3.3392    0.9318 C.ar      1 GTP         0.2626
     33 HOG3        2.8945   -5.6283   -6.1827 H         1 GTP         0.4102
     34 H5'         1.2163   -0.0770   -2.0471 H         1 GTP         0.0289
     35 H5''        2.4655   -1.3443   -2.1563 H         1 GTP         0.0289
     36 H4'         3.8044   -0.1397   -0.4040 H         1 GTP         0.2056
     37 H3'         1.6764   -1.7639    0.2728 H         1 GTP         0.1140
     38 HO3'        2.2232   -1.2979    2.3953 H         1 GTP         0.4287
     39 H2'        -0.0011    0.0027    0.0003 H         1 GTP         0.0809
     40 HO2'       -0.6141    0.5574    2.1082 H         1 GTP         0.4385
     41 H1'         1.7826    1.9024    1.6451 H         1 GTP         0.0794
     42 H8          0.6787    2.3803   -1.9373 H         1 GTP         0.3821
     43 HN21       -2.1462    5.0320    4.5446 H         1 GTP         0.4411
     44 HN22       -0.9365    3.7712    4.6440 H         1 GTP         0.4411
     45 H45         0.0318    2.8419    2.8816 H         1 GTP         0.4819
     46 H46        -1.0718    4.2049   -2.0526 H         1 GTP         0.5182
@<TRIPOS>BOND
     1    1    2 2
     2    1    3 1
     3    1    4 1
     4    1    5 1
     5    4   33 1
     6    5    6 1
     7    6    7 2
     8    6    8 1
     9    6    9 1
    10    9   10 1
    11   10   11 2
    12   10   12 1
    13   10   13 1
    14   13   14 1
    15   14   15 1
    16   14   34 1
    17   14   35 1
    18   15   16 1
    19   15   17 1
    20   15   36 1
    21   16   21 1
    22   17   18 1
    23   17   19 1
    24   17   37 1
    25   18   38 1
    26   19   20 1
    27   19   21 1
    28   19   39 1
    29   20   40 1
    30   21   22 1
    31   21   41 1
    32   22   23 ar
    33   22   32 ar
    34   23   24 ar
    35   23   42 1
    36   24   25 ar
    37   24   46 1
    38   25   26 ar
    39   25   32 ar
    40   26   27 2
    41   26   28 ar
    42   28   29 ar
    43   29   30 1
    44   29   31 ar
    45   30   43 1
    46   30   44 1
    47   31   32 ar
    48   31   45 1
@<TRIPOS>SUBSTRUCTURE
     1 GTP         1 GROUP 0 A     ****
@<TRIPOS>MOLECULE
[[[5-(2-amino-6-oxo-7,8-dihydro-3~{H}-purin-8-ylium-9-yl)-3,4-dihydroxy-tetrahydrofuran-2-yl]methoxy-oxido-phosphoryl]oxy-oxido-phosphoryl] hydrogen phosphate
   46    48     1     0     0
SMALL
USER_CHARGES

@<TRIPOS>ATOM
      1 PG          1.5012    3.0472   -8.2641 P.3       1 GTP         1.5447
      2 O1G         0.3473    4.0249   -8.2787 O.co2     1 GTP        -0.8705
      3 O2G         2.8797    3.4649   -8.7254 O.co2     1 GTP        -0.8705
      4 O3G         1.0598    1.7115   -9.0929 O.3       1 GTP        -0.7914
      5 O3B         1.6189    2.3866   -6.7763 O.3       1 GTP        -0.8116
      6 PB          0.4851    1.6362   -5.8724 P.3       1 GTP         1.6738
      7 O1B        -0.5805    2.6421   -5.4983 O.co2     1 GTP        -0.8763
      8 O2B         0.1344    0.3145   -6.5187 O.co2     1 GTP        -0.8763
      9 O3A         1.3881    1.2844   -4.5588 O.3       1 GTP        -0.8005
     10 PA          2.7407    0.3769   -4.4297 P.3       1 GTP         1.5754
     11 O1A         2.4007   -1.0556   -4.7799 O.co2     1 GTP        -0.8771
     12 O2A         3.8776    1.1015   -5.1169 O.co2     1 GTP        -0.8771
     13 O5'         3.0213    0.5153   -2.8245 O.3       1 GTP        -0.5809
     14 C5'         2.2816   -0.2918   -1.9206 C.3       1 GTP         0.1986
     15 C4'         2.7248    0.0226   -0.4980 C.3       1 GTP         0.0418
     16 O4'         2.4697    1.4219   -0.2462 O.3       1 GTP        -0.3505
     17 C3'         1.9404   -0.7419    0.5596 C.3       1 GTP         0.0909
     18 O3'         2.7418   -0.8086    1.7389 O.3       1 GTP        -0.6187
     19 C2'         0.7477    0.1630    0.7858 C.3       1 GTP         0.0706
     20 O2'         0.1373   -0.0577    2.0407 O.3       1 GTP        -0.6294
     21 C1'         1.3733    1.5427    0.6747 C.3       1 GTP         0.3895
     22 N9          0.4520    2.5240    0.1767 N.pl3     1 GTP        -0.4733
     23 C8          0.2012    2.8401   -1.0899 C.ar      1 GTP         0.2958
     24 N7         -0.7168    3.7990   -1.1981 N.pl3     1 GTP        -0.4933
     25 C5         -1.0645    4.1043    0.0896 C.ar      1 GTP        -0.1494
     26 C6         -2.0336    5.0870    0.5973 C.ar      1 GTP         0.7954
     27 O6         -2.6730    5.7839   -0.1834 O.2       1 GTP        -0.5729
     28 N1         -2.1539    5.1517    1.9868 N.2       1 GTP        -0.7443
     29 C2         -1.4288    4.3650    2.7566 C.ar      1 GTP         0.8831
     30 N2         -1.5126    4.3922    4.1250 N.pl3     1 GTP        -0.9204
     31 N3         -0.5167    3.4388    2.2748 N.pl3     1 GTP        -0.7173
     32 C4         -0.3638    3.3392    0.9318 C.ar      1 GTP         0.2626
     33 HOG3        1.7058    0.9778   -9.1744 H         1 GTP         0.4102
     34 H5'         1.2163   -0.0770   -2.0471 H         1 GTP         0.0289
     35 H5''        2.4655   -1.3443   -2.1563 H         1 GTP         0.0289
     36 H4'         3.8044   -0.1397   -0.4040 H         1 GTP         0.2056
     37 H3'         1.6764   -1.7639    0.2728 H         1 GTP         0.1140
     38 HO3'        3.5554   -1.2733    1.4914 H         1 GTP         0.4287
     39 H2'        -0.0011    0.0027    0.0003 H         1 GTP         0.0809
     40 HO2'       -0.1563   -0.9855    2.0596 H         1 GTP         0.4385
     41 H1'         1.7826    1.9024    1.6451 H         1 GTP         0.0794
     42 H8          0.6787    2.3803   -1.9373 H         1 GTP         0.3821
     43 HN21       -2.1462    5.0320    4.5446 H         1 GTP         0.4411
     44 HN22       -0.9365    3.7712    4.6440 H         1 GTP         0.4411
     45 H45         0.0318    2.8419    2.8816 H         1 GTP         0.4819
     46 H46        -1.0718    4.2049   -2.0526 H         1 GTP         0.5182
@<TRIPOS>BOND
     1    1    2 2
     2    1    3 1
     3    1    4 1
     4    1    5 1
     5    4   33 1
     6    5    6 1
     7    6    7 2
     8    6    8 1
     9    6    9 1
    10    9   10 1
    11   10   11 2
    12   10   12 1
    13   10   13 1
    14   13   14 1
    15   14   15 1
    16   14   34 1
    17   14   35 1
    18   15   16 1
    19   15   17 1
    20   15   36 1
    21   16   21 1
    22   17   18 1
    23   17   19 1
    24   17   37 1
    25   18   38 1
    26   19   20 1
    27   19   21 1
    28   19   39 1
    29   20   40 1
    30   21   22 1
    31   21   41 1
    32   22   23 ar
    33   22   32 ar
    34   23   24 ar
    35   23   42 1
    36   24   25 ar
    37   24   46 1
    38   25   26 ar
    39   25   32 ar
    40   26   27 2
    41   26   28 ar
    42   28   29 ar
    43   29   30 1
    44   29   31 ar
    45   30   43 1
    46   30   44 1
    47   31   32 ar
    48   31   45 1
@<TRIPOS>SUBSTRUCTURE
     1 GTP         1 GROUP 0 A     ****
@<TRIPOS>MOLECULE
[[[5-(2-amino-6-oxo-7,8-dihydro-3~{H}-purin-8-ylium-9-yl)-3,4-dihydroxy-tetrahydrofuran-2-yl]methoxy-oxido-phosphoryl]oxy-oxido-phosphoryl] hydrogen phosphate
   46    48     1     0     0
SMALL
USER_CHARGES

@<TRIPOS>ATOM
      1 PG          0.9288    5.9823   -4.1446 P.3       1 GTP         1.5447
      2 O1G         0.7300    6.6369   -2.7958 O.co2     1 GTP        -0.8705
      3 O2G         1.7297    6.6664   -5.2302 O.co2     1 GTP        -0.8705
      4 O3G        -0.5352    5.5883   -4.7508 O.3       1 GTP        -0.7914
      5 O3B         1.5172    4.4762   -3.9226 O.3       1 GTP        -0.8116
      6 PB          1.7726    3.2827   -5.0069 P.3       1 GTP         1.6738
      7 O1B         0.4374    2.8346   -5.5582 O.co2     1 GTP        -0.8763
      8 O2B         2.9124    3.6797   -5.9183 O.co2     1 GTP        -0.8763
      9 O3A         2.3599    2.1376   -4.0025 O.3       1 GTP        -0.8005
     10 PA          2.8621    0.6170   -4.3270 P.3       1 GTP         1.5754
     11 O1A         1.6809   -0.1909   -4.8193 O.co2     1 GTP        -0.8771
     12 O2A         4.1462    0.6908   -5.1241 O.co2     1 GTP        -0.8771
     13 O5'         3.2903    0.1346   -2.8241 O.3       1 GTP        -0.5809
     14 C5'         2.2816   -0.2918   -1.9206 C.3       1 GTP         0.1986
     15 C4'         2.7248    0.0226   -0.4980 C.3       1 GTP         0.0418
     16 O4'         2.4697    1.4219   -0.2462 O.3       1 GTP        -0.3505
     17 C3'         1.9404   -0.7419    0.5596 C.3       1 GTP         0.0909
     18 O3'         2.7418   -0.8086    1.7389 O.3       1 GTP        -0.6187
     19 C2'         0.7477    0.1630    0.7858 C.3       1 GTP         0.0706
     20 O2'         0.1373   -0.0577    2.0407 O.3       1 GTP        -0.6294
     21 C1'         1.3733    1.5427    0.6747 C.3       1 GTP         0.3895
     22 N9          0.4520    2.5240    0.1767 N.pl3     1 GTP        -0.4733
     23 C8          0.5427    3.2356   -0.9425 C.ar      1 GTP         0.2958
     24 N7         -0.4919    4.0590   -1.1018 N.pl3     1 GTP        -0.4933
     25 C5         -1.2850    3.8484   -0.0069 C.ar      1 GTP        -0.1494
     26 C6         -2.5644    4.4707    0.3650 C.ar      1 GTP         0.7954
     27 O6         -3.0718    5.3200   -0.3599 O.2       1 GTP        -0.5729
     28 N1         -3.1239    4.0269    1.5647 N.2       1 GTP        -0.7443
     29 C2         -2.5133    3.1079    2.2858 C.ar      1 GTP         0.8831
     30 N2         -3.0239    2.6409    3.4697 N.pl3     1 GTP        -0.9204
     31 N3         -1.3076    2.5223    1.9320 N.pl3     1 GTP        -0.7173
     32 C4         -0.7246    2.9211    0.7753 C.ar      1 GTP         0.2626
     33 HOG3       -0.5751    5.1515   -5.6282 H         1 GTP         0.4102
     34 H5'         1.3514    0.2330   -2.1577 H         1 GTP         0.0289
     35 H5''        2.1280   -1.3678   -2.0460 H         1 GTP         0.0289
     36 H4'         3.8044   -0.1397   -0.4040 H         1 GTP         0.2056
     37 H3'         1.6764   -1.7639    0.2728 H         1 GTP         0.1140
     38 HO3'        2.2232   -1.2979    2.3953 H         1 GTP         0.4287
     39 H2'        -0.0011    0.0027    0.0003 H         1 GTP         0.0809
     40 HO2'       -0.1563   -0.9855    2.0596 H         1 GTP         0.4385
     41 H1'         1.7826    1.9024    1.6451 H         1 GTP         0.0794
     42 H8          1.3539    3.1622   -1.6455 H         1 GTP         0.3821
     43 HN21       -3.8871    3.0143    3.7893 H         1 GTP         0.4411
     44 HN22       -2.5108    1.9472    3.9621 H         1 GTP         0.4411
     45 H45        -0.8530    1.8168    2.4986 H         1 GTP         0.4819
     46 H46        -0.6466    4.6966   -1.8702 H         1 GTP         0.5182
@<TRIPOS>BOND
     1    1    2 2
     2    1    3 1
     3    1    4 1
     4    1    5 1
     5    4   33 1
     6    5    6 1
     7    6    7 2
     8    6    8 1
     9    6    9 1
    10    9   10 1
    11   10   11 2
    12   10   12 1
    13   10   13 1
    14   13   14 1
    15   14   15 1
    16   14   34 1
    17   14   35 1
    18   15   16 1
    19   15   17 1
    20   15   36 1
    21   16   21 1
    22   17   18 1
    23   17   19 1
    24   17   37 1
    25   18   38 1
    26   19   20 1
    27   19   21 1
    28   19   39 1
    29   20   40 1
    30   21   22 1
    31   21   41 1
    32   22   23 ar
    33   22   32 ar
    34   23   24 ar
    35   23   42 1
    36   24   25 ar
    37   24   46 1
    38   25   26 ar
    39   25   32 ar
    40   26   27 2
    41   26   28 ar
    42   28   29 ar
    43   29   30 1
    44   29   31 ar
    45   30   43 1
    46   30   44 1
    47   31   32 ar
    48   31   45 1
@<TRIPOS>SUBSTRUCTURE
     1 GTP         1 GROUP 0 A     ****
@<TRIPOS>MOLECULE
[[[5-(2-amino-6-oxo-7,8-dihydro-3~{H}-purin-8-ylium-9-yl)-3,4-dihydroxy-tetrahydrofuran-2-yl]methoxy-oxido-phosphoryl]oxy-oxido-phosphoryl] hydrogen phosphate
   46    48     1     0     0
SMALL
USER_CHARGES

@<TRIPOS>ATOM
      1 PG         -2.7097    1.6454   -5.5439 P.3       1 GTP         1.5447
      2 O1G        -3.1708    0.4652   -6.3698 O.co2     1 GTP        -0.8705
      3 O2G        -3.5682    2.1951   -4.4266 O.co2     1 GTP        -0.8705
      4 O3G        -2.3292    2.8692   -6.5555 O.3       1 GTP        -0.7914
      5 O3B        -1.2174    1.3347   -4.9605 O.3       1 GTP        -0.8116
      6 PB          0.1391    0.8790   -5.7466 P.3       1 GTP         1.6738
      7 O1B        -0.0774   -0.5006   -6.3274 O.co2     1 GTP        -0.8763
      8 O2B         0.6251    2.0297   -6.5994 O.co2     1 GTP        -0.8763
      9 O3A         1.1584    0.7817   -4.4753 O.3       1 GTP        -0.8005
     10 PA          2.7407    0.3769   -4.4297 P.3       1 GTP         1.5754
     11 O1A         2.8866   -1.0655   -4.8640 O.co2     1 GTP        -0.8771
     12 O2A         3.5415    1.4776   -5.0906 O.co2     1 GTP        -0.8771
     13 O5'         3.0213    0.5153   -2.8245 O.3       1 GTP        -0.5809
     14 C5'         2.2816   -0.2918   -1.9206 C.3       1 GTP         0.1986
     15 C4'         2.7248    0.0226   -0.4980 C.3       1 GTP         0.0418
     16 O4'         2.4697    1.4219   -0.2462 O.3       1 GTP        -0.3505
     17 C3'         1.9404   -0.7419    0.5596 C.3       1 GTP         0.0909
     18 O3'         2.7418   -0.8086    1.7389 O.3       1 GTP        -0.6187
     19 C2'         0.7477    0.1630    0.7858 C.3       1 GTP         0.0706
     20 O2'         0.1373   -0.0577    2.0407 O.3       1 GTP        -0.6294
     21 C1'         1.3733    1.5427    0.6747 C.3       1 GTP         0.3895
     22 N9          0.4520    2.5240    0.1767 N.pl3     1 GTP        -0.4733
     23 C8         -0.2136    2.5096   -0.9739 C.ar      1 GTP         0.2958
     24 N7         -0.9896    3.5820   -1.1212 N.pl3     1 GTP        -0.4933
     25 C5         -0.7962    4.3186    0.0156 C.ar      1 GTP        -0.1494
     26 C6         -1.3875    5.6031    0.4192 C.ar      1 GTP         0.7954
     27 O6         -2.1869    6.1731   -0.3158 O.2       1 GTP        -0.5729
     28 N1         -0.9745    6.0930    1.6597 N.2       1 GTP        -0.7443
     29 C2         -0.1105    5.4166    2.3900 C.ar      1 GTP         0.8831
     30 N2          0.3241    5.8571    3.6138 N.pl3     1 GTP        -0.9204
     31 N3          0.4444    4.2053    2.0072 N.pl3     1 GTP        -0.7173
     32 C4          0.0746    3.6889    0.8098 C.ar      1 GTP         0.2626
     33 HOG3       -2.0103    3.7125   -6.1689 H         1 GTP         0.4102
     34 H5'         1.2163   -0.0770   -2.0471 H         1 GTP         0.0289
     35 H5''        2.4655   -1.3443   -2.1563 H         1 GTP         0.0289
     36 H4'         3.8044   -0.1397   -0.4040 H         1 GTP         0.2056
     37 H3'         1.6764   -1.7639    0.2728 H         1 GTP         0.1140
     38 HO3'        2.2232   -1.2979    2.3953 H         1 GTP         0.4287
     39 H2'        -0.0011    0.0027    0.0003 H         1 GTP         0.0809
     40 HO2'       -0.1563   -0.9855    2.0596 H         1 GTP         0.4385
     41 H1'         1.7826    1.9024    1.6451 H         1 GTP         0.0794
     42 H8         -0.1415    1.7265   -1.7082 H         1 GTP         0.3821
     43 HN21       -0.0303    6.7197    3.9559 H         1 GTP         0.4411
     44 HN22        0.9765    5.2967    4.1108 H         1 GTP         0.4411
     45 H45         1.1068    3.6990    2.5819 H         1 GTP         0.4819
     46 H46        -1.5877    3.7943   -1.9074 H         1 GTP         0.5182
@<TRIPOS>BOND
     1    1    2 2
     2    1    3 1
     3    1    4 1
     4    1    5 1
     5    4   33 1
     6    5    6 1
     7    6    7 2
     8    6    8 1
     9    6    9 1
    10    9   10 1
    11   10   11 2
    12   10   12 1
    13   10   13 1
    14   13   14 1
    15   14   15 1
    16   14   34 1
    17   14   35 1
    18   15   16 1
    19   15   17 1
    20   15   36 1
    21   16   21 1
    22   17   18 1
    23   17   19 1
    24   17   37 1
    25   18   38 1
    26   19   20 1
    27   19   21 1
    28   19   39 1
    29   20   40 1
    30   21   22 1
    31   21   41 1
    32   22   23 ar
    33   22   32 ar
    34   23   24 ar
    35   23   42 1
    36   24   25 ar
    37   24   46 1
    38   25   26 ar
    39   25   32 ar
    40   26   27 2
    41   26   28 ar
    42   28   29 ar
    43   29   30 1
    44   29   31 ar
    45   30   43 1
    46   30   44 1
    47   31   32 ar
    48   31   45 1
@<TRIPOS>SUBSTRUCTURE
     1 GTP         1 GROUP 0 A     ****
@<TRIPOS>MOLECULE
[[[5-(2-amino-6-oxo-7,8-dihydro-3~{H}-purin-8-ylium-9-yl)-3,4-dihydroxy-tetrahydrofuran-2-yl]methoxy-oxido-phosphoryl]oxy-oxido-phosphoryl] hydrogen phosphate
   46    48     1     0     0
SMALL
USER_CHARGES

@<TRIPOS>ATOM
      1 PG          0.2162    3.1774   -6.5717 P.3       1 GTP         1.5447
      2 O1G         1.0344    3.9213   -7.6035 O.co2     1 GTP        -0.8705
      3 O2G        -0.1506    1.7236   -6.7714 O.co2     1 GTP        -0.8705
      4 O3G        -1.1513    4.0226   -6.2866 O.3       1 GTP        -0.7914
      5 O3B         0.9215    3.3490   -5.1100 O.3       1 GTP        -0.8116
      6 PB          2.3529    2.7824   -4.5663 P.3       1 GTP         1.6738
      7 O1B         3.4432    3.2302   -5.5140 O.co2     1 GTP        -0.8763
      8 O2B         2.4477    3.0292   -3.0771 O.co2     1 GTP        -0.8763
      9 O3A         2.0898    1.1823   -4.7548 O.3       1 GTP        -0.8005
     10 PA          3.0675   -0.0857   -4.4293 P.3       1 GTP         1.5754
     11 O1A         2.3024   -1.3670   -4.6805 O.co2     1 GTP        -0.8771
     12 O2A         4.4130    0.1616   -5.0759 O.co2     1 GTP        -0.8771
     13 O5'         3.2903    0.1346   -2.8241 O.3       1 GTP        -0.5809
     14 C5'         2.2816   -0.2918   -1.9206 C.3       1 GTP         0.1986
     15 C4'         2.7248    0.0226   -0.4980 C.3       1 GTP         0.0418
     16 O4'         2.4697    1.4219   -0.2462 O.3       1 GTP        -0.3505
     17 C3'         1.9404   -0.7419    0.5596 C.3       1 GTP         0.0909
     18 O3'         2.7418   -0.8086    1.7389 O.3       1 GTP        -0.6187
     19 C2'         0.7477    0.1630    0.7858 C.3       1 GTP         0.0706
     20 O2'         0.1373   -0.0577    2.0407 O.3       1 GTP        -0.6294
     21 C1'         1.3733    1.5427    0.6747 C.3       1 GTP         0.3895
     22 N9          0.4520    2.5240    0.1767 N.pl3     1 GTP        -0.4733
     23 C8         -0.2136    2.5096   -0.9739 C.ar      1 GTP         0.2958
     24 N7         -0.9896    3.5820   -1.1212 N.pl3     1 GTP        -0.4933
     25 C5         -0.7962    4.3186    0.0156 C.ar      1 GTP        -0.1494
     26 C6         -1.3875    5.6031    0.4192 C.ar      1 GTP         0.7954
     27 O6         -2.1869    6.1731   -0.3158 O.2       1 GTP        -0.5729
     28 N1         -0.9745    6.0930    1.6597 N.2       1 GTP        -0.7443
     29 C2         -0.1105    5.4166    2.3900 C.ar      1 GTP         0.8831
     30 N2          0.3241    5.8571    3.6138 N.pl3     1 GTP        -0.9204
     31 N3          0.4444    4.2053    2.0072 N.pl3     1 GTP        -0.7173
     32 C4          0.0746    3.6889    0.8098 C.ar      1 GTP         0.2626
     33 HOG3       -1.7926    3.6672   -5.6348 H         1 GTP         0.4102
     34 H5'         1.3514    0.2330   -2.1577 H         1 GTP         0.0289
     35 H5''        2.1280   -1.3678   -2.0460 H         1 GTP         0.0289
     36 H4'         3.8044   -0.1397   -0.4040 H         1 GTP         0.2056
     37 H3'         1.6764   -1.7639    0.2728 H         1 GTP         0.1140
     38 HO3'        2.2232   -1.2979    2.3953 H         1 GTP         0.4287
     39 H2'        -0.0011    0.0027    0.0003 H         1 GTP         0.0809
     40 HO2'       -0.6141    0.5574    2.1082 H         1 GTP         0.4385
     41 H1'         1.7826    1.9024    1.6451 H         1 GTP         0.0794
     42 H8         -0.1415    1.7265   -1.7082 H         1 GTP         0.3821
     43 HN21       -0.0303    6.7197    3.9559 H         1 GTP         0.4411
     44 HN22        0.9765    5.2967    4.1108 H         1 GTP         0.4411
     45 H45         1.1068    3.6990    2.5819 H         1 GTP         0.4819
     46 H46        -1.5877    3.7943   -1.9074 H         1 GTP         0.5182
@<TRIPOS>BOND
     1    1    2 2
     2    1    3 1
     3    1    4 1
     4    1    5 1
     5    4   33 1
     6    5    6 1
     7    6    7 2
     8    6    8 1
     9    6    9 1
    10    9   10 1
    11   10   11 2
    12   10   12 1
    13   10   13 1
    14   13   14 1
    15   14   15 1
    16   14   34 1
    17   14   35 1
    18   15   16 1
    19   15   17 1
    20   15   36 1
    21   16   21 1
    22   17   18 1
    23   17   19 1
    24   17   37 1
    25   18   38 1
    26   19   20 1
    27   19   21 1
    28   19   39 1
    29   20   40 1
    30   21   22 1
    31   21   41 1
    32   22   23 ar
    33   22   32 ar
    34   23   24 ar
    35   23   42 1
    36   24   25 ar
    37   24   46 1
    38   25   26 ar
    39   25   32 ar
    40   26   27 2
    41   26   28 ar
    42   28   29 ar
    43   29   30 1
    44   29   31 ar
    45   30   43 1
    46   30   44 1
    47   31   32 ar
    48   31   45 1
@<TRIPOS>SUBSTRUCTURE
     1 GTP         1 GROUP 0 A     ****
@<TRIPOS>MOLECULE
[[[5-(2-amino-6-oxo-7,8-dihydro-3~{H}-purin-8-ylium-9-yl)-3,4-dihydroxy-tetrahydrofuran-2-yl]methoxy-oxido-phosphoryl]oxy-oxido-phosphoryl] hydrogen phosphate
   46    48     1     0     0
SMALL
USER_CHARGES

@<TRIPOS>ATOM
      1 PG          3.8116   -4.9688   -6.1134 P.3       1 GTP         1.5447
      2 O1G         4.4389   -5.9287   -5.1273 O.co2     1 GTP        -0.8705
      3 O2G         2.5562   -5.3419   -6.8701 O.co2     1 GTP        -0.8705
      4 O3G         4.9508   -4.5144   -7.1913 O.3       1 GTP        -0.7914
      5 O3B         3.5788   -3.5298   -5.3793 O.3       1 GTP        -0.8116
      6 PB          3.0816   -2.1054   -6.0036 P.3       1 GTP         1.6738
      7 O1B         4.1337   -1.6053   -6.9682 O.co2     1 GTP        -0.8763
      8 O2B         1.6291   -2.2243   -6.4080 O.co2     1 GTP        -0.8763
      9 O3A         3.1119   -1.1996   -4.6459 O.3       1 GTP        -0.8005
     10 PA          2.7407    0.3769   -4.4297 P.3       1 GTP         1.5754
     11 O1A         3.7274    1.2201   -5.2081 O.co2     1 GTP        -0.8771
     12 O2A         1.2486    0.5523   -4.6100 O.co2     1 GTP        -0.8771
     13 O5'         3.0213    0.5153   -2.8245 O.3       1 GTP        -0.5809
     14 C5'         2.2816   -0.2918   -1.9206 C.3       1 GTP         0.1986
     15 C4'         2.7248    0.0226   -0.4980 C.3       1 GTP         0.0418
     16 O4'         2.4697    1.4219   -0.2462 O.3       1 GTP        -0.3505
     17 C3'         1.9404   -0.7419    0.5596 C.3       1 GTP         0.0909
     18 O3'         2.7418   -0.8086    1.7389 O.3       1 GTP        -0.6187
     19 C2'         0.7477    0.1630    0.7858 C.3       1 GTP         0.0706
     20 O2'         0.1373   -0.0577    2.0407 O.3       1 GTP        -0.6294
     21 C1'         1.3733    1.5427    0.6747 C.3       1 GTP         0.3895
     22 N9          0.4520    2.5240    0.1767 N.pl3     1 GTP        -0.4733
     23 C8          0.2012    2.8401   -1.0899 C.ar      1 GTP         0.2958
     24 N7         -0.7168    3.7990   -1.1981 N.pl3     1 GTP        -0.4933
     25 C5         -1.0645    4.1043    0.0896 C.ar      1 GTP        -0.1494
     26 C6         -2.0336    5.0870    0.5973 C.ar      1 GTP         0.7954
     27 O6         -2.6730    5.7839   -0.1834 O.2       1 GTP        -0.5729
     28 N1         -2.1539    5.1517    1.9868 N.2       1 GTP        -0.7443
     29 C2         -1.4288    4.3650    2.7566 C.ar      1 GTP         0.8831
     30 N2         -1.5126    4.3922    4.1250 N.pl3     1 GTP        -0.9204
     31 N3         -0.5167    3.4388    2.2748 N.pl3     1 GTP        -0.7173
     32 C4         -0.3638    3.3392    0.9318 C.ar      1 GTP         0.2626
     33 HOG3        4.6975   -3.8875   -7.9019 H         1 GTP         0.4102
     34 H5'         1.2163   -0.0770   -2.0471 H         1 GTP         0.0289
     35 H5''        2.4655   -1.3443   -2.1563 H         1 GTP         0.0289
     36 H4'         3.8044   -0.1397   -0.4040 H         1 GTP         0.2056
     37 H3'         1.6764   -1.7639    0.2728 H         1 GTP         0.1140
     38 HO3'        2.2232   -1.2979    2.3953 H         1 GTP         0.4287
     39 H2'        -0.0011    0.0027    0.0003 H         1 GTP         0.0809
     40 HO2'       -0.6141    0.5574    2.1082 H         1 GTP         0.4385
     41 H1'         1.7826    1.9024    1.6451 H         1 GTP         0.0794
     42 H8          0.6787    2.3803   -1.9373 H         1 GTP         0.3821
     43 HN21       -2.1462    5.0320    4.5446 H         1 GTP         0.4411
     44 HN22       -0.9365    3.7712    4.6440 H         1 GTP         0.4411
     45 H45         0.0318    2.8419    2.8816 H         1 GTP         0.4819
     46 H46        -1.0718    4.2049   -2.0526 H         1 GTP         0.5182
@<TRIPOS>BOND
     1    1    2 2
     2    1    3 1
     3    1    4 1
     4    1    5 1
     5    4   33 1
     6    5    6 1
     7    6    7 2
     8    6    8 1
     9    6    9 1
    10    9   10 1
    11   10   11 2
    12   10   12 1
    13   10   13 1
    14   13   14 1
    15   14   15 1
    16   14   34 1
    17   14   35 1
    18   15   16 1
    19   15   17 1
    20   15   36 1
    21   16   21 1
    22   17   18 1
    23   17   19 1
    24   17   37 1
    25   18   38 1
    26   19   20 1
    27   19   21 1
    28   19   39 1
    29   20   40 1
    30   21   22 1
    31   21   41 1
    32   22   23 ar
    33   22   32 ar
    34   23   24 ar
    35   23   42 1
    36   24   25 ar
    37   24   46 1
    38   25   26 ar
    39   25   32 ar
    40   26   27 2
    41   26   28 ar
    42   28   29 ar
    43   29   30 1
    44   29   31 ar
    45   30   43 1
    46   30   44 1
    47   31   32 ar
    48   31   45 1
@<TRIPOS>SUBSTRUCTURE
     1 GTP         1 GROUP 0 A     ****
@<TRIPOS>MOLECULE
[[[5-(2-amino-6-oxo-7,8-dihydro-3~{H}-purin-8-ylium-9-yl)-3,4-dihydroxy-tetrahydrofuran-2-yl]methoxy-oxido-phosphoryl]oxy-oxido-phosphoryl] hydrogen phosphate
   46    48     1     0     0
SMALL
USER_CHARGES

@<TRIPOS>ATOM
      1 PG          4.1973   -3.6513   -7.8063 P.3       1 GTP         1.5447
      2 O1G         2.9598   -3.8408   -8.6548 O.co2     1 GTP        -0.8705
      3 O2G         5.4445   -3.0175   -8.3813 O.co2     1 GTP        -0.8705
      4 O3G         4.6024   -5.0909   -7.1510 O.3       1 GTP        -0.7914
      5 O3B         3.7870   -2.8638   -6.4369 O.3       1 GTP        -0.8116
      6 PB          3.2576   -1.3334   -6.2291 P.3       1 GTP         1.6738
      7 O1B         4.3664   -0.3801   -6.6154 O.co2     1 GTP        -0.8763
      8 O2B         1.8675   -1.2089   -6.8119 O.co2     1 GTP        -0.8763
      9 O3A         3.0809   -1.3355   -4.6062 O.3       1 GTP        -0.8005
     10 PA          2.1372   -2.2718   -3.6563 P.3       1 GTP         1.5754
     11 O1A         0.6864   -1.9828   -3.9759 O.co2     1 GTP        -0.8771
     12 O2A         2.6769   -3.6852   -3.6801 O.co2     1 GTP        -0.8771
     13 O5'         2.5245   -1.6648   -2.1878 O.3       1 GTP        -0.5809
     14 C5'         2.2816   -0.2918   -1.9206 C.3       1 GTP         0.1986
     15 C4'         2.7248    0.0226   -0.4980 C.3       1 GTP         0.0418
     16 O4'         2.4697    1.4219   -0.2462 O.3       1 GTP        -0.3505
     17 C3'         1.9404   -0.7419    0.5596 C.3       1 GTP         0.0909
     18 O3'         2.7418   -0.8086    1.7389 O.3       1 GTP        -0.6187
     19 C2'         0.7477    0.1630    0.7858 C.3       1 GTP         0.0706
     20 O2'         0.1373   -0.0577    2.0407 O.3       1 GTP        -0.6294
     21 C1'         1.3733    1.5427    0.6747 C.3       1 GTP         0.3895
     22 N9          0.4520    2.5240    0.1767 N.pl3     1 GTP        -0.4733
     23 C8          0.2012    2.8401   -1.0899 C.ar      1 GTP         0.2958
     24 N7         -0.7168    3.7990   -1.1981 N.pl3     1 GTP        -0.4933
     25 C5         -1.0645    4.1043    0.0896 C.ar      1 GTP        -0.1494
     26 C6         -2.0336    5.0870    0.5973 C.ar      1 GTP         0.7954
     27 O6         -2.6730    5.7839   -0.1834 O.2       1 GTP        -0.5729
     28 N1         -2.1539    5.1517    1.9868 N.2       1 GTP        -0.7443
     29 C2         -1.4288    4.3650    2.7566 C.ar      1 GTP         0.8831
     30 N2         -1.5126    4.3922    4.1250 N.pl3     1 GTP        -0.9204
     31 N3         -0.5167    3.4388    2.2748 N.pl3     1 GTP        -0.7173
     32 C4         -0.3638    3.3392    0.9318 C.ar      1 GTP         0.2626
     33 HOG3        5.3910   -5.1337   -6.5691 H         1 GTP         0.4102
     34 H5'         2.8432    0.3119   -2.6398 H         1 GTP         0.0289
     35 H5''        1.2128   -0.0927   -2.0428 H         1 GTP         0.0289
     36 H4'         3.8044   -0.1397   -0.4040 H         1 GTP         0.2056
     37 H3'         1.6764   -1.7639    0.2728 H         1 GTP         0.1140
     38 HO3'        2.2232   -1.2979    2.3953 H         1 GTP         0.4287
     39 H2'        -0.0011    0.0027    0.0003 H         1 GTP         0.0809
     40 HO2'       -0.6141    0.5574    2.1082 H         1 GTP         0.4385
     41 H1'         1.7826    1.9024    1.6451 H         1 GTP         0.0794
     42 H8          0.6787    2.3803   -1.9373 H         1 GTP         0.3821
     43 HN21       -2.1462    5.0320    4.5446 H         1 GTP         0.4411
     44 HN22       -0.9365    3.7712    4.6440 H         1 GTP         0.4411
     45 H45         0.0318    2.8419    2.8816 H         1 GTP         0.4819
     46 H46        -1.0718    4.2049   -2.0526 H         1 GTP         0.5182
@<TRIPOS>BOND
     1    1    2 2
     2    1    3 1
     3    1    4 1
     4    1    5 1
     5    4   33 1
     6    5    6 1
     7    6    7 2
     8    6    8 1
     9    6    9 1
    10    9   10 1
    11   10   11 2
    12   10   12 1
    13   10   13 1
    14   13   14 1
    15   14   15 1
    16   14   34 1
    17   14   35 1
    18   15   16 1
    19   15   17 1
    20   15   36 1
    21   16   21 1
    22   17   18 1
    23   17   19 1
    24   17   37 1
    25   18   38 1
    26   19   20 1
    27   19   21 1
    28   19   39 1
    29   20   40 1
    30   21   22 1
    31   21   41 1
    32   22   23 ar
    33   22   32 ar
    34   23   24 ar
    35   23   42 1
    36   24   25 ar
    37   24   46 1
    38   25   26 ar
    39   25   32 ar
    40   26   27 2
    41   26   28 ar
    42   28   29 ar
    43   29   30 1
    44   29   31 ar
    45   30   43 1
    46   30   44 1
    47   31   32 ar
    48   31   45 1
@<TRIPOS>SUBSTRUCTURE
     1 GTP         1 GROUP 0 A     ****
@<TRIPOS>MOLECULE
[[[5-(2-amino-6-oxo-7,8-dihydro-3~{H}-purin-8-ylium-9-yl)-3,4-dihydroxy-tetrahydrofuran-2-yl]methoxy-oxido-phosphoryl]oxy-oxido-phosphoryl] hydrogen phosphate
   46    48     1     0     0
SMALL
USER_CHARGES

@<TRIPOS>ATOM
      1 PG         -2.0860   -5.6355   -3.3226 P.3       1 GTP         1.5447
      2 O1G        -3.1494   -5.7320   -2.2515 O.co2     1 GTP        -0.8705
      3 O2G        -2.4616   -5.5521   -4.7854 O.co2     1 GTP        -0.8705
      4 O3G        -1.0381   -6.8721   -3.1261 O.3       1 GTP        -0.7914
      5 O3B        -1.0807   -4.4009   -2.9634 O.3       1 GTP        -0.8116
      6 PB         -1.3685   -2.7942   -2.9281 P.3       1 GTP         1.6738
      7 O1B        -1.6742   -2.3254   -4.3331 O.co2     1 GTP        -0.8763
      8 O2B        -2.2920   -2.4838   -1.7712 O.co2     1 GTP        -0.8763
      9 O3A         0.1148   -2.2721   -2.4897 O.3       1 GTP        -0.8005
     10 PA          1.5544   -2.4558   -3.2404 P.3       1 GTP         1.5754
     11 O1A         1.9037   -3.9280   -3.2692 O.co2     1 GTP        -0.8771
     12 O2A         1.5492   -1.6282   -4.5072 O.co2     1 GTP        -0.8771
     13 O5'         2.5245   -1.6648   -2.1878 O.3       1 GTP        -0.5809
     14 C5'         2.2816   -0.2918   -1.9206 C.3       1 GTP         0.1986
     15 C4'         2.7248    0.0226   -0.4980 C.3       1 GTP         0.0418
     16 O4'         2.4697    1.4219   -0.2462 O.3       1 GTP        -0.3505
     17 C3'         1.9404   -0.7419    0.5596 C.3       1 GTP         0.0909
     18 O3'         2.7418   -0.8086    1.7389 O.3       1 GTP        -0.6187
     19 C2'         0.7477    0.1630    0.7858 C.3       1 GTP         0.0706
     20 O2'         0.1373   -0.0577    2.0407 O.3       1 GTP        -0.6294
     21 C1'         1.3733    1.5427    0.6747 C.3       1 GTP         0.3895
     22 N9          0.4520    2.5240    0.1767 N.pl3     1 GTP        -0.4733
     23 C8          0.2012    2.8401   -1.0899 C.ar      1 GTP         0.2958
     24 N7         -0.7168    3.7990   -1.1981 N.pl3     1 GTP        -0.4933
     25 C5         -1.0645    4.1043    0.0896 C.ar      1 GTP        -0.1494
     26 C6         -2.0336    5.0870    0.5973 C.ar      1 GTP         0.7954
     27 O6         -2.6730    5.7839   -0.1834 O.2       1 GTP        -0.5729
     28 N1         -2.1539    5.1517    1.9868 N.2       1 GTP        -0.7443
     29 C2         -1.4288    4.3650    2.7566 C.ar      1 GTP         0.8831
     30 N2         -1.5126    4.3922    4.1250 N.pl3     1 GTP        -0.9204
     31 N3         -0.5167    3.4388    2.2748 N.pl3     1 GTP        -0.7173
     32 C4         -0.3638    3.3392    0.9318 C.ar      1 GTP         0.2626
     33 HOG3       -0.2843   -6.9488   -3.7490 H         1 GTP         0.4102
     34 H5'         2.8432    0.3119   -2.6398 H         1 GTP         0.0289
     35 H5''        1.2128   -0.0927   -2.0428 H         1 GTP         0.0289
     36 H4'         3.8044   -0.1397   -0.4040 H         1 GTP         0.2056
     37 H3'         1.6764   -1.7639    0.2728 H         1 GTP         0.1140
     38 HO3'        2.2232   -1.2979    2.3953 H         1 GTP         0.4287
     39 H2'        -0.0011    0.0027    0.0003 H         1 GTP         0.0809
     40 HO2'       -0.6141    0.5574    2.1082 H         1 GTP         0.4385
     41 H1'         1.7826    1.9024    1.6451 H         1 GTP         0.0794
     42 H8          0.6787    2.3803   -1.9373 H         1 GTP         0.3821
     43 HN21       -2.1462    5.0320    4.5446 H         1 GTP         0.4411
     44 HN22       -0.9365    3.7712    4.6440 H         1 GTP         0.4411
     45 H45         0.0318    2.8419    2.8816 H         1 GTP         0.4819
     46 H46        -1.0718    4.2049   -2.0526 H         1 GTP         0.5182
@<TRIPOS>BOND
     1    1    2 2
     2    1    3 1
     3    1    4 1
     4    1    5 1
     5    4   33 1
     6    5    6 1
     7    6    7 2
     8    6    8 1
     9    6    9 1
    10    9   10 1
    11   10   11 2
    12   10   12 1
    13   10   13 1
    14   13   14 1
    15   14   15 1
    16   14   34 1
    17   14   35 1
    18   15   16 1
    19   15   17 1
    20   15   36 1
    21   16   21 1
    22   17   18 1
    23   17   19 1
    24   17   37 1
    25   18   38 1
    26   19   20 1
    27   19   21 1
    28   19   39 1
    29   20   40 1
    30   21   22 1
    31   21   41 1
    32   22   23 ar
    33   22   32 ar
    34   23   24 ar
    35   23   42 1
    36   24   25 ar
    37   24   46 1
    38   25   26 ar
    39   25   32 ar
    40   26   27 2
    41   26   28 ar
    42   28   29 ar
    43   29   30 1
    44   29   31 ar
    45   30   43 1
    46   30   44 1
    47   31   32 ar
    48   31   45 1
@<TRIPOS>SUBSTRUCTURE
     1 GTP         1 GROUP 0 A     ****
@<TRIPOS>MOLECULE
[[[5-(2-amino-6-oxo-7,8-dihydro-3~{H}-purin-8-ylium-9-yl)-3,4-dihydroxy-tetrahydrofuran-2-yl]methoxy-oxido-phosphoryl]oxy-oxido-phosphoryl] hydrogen phosphate
   46    48     1     0     0
SMALL
USER_CHARGES

@<TRIPOS>ATOM
      1 PG         -2.7297   -2.0295   -5.4392 P.3       1 GTP         1.5447
      2 O1G        -2.8457   -3.4118   -6.0420 O.co2     1 GTP        -0.8705
      3 O2G        -3.9306   -1.3468   -4.8232 O.co2     1 GTP        -0.8705
      4 O3G        -2.0809   -1.0298   -6.5553 O.3       1 GTP        -0.7914
      5 O3B        -1.5054   -2.0217   -4.3599 O.3       1 GTP        -0.8116
      6 PB         -1.3685   -2.7942   -2.9281 P.3       1 GTP         1.6738
      7 O1B        -2.4024   -2.2365   -1.9755 O.co2     1 GTP        -0.8763
      8 O2B        -1.2435   -4.2804   -3.1793 O.co2     1 GTP        -0.8763
      9 O3A         0.1148   -2.2721   -2.4897 O.3       1 GTP        -0.8005
     10 PA          1.5544   -2.4558   -3.2404 P.3       1 GTP         1.5754
     11 O1A         1.9037   -3.9280   -3.2692 O.co2     1 GTP        -0.8771
     12 O2A         1.5492   -1.6282   -4.5072 O.co2     1 GTP        -0.8771
     13 O5'         2.5245   -1.6648   -2.1878 O.3       1 GTP        -0.5809
     14 C5'         2.2816   -0.2918   -1.9206 C.3       1 GTP         0.1986
     15 C4'         2.7248    0.0226   -0.4980 C.3       1 GTP         0.0418
     16 O4'         2.4697    1.4219   -0.2462 O.3       1 GTP        -0.3505
     17 C3'         1.9404   -0.7419    0.5596 C.3       1 GTP         0.0909
     18 O3'         2.7418   -0.8086    1.7389 O.3       1 GTP        -0.6187
     19 C2'         0.7477    0.1630    0.7858 C.3       1 GTP         0.0706
     20 O2'         0.1373   -0.0577    2.0407 O.3       1 GTP        -0.6294
     21 C1'         1.3733    1.5427    0.6747 C.3       1 GTP         0.3895
     22 N9          0.4520    2.5240    0.1767 N.pl3     1 GTP        -0.4733
     23 C8          0.2012    2.8401   -1.0899 C.ar      1 GTP         0.2958
     24 N7         -0.7168    3.7990   -1.1981 N.pl3     1 GTP        -0.4933
     25 C5         -1.0645    4.1043    0.0896 C.ar      1 GTP        -0.1494
     26 C6         -2.0336    5.0870    0.5973 C.ar      1 GTP         0.7954
     27 O6         -2.6730    5.7839   -0.1834 O.2       1 GTP        -0.5729
     28 N1         -2.1539    5.1517    1.9868 N.2       1 GTP        -0.7443
     29 C2         -1.4288    4.3650    2.7566 C.ar      1 GTP         0.8831
     30 N2         -1.5126    4.3922    4.1250 N.pl3     1 GTP        -0.9204
     31 N3         -0.5167    3.4388    2.2748 N.pl3     1 GTP        -0.7173
     32 C4         -0.3638    3.3392    0.9318 C.ar      1 GTP         0.2626
     33 HOG3       -1.9404   -0.0893   -6.3143 H         1 GTP         0.4102
     34 H5'         2.8432    0.3119   -2.6398 H         1 GTP         0.0289
     35 H5''        1.2128   -0.0927   -2.0428 H         1 GTP         0.0289
     36 H4'         3.8044   -0.1397   -0.4040 H         1 GTP         0.2056
     37 H3'         1.6764   -1.7639    0.2728 H         1 GTP         0.1140
     38 HO3'        2.2232   -1.2979    2.3953 H         1 GTP         0.4287
     39 H2'        -0.0011    0.0027    0.0003 H         1 GTP         0.0809
     40 HO2'       -0.6141    0.5574    2.1082 H         1 GTP         0.4385
     41 H1'         1.7826    1.9024    1.6451 H         1 GTP         0.0794
     42 H8          0.6787    2.3803   -1.9373 H         1 GTP         0.3821
     43 HN21       -2.1462    5.0320    4.5446 H         1 GTP         0.4411
     44 HN22       -0.9365    3.7712    4.6440 H         1 GTP         0.4411
     45 H45         0.0318    2.8419    2.8816 H         1 GTP         0.4819
     46 H46        -1.0718    4.2049   -2.0526 H         1 GTP         0.5182
@<TRIPOS>BOND
     1    1    2 2
     2    1    3 1
     3    1    4 1
     4    1    5 1
     5    4   33 1
     6    5    6 1
     7    6    7 2
     8    6    8 1
     9    6    9 1
    10    9   10 1
    11   10   11 2
    12   10   12 1
    13   10   13 1
    14   13   14 1
    15   14   15 1
    16   14   34 1
    17   14   35 1
    18   15   16 1
    19   15   17 1
    20   15   36 1
    21   16   21 1
    22   17   18 1
    23   17   19 1
    24   17   37 1
    25   18   38 1
    26   19   20 1
    27   19   21 1
    28   19   39 1
    29   20   40 1
    30   21   22 1
    31   21   41 1
    32   22   23 ar
    33   22   32 ar
    34   23   24 ar
    35   23   42 1
    36   24   25 ar
    37   24   46 1
    38   25   26 ar
    39   25   32 ar
    40   26   27 2
    41   26   28 ar
    42   28   29 ar
    43   29   30 1
    44   29   31 ar
    45   30   43 1
    46   30   44 1
    47   31   32 ar
    48   31   45 1
@<TRIPOS>SUBSTRUCTURE
     1 GTP         1 GROUP 0 A     ****
@<TRIPOS>MOLECULE
[[[5-(2-amino-6-oxo-7,8-dihydro-3~{H}-purin-8-ylium-9-yl)-3,4-dihydroxy-tetrahydrofuran-2-yl]methoxy-oxido-phosphoryl]oxy-oxido-phosphoryl] hydrogen phosphate
   46    48     1     0     0
SMALL
USER_CHARGES

@<TRIPOS>ATOM
      1 PG          7.0783    0.2295   -3.6879 P.3       1 GTP         1.5447
      2 O1G         7.0668    1.2410   -4.8123 O.co2     1 GTP        -0.8705
      3 O2G         6.1946    0.4073   -2.4734 O.co2     1 GTP        -0.8705
      4 O3G         8.6187    0.0319   -3.1838 O.3       1 GTP        -0.7914
      5 O3B         6.8295   -1.2588   -4.3098 O.3       1 GTP        -0.8116
      6 PB          5.5029   -1.8845   -5.0268 P.3       1 GTP         1.6738
      7 O1B         5.0944   -0.9776   -6.1663 O.co2     1 GTP        -0.8763
      8 O2B         5.7061   -3.3693   -5.2305 O.co2     1 GTP        -0.8763
      9 O3A         4.4413   -1.7265   -3.7968 O.3       1 GTP        -0.8005
     10 PA          2.8603   -2.1317   -3.7189 P.3       1 GTP         1.5754
     11 O1A         2.0908   -1.2810   -4.7060 O.co2     1 GTP        -0.8771
     12 O2A         2.7458   -3.6405   -3.7305 O.co2     1 GTP        -0.8771
     13 O5'         2.5245   -1.6648   -2.1878 O.3       1 GTP        -0.5809
     14 C5'         2.2816   -0.2918   -1.9206 C.3       1 GTP         0.1986
     15 C4'         2.7248    0.0226   -0.4980 C.3       1 GTP         0.0418
     16 O4'         2.4697    1.4219   -0.2462 O.3       1 GTP        -0.3505
     17 C3'         1.9404   -0.7419    0.5596 C.3       1 GTP         0.0909
     18 O3'         2.7418   -0.8086    1.7389 O.3       1 GTP        -0.6187
     19 C2'         0.7477    0.1630    0.7858 C.3       1 GTP         0.0706
     20 O2'         0.1373   -0.0577    2.0407 O.3       1 GTP        -0.6294
     21 C1'         1.3733    1.5427    0.6747 C.3       1 GTP         0.3895
     22 N9          0.4520    2.5240    0.1767 N.pl3     1 GTP        -0.4733
     23 C8          0.2012    2.8401   -1.0899 C.ar      1 GTP         0.2958
     24 N7         -0.7168    3.7990   -1.1981 N.pl3     1 GTP        -0.4933
     25 C5         -1.0645    4.1043    0.0896 C.ar      1 GTP        -0.1494
     26 C6         -2.0336    5.0870    0.5973 C.ar      1 GTP         0.7954
     27 O6         -2.6730    5.7839   -0.1834 O.2       1 GTP        -0.5729
     28 N1         -2.1539    5.1517    1.9868 N.2       1 GTP        -0.7443
     29 C2         -1.4288    4.3650    2.7566 C.ar      1 GTP         0.8831
     30 N2         -1.5126    4.3922    4.1250 N.pl3     1 GTP        -0.9204
     31 N3         -0.5167    3.4388    2.2748 N.pl3     1 GTP        -0.7173
     32 C4         -0.3638    3.3392    0.9318 C.ar      1 GTP         0.2626
     33 HOG3        8.7935   -0.5981   -2.4525 H         1 GTP         0.4102
     34 H5'         2.8432    0.3119   -2.6398 H         1 GTP         0.0289
     35 H5''        1.2128   -0.0927   -2.0428 H         1 GTP         0.0289
     36 H4'         3.8044   -0.1397   -0.4040 H         1 GTP         0.2056
     37 H3'         1.6764   -1.7639    0.2728 H         1 GTP         0.1140
     38 HO3'        2.2232   -1.2979    2.3953 H         1 GTP         0.4287
     39 H2'        -0.0011    0.0027    0.0003 H         1 GTP         0.0809
     40 HO2'       -0.6141    0.5574    2.1082 H         1 GTP         0.4385
     41 H1'         1.7826    1.9024    1.6451 H         1 GTP         0.0794
     42 H8          0.6787    2.3803   -1.9373 H         1 GTP         0.3821
     43 HN21       -2.1462    5.0320    4.5446 H         1 GTP         0.4411
     44 HN22       -0.9365    3.7712    4.6440 H         1 GTP         0.4411
     45 H45         0.0318    2.8419    2.8816 H         1 GTP         0.4819
     46 H46        -1.0718    4.2049   -2.0526 H         1 GTP         0.5182
@<TRIPOS>BOND
     1    1    2 2
     2    1    3 1
     3    1    4 1
     4    1    5 1
     5    4   33 1
     6    5    6 1
     7    6    7 2
     8    6    8 1
     9    6    9 1
    10    9   10 1
    11   10   11 2
    12   10   12 1
    13   10   13 1
    14   13   14 1
    15   14   15 1
    16   14   34 1
    17   14   35 1
    18   15   16 1
    19   15   17 1
    20   15   36 1
    21   16   21 1
    22   17   18 1
    23   17   19 1
    24   17   37 1
    25   18   38 1
    26   19   20 1
    27   19   21 1
    28   19   39 1
    29   20   40 1
    30   21   22 1
    31   21   41 1
    32   22   23 ar
    33   22   32 ar
    34   23   24 ar
    35   23   42 1
    36   24   25 ar
    37   24   46 1
    38   25   26 ar
    39   25   32 ar
    40   26   27 2
    41   26   28 ar
    42   28   29 ar
    43   29   30 1
    44   29   31 ar
    45   30   43 1
    46   30   44 1
    47   31   32 ar
    48   31   45 1
@<TRIPOS>SUBSTRUCTURE
     1 GTP         1 GROUP 0 A     ****
@<TRIPOS>MOLECULE
[[[5-(2-amino-6-oxo-7,8-dihydro-3~{H}-purin-8-ylium-9-yl)-3,4-dihydroxy-tetrahydrofuran-2-yl]methoxy-oxido-phosphoryl]oxy-oxido-phosphoryl] hydrogen phosphate
   46    48     1     0     0
SMALL
USER_CHARGES

@<TRIPOS>ATOM
      1 PG          5.6048    4.5917   -4.5475 P.3       1 GTP         1.5447
      2 O1G         5.0599    5.9841   -4.7749 O.co2     1 GTP        -0.8705
      3 O2G         6.5563    4.3060   -3.4070 O.co2     1 GTP        -0.8705
      4 O3G         6.2876    4.0690   -5.9355 O.3       1 GTP        -0.7914
      5 O3B         4.3595    3.5394   -4.4738 O.3       1 GTP        -0.8116
      6 PB          3.1773    3.3946   -3.3571 P.3       1 GTP         1.6738
      7 O1B         3.7991    2.9724   -2.0446 O.co2     1 GTP        -0.8763
      8 O2B         2.2617    4.5949   -3.4495 O.co2     1 GTP        -0.8763
      9 O3A         2.3599    2.1376   -4.0025 O.3       1 GTP        -0.8005
     10 PA          2.8621    0.6170   -4.3270 P.3       1 GTP         1.5754
     11 O1A         1.6809   -0.1909   -4.8193 O.co2     1 GTP        -0.8771
     12 O2A         4.1462    0.6908   -5.1241 O.co2     1 GTP        -0.8771
     13 O5'         3.2903    0.1346   -2.8241 O.3       1 GTP        -0.5809
     14 C5'         2.2816   -0.2918   -1.9206 C.3       1 GTP         0.1986
     15 C4'         2.7248    0.0226   -0.4980 C.3       1 GTP         0.0418
     16 O4'         2.4697    1.4219   -0.2462 O.3       1 GTP        -0.3505
     17 C3'         1.9404   -0.7419    0.5596 C.3       1 GTP         0.0909
     18 O3'         2.7418   -0.8086    1.7389 O.3       1 GTP        -0.6187
     19 C2'         0.7477    0.1630    0.7858 C.3       1 GTP         0.0706
     20 O2'         0.1373   -0.0577    2.0407 O.3       1 GTP        -0.6294
     21 C1'         1.3733    1.5427    0.6747 C.3       1 GTP         0.3895
     22 N9          0.4520    2.5240    0.1767 N.pl3     1 GTP        -0.4733
     23 C8          0.2012    2.8401   -1.0899 C.ar      1 GTP         0.2958
     24 N7         -0.7168    3.7990   -1.1981 N.pl3     1 GTP        -0.4933
     25 C5         -1.0645    4.1043    0.0896 C.ar      1 GTP        -0.1494
     26 C6         -2.0336    5.0870    0.5973 C.ar      1 GTP         0.7954
     27 O6         -2.6730    5.7839   -0.1834 O.2       1 GTP        -0.5729
     28 N1         -2.1539    5.1517    1.9868 N.2       1 GTP        -0.7443
     29 C2         -1.4288    4.3650    2.7566 C.ar      1 GTP         0.8831
     30 N2         -1.5126    4.3922    4.1250 N.pl3     1 GTP        -0.9204
     31 N3         -0.5167    3.4388    2.2748 N.pl3     1 GTP        -0.7173
     32 C4         -0.3638    3.3392    0.9318 C.ar      1 GTP         0.2626
     33 HOG3        6.6898    3.1744   -5.9500 H         1 GTP         0.4102
     34 H5'         1.3514    0.2330   -2.1577 H         1 GTP         0.0289
     35 H5''        2.1280   -1.3678   -2.0460 H         1 GTP         0.0289
     36 H4'         3.8044   -0.1397   -0.4040 H         1 GTP         0.2056
     37 H3'         1.6764   -1.7639    0.2728 H         1 GTP         0.1140
     38 HO3'        2.2232   -1.2979    2.3953 H         1 GTP         0.4287
     39 H2'        -0.0011    0.0027    0.0003 H         1 GTP         0.0809
     40 HO2'       -0.6141    0.5574    2.1082 H         1 GTP         0.4385
     41 H1'         1.7826    1.9024    1.6451 H         1 GTP         0.0794
     42 H8          0.6787    2.3803   -1.9373 H         1 GTP         0.3821
     43 HN21       -2.1462    5.0320    4.5446 H         1 GTP         0.4411
     44 HN22       -0.9365    3.7712    4.6440 H         1 GTP         0.4411
     45 H45         0.0318    2.8419    2.8816 H         1 GTP         0.4819
     46 H46        -1.0718    4.2049   -2.0526 H         1 GTP         0.5182
@<TRIPOS>BOND
     1    1    2 2
     2    1    3 1
     3    1    4 1
     4    1    5 1
     5    4   33 1
     6    5    6 1
     7    6    7 2
     8    6    8 1
     9    6    9 1
    10    9   10 1
    11   10   11 2
    12   10   12 1
    13   10   13 1
    14   13   14 1
    15   14   15 1
    16   14   34 1
    17   14   35 1
    18   15   16 1
    19   15   17 1
    20   15   36 1
    21   16   21 1
    22   17   18 1
    23   17   19 1
    24   17   37 1
    25   18   38 1
    26   19   20 1
    27   19   21 1
    28   19   39 1
    29   20   40 1
    30   21   22 1
    31   21   41 1
    32   22   23 ar
    33   22   32 ar
    34   23   24 ar
    35   23   42 1
    36   24   25 ar
    37   24   46 1
    38   25   26 ar
    39   25   32 ar
    40   26   27 2
    41   26   28 ar
    42   28   29 ar
    43   29   30 1
    44   29   31 ar
    45   30   43 1
    46   30   44 1
    47   31   32 ar
    48   31   45 1
@<TRIPOS>SUBSTRUCTURE
     1 GTP         1 GROUP 0 A     ****
@<TRIPOS>MOLECULE
[[[5-(2-amino-6-oxo-7,8-dihydro-3~{H}-purin-8-ylium-9-yl)-3,4-dihydroxy-tetrahydrofuran-2-yl]methoxy-oxido-phosphoryl]oxy-oxido-phosphoryl] hydrogen phosphate
   46    48     1     0     0
SMALL
USER_CHARGES

@<TRIPOS>ATOM
      1 PG          0.5297    2.6759   -8.0623 P.3       1 GTP         1.5447
      2 O1G         0.6298    1.6141   -9.1347 O.co2     1 GTP        -0.8705
      3 O2G        -0.7284    3.4994   -7.8988 O.co2     1 GTP        -0.8705
      4 O3G         1.7979    3.6923   -8.2188 O.3       1 GTP        -0.7914
      5 O3B         0.9199    2.0146   -6.6221 O.3       1 GTP        -0.8116
      6 PB          0.1391    0.8790   -5.7466 P.3       1 GTP         1.6738
      7 O1B        -1.1864    1.4459   -5.2892 O.co2     1 GTP        -0.8763
      8 O2B         0.2261   -0.4469   -6.4691 O.co2     1 GTP        -0.8763
      9 O3A         1.1584    0.7817   -4.4753 O.3       1 GTP        -0.8005
     10 PA          2.7407    0.3769   -4.4297 P.3       1 GTP         1.5754
     11 O1A         2.8866   -1.0655   -4.8640 O.co2     1 GTP        -0.8771
     12 O2A         3.5415    1.4776   -5.0906 O.co2     1 GTP        -0.8771
     13 O5'         3.0213    0.5153   -2.8245 O.3       1 GTP        -0.5809
     14 C5'         2.2816   -0.2918   -1.9206 C.3       1 GTP         0.1986
     15 C4'         2.7248    0.0226   -0.4980 C.3       1 GTP         0.0418
     16 O4'         2.4697    1.4219   -0.2462 O.3       1 GTP        -0.3505
     17 C3'         1.9404   -0.7419    0.5596 C.3       1 GTP         0.0909
     18 O3'         2.7418   -0.8086    1.7389 O.3       1 GTP        -0.6187
     19 C2'         0.7477    0.1630    0.7858 C.3       1 GTP         0.0706
     20 O2'         0.1373   -0.0577    2.0407 O.3       1 GTP        -0.6294
     21 C1'         1.3733    1.5427    0.6747 C.3       1 GTP         0.3895
     22 N9          0.4520    2.5240    0.1767 N.pl3     1 GTP        -0.4733
     23 C8         -0.6872    2.9292    0.7291 C.ar      1 GTP         0.2958
     24 N7         -1.2991    3.8596   -0.0015 N.pl3     1 GTP        -0.4933
     25 C5         -0.4870    4.0499   -1.0861 C.ar      1 GTP        -0.1494
     26 C6         -0.6427    4.9562   -2.2336 C.ar      1 GTP         0.7954
     27 O6         -1.6219    5.6904   -2.3123 O.2       1 GTP        -0.5729
     28 N1          0.3798    4.9069   -3.1832 N.2       1 GTP        -0.7443
     29 C2          1.4004    4.0885   -3.0226 C.ar      1 GTP         0.8831
     30 N2          2.4275    4.0052   -3.9273 N.pl3     1 GTP        -0.9204
     31 N3          1.5448    3.2359   -1.9390 N.pl3     1 GTP        -0.7173
     32 C4          0.5769    3.2470   -0.9903 C.ar      1 GTP         0.2626
     33 HOG3        1.8759    4.4418   -7.5907 H         1 GTP         0.4102
     34 H5'         1.2163   -0.0770   -2.0471 H         1 GTP         0.0289
     35 H5''        2.4655   -1.3443   -2.1563 H         1 GTP         0.0289
     36 H4'         3.8044   -0.1397   -0.4040 H         1 GTP         0.2056
     37 H3'         1.6764   -1.7639    0.2728 H         1 GTP         0.1140
     38 HO3'        2.2232   -1.2979    2.3953 H         1 GTP         0.4287
     39 H2'        -0.0011    0.0027    0.0003 H         1 GTP         0.0809
     40 HO2'       -0.1563   -0.9855    2.0596 H         1 GTP         0.4385
     41 H1'         1.7826    1.9024    1.6451 H         1 GTP         0.0794
     42 H8         -1.0786    2.5555    1.6591 H         1 GTP         0.3821
     43 HN21        2.3939    4.5871   -4.7317 H         1 GTP         0.4411
     44 HN22        3.1656    3.3663   -3.7434 H         1 GTP         0.4411
     45 H45         2.3366    2.6138   -1.8319 H         1 GTP         0.4819
     46 H46        -2.1740    4.3186    0.2105 H         1 GTP         0.5182
@<TRIPOS>BOND
     1    1    2 2
     2    1    3 1
     3    1    4 1
     4    1    5 1
     5    4   33 1
     6    5    6 1
     7    6    7 2
     8    6    8 1
     9    6    9 1
    10    9   10 1
    11   10   11 2
    12   10   12 1
    13   10   13 1
    14   13   14 1
    15   14   15 1
    16   14   34 1
    17   14   35 1
    18   15   16 1
    19   15   17 1
    20   15   36 1
    21   16   21 1
    22   17   18 1
    23   17   19 1
    24   17   37 1
    25   18   38 1
    26   19   20 1
    27   19   21 1
    28   19   39 1
    29   20   40 1
    30   21   22 1
    31   21   41 1
    32   22   23 ar
    33   22   32 ar
    34   23   24 ar
    35   23   42 1
    36   24   25 ar
    37   24   46 1
    38   25   26 ar
    39   25   32 ar
    40   26   27 2
    41   26   28 ar
    42   28   29 ar
    43   29   30 1
    44   29   31 ar
    45   30   43 1
    46   30   44 1
    47   31   32 ar
    48   31   45 1
@<TRIPOS>SUBSTRUCTURE
     1 GTP         1 GROUP 0 A     ****
@<TRIPOS>MOLECULE
[[[5-(2-amino-6-oxo-7,8-dihydro-3~{H}-purin-8-ylium-9-yl)-3,4-dihydroxy-tetrahydrofuran-2-yl]methoxy-oxido-phosphoryl]oxy-oxido-phosphoryl] hydrogen phosphate
   46    48     1     0     0
SMALL
USER_CHARGES

@<TRIPOS>ATOM
      1 PG          1.8969   -3.4804   -7.4159 P.3       1 GTP         1.5447
      2 O1G         2.8323   -4.5936   -6.9996 O.co2     1 GTP        -0.8705
      3 O2G         0.4494   -3.7653   -7.7495 O.co2     1 GTP        -0.8705
      4 O3G         2.5697   -2.6792   -8.6694 O.3       1 GTP        -0.7914
      5 O3B         1.9584   -2.2901   -6.3009 O.3       1 GTP        -0.8116
      6 PB          1.2796   -0.8054   -6.3174 P.3       1 GTP         1.6738
      7 O1B         1.9127    0.0049   -7.4265 O.co2     1 GTP        -0.8763
      8 O2B        -0.2215   -0.9479   -6.1989 O.co2     1 GTP        -0.8763
      9 O3A         1.8086   -0.2594   -4.8729 O.3       1 GTP        -0.8005
     10 PA          3.3343   -0.0514   -4.3264 P.3       1 GTP         1.5754
     11 O1A         4.0106   -1.4028   -4.2454 O.co2     1 GTP        -0.8771
     12 O2A         3.9675    1.0961   -5.0826 O.co2     1 GTP        -0.8771
     13 O5'         3.0213    0.5153   -2.8245 O.3       1 GTP        -0.5809
     14 C5'         2.2816   -0.2918   -1.9206 C.3       1 GTP         0.1986
     15 C4'         2.7248    0.0226   -0.4980 C.3       1 GTP         0.0418
     16 O4'         2.4697    1.4219   -0.2462 O.3       1 GTP        -0.3505
     17 C3'         1.9404   -0.7419    0.5596 C.3       1 GTP         0.0909
     18 O3'         2.7418   -0.8086    1.7389 O.3       1 GTP        -0.6187
     19 C2'         0.7477    0.1630    0.7858 C.3       1 GTP         0.0706
     20 O2'         0.1373   -0.0577    2.0407 O.3       1 GTP        -0.6294
     21 C1'         1.3733    1.5427    0.6747 C.3       1 GTP         0.3895
     22 N9          0.4520    2.5240    0.1767 N.pl3     1 GTP        -0.4733
     23 C8          0.2012    2.8401   -1.0899 C.ar      1 GTP         0.2958
     24 N7         -0.7168    3.7990   -1.1981 N.pl3     1 GTP        -0.4933
     25 C5         -1.0645    4.1043    0.0896 C.ar      1 GTP        -0.1494
     26 C6         -2.0336    5.0870    0.5973 C.ar      1 GTP         0.7954
     27 O6         -2.6730    5.7839   -0.1834 O.2       1 GTP        -0.5729
     28 N1         -2.1539    5.1517    1.9868 N.2       1 GTP        -0.7443
     29 C2         -1.4288    4.3650    2.7566 C.ar      1 GTP         0.8831
     30 N2         -1.5126    4.3922    4.1250 N.pl3     1 GTP        -0.9204
     31 N3         -0.5167    3.4388    2.2748 N.pl3     1 GTP        -0.7173
     32 C4         -0.3638    3.3392    0.9318 C.ar      1 GTP         0.2626
     33 HOG3        2.0804   -1.9222   -9.0564 H         1 GTP         0.4102
     34 H5'         1.2163   -0.0770   -2.0471 H         1 GTP         0.0289
     35 H5''        2.4655   -1.3443   -2.1563 H         1 GTP         0.0289
     36 H4'         3.8044   -0.1397   -0.4040 H         1 GTP         0.2056
     37 H3'         1.6764   -1.7639    0.2728 H         1 GTP         0.1140
     38 HO3'        2.2232   -1.2979    2.3953 H         1 GTP         0.4287
     39 H2'        -0.0011    0.0027    0.0003 H         1 GTP         0.0809
     40 HO2'       -0.6141    0.5574    2.1082 H         1 GTP         0.4385
     41 H1'         1.7826    1.9024    1.6451 H         1 GTP         0.0794
     42 H8          0.6787    2.3803   -1.9373 H         1 GTP         0.3821
     43 HN21       -2.1462    5.0320    4.5446 H         1 GTP         0.4411
     44 HN22       -0.9365    3.7712    4.6440 H         1 GTP         0.4411
     45 H45         0.0318    2.8419    2.8816 H         1 GTP         0.4819
     46 H46        -1.0718    4.2049   -2.0526 H         1 GTP         0.5182
@<TRIPOS>BOND
     1    1    2 2
     2    1    3 1
     3    1    4 1
     4    1    5 1
     5    4   33 1
     6    5    6 1
     7    6    7 2
     8    6    8 1
     9    6    9 1
    10    9   10 1
    11   10   11 2
    12   10   12 1
    13   10   13 1
    14   13   14 1
    15   14   15 1
    16   14   34 1
    17   14   35 1
    18   15   16 1
    19   15   17 1
    20   15   36 1
    21   16   21 1
    22   17   18 1
    23   17   19 1
    24   17   37 1
    25   18   38 1
    26   19   20 1
    27   19   21 1
    28   19   39 1
    29   20   40 1
    30   21   22 1
    31   21   41 1
    32   22   23 ar
    33   22   32 ar
    34   23   24 ar
    35   23   42 1
    36   24   25 ar
    37   24   46 1
    38   25   26 ar
    39   25   32 ar
    40   26   27 2
    41   26   28 ar
    42   28   29 ar
    43   29   30 1
    44   29   31 ar
    45   30   43 1
    46   30   44 1
    47   31   32 ar
    48   31   45 1
@<TRIPOS>SUBSTRUCTURE
     1 GTP         1 GROUP 0 A     ****
@<TRIPOS>MOLECULE
[[[5-(2-amino-6-oxo-7,8-dihydro-3~{H}-purin-8-ylium-9-yl)-3,4-dihydroxy-tetrahydrofuran-2-yl]methoxy-oxido-phosphoryl]oxy-oxido-phosphoryl] hydrogen phosphate
   46    48     1     0     0
SMALL
USER_CHARGES

@<TRIPOS>ATOM
      1 PG          4.7582   -4.3329   -2.5917 P.3       1 GTP         1.5447
      2 O1G         4.1968   -3.3506   -1.5880 O.co2     1 GTP        -0.8705
      3 O2G         3.8847   -5.4076   -3.1997 O.co2     1 GTP        -0.8705
      4 O3G         6.0765   -5.0430   -1.9409 O.3       1 GTP        -0.7914
      5 O3B         5.4912   -3.5051   -3.7922 O.3       1 GTP        -0.8116
      6 PB          4.8510   -2.5203   -4.9260 P.3       1 GTP         1.6738
      7 O1B         5.9780   -1.8933   -5.7160 O.co2     1 GTP        -0.8763
      8 O2B         3.7062   -3.2341   -5.6099 O.co2     1 GTP        -0.8763
      9 O3A         4.1796   -1.3979   -3.9491 O.3       1 GTP        -0.8005
     10 PA          3.3343   -0.0514   -4.3264 P.3       1 GTP         1.5754
     11 O1A         4.2455    0.9036   -5.0666 O.co2     1 GTP        -0.8771
     12 O2A         1.9982   -0.4643   -4.9043 O.co2     1 GTP        -0.8771
     13 O5'         3.0213    0.5153   -2.8245 O.3       1 GTP        -0.5809
     14 C5'         2.2816   -0.2918   -1.9206 C.3       1 GTP         0.1986
     15 C4'         2.7248    0.0226   -0.4980 C.3       1 GTP         0.0418
     16 O4'         2.4697    1.4219   -0.2462 O.3       1 GTP        -0.3505
     17 C3'         1.9404   -0.7419    0.5596 C.3       1 GTP         0.0909
     18 O3'         2.7418   -0.8086    1.7389 O.3       1 GTP        -0.6187
     19 C2'         0.7477    0.1630    0.7858 C.3       1 GTP         0.0706
     20 O2'         0.1373   -0.0577    2.0407 O.3       1 GTP        -0.6294
     21 C1'         1.3733    1.5427    0.6747 C.3       1 GTP         0.3895
     22 N9          0.4520    2.5240    0.1767 N.pl3     1 GTP        -0.4733
     23 C8          0.2012    2.8401   -1.0899 C.ar      1 GTP         0.2958
     24 N7         -0.7168    3.7990   -1.1981 N.pl3     1 GTP        -0.4933
     25 C5         -1.0645    4.1043    0.0896 C.ar      1 GTP        -0.1494
     26 C6         -2.0336    5.0870    0.5973 C.ar      1 GTP         0.7954
     27 O6         -2.6730    5.7839   -0.1834 O.2       1 GTP        -0.5729
     28 N1         -2.1539    5.1517    1.9868 N.2       1 GTP        -0.7443
     29 C2         -1.4288    4.3650    2.7566 C.ar      1 GTP         0.8831
     30 N2         -1.5126    4.3922    4.1250 N.pl3     1 GTP        -0.9204
     31 N3         -0.5167    3.4388    2.2748 N.pl3     1 GTP        -0.7173
     32 C4         -0.3638    3.3392    0.9318 C.ar      1 GTP         0.2626
     33 HOG3        6.5579   -5.7113   -2.4738 H         1 GTP         0.4102
     34 H5'         1.2163   -0.0770   -2.0471 H         1 GTP         0.0289
     35 H5''        2.4655   -1.3443   -2.1563 H         1 GTP         0.0289
     36 H4'         3.8044   -0.1397   -0.4040 H         1 GTP         0.2056
     37 H3'         1.6764   -1.7639    0.2728 H         1 GTP         0.1140
     38 HO3'        3.5554   -1.2733    1.4914 H         1 GTP         0.4287
     39 H2'        -0.0011    0.0027    0.0003 H         1 GTP         0.0809
     40 HO2'       -0.6141    0.5574    2.1082 H         1 GTP         0.4385
     41 H1'         1.7826    1.9024    1.6451 H         1 GTP         0.0794
     42 H8          0.6787    2.3803   -1.9373 H         1 GTP         0.3821
     43 HN21       -2.1462    5.0320    4.5446 H         1 GTP         0.4411
     44 HN22       -0.9365    3.7712    4.6440 H         1 GTP         0.4411
     45 H45         0.0318    2.8419    2.8816 H         1 GTP         0.4819
     46 H46        -1.0718    4.2049   -2.0526 H         1 GTP         0.5182
@<TRIPOS>BOND
     1    1    2 2
     2    1    3 1
     3    1    4 1
     4    1    5 1
     5    4   33 1
     6    5    6 1
     7    6    7 2
     8    6    8 1
     9    6    9 1
    10    9   10 1
    11   10   11 2
    12   10   12 1
    13   10   13 1
    14   13   14 1
    15   14   15 1
    16   14   34 1
    17   14   35 1
    18   15   16 1
    19   15   17 1
    20   15   36 1
    21   16   21 1
    22   17   18 1
    23   17   19 1
    24   17   37 1
    25   18   38 1
    26   19   20 1
    27   19   21 1
    28   19   39 1
    29   20   40 1
    30   21   22 1
    31   21   41 1
    32   22   23 ar
    33   22   32 ar
    34   23   24 ar
    35   23   42 1
    36   24   25 ar
    37   24   46 1
    38   25   26 ar
    39   25   32 ar
    40   26   27 2
    41   26   28 ar
    42   28   29 ar
    43   29   30 1
    44   29   31 ar
    45   30   43 1
    46   30   44 1
    47   31   32 ar
    48   31   45 1
@<TRIPOS>SUBSTRUCTURE
     1 GTP         1 GROUP 0 A     ****
@<TRIPOS>MOLECULE
[[[5-(2-amino-6-oxo-7,8-dihydro-3~{H}-purin-8-ylium-9-yl)-3,4-dihydroxy-tetrahydrofuran-2-yl]methoxy-oxido-phosphoryl]oxy-oxido-phosphoryl] hydrogen phosphate
   46    48     1     0     0
SMALL
USER_CHARGES

@<TRIPOS>ATOM
      1 PG         -1.0183    1.9917   -6.8611 P.3       1 GTP         1.5447
      2 O1G        -2.1897    2.7458   -6.2723 O.co2     1 GTP        -0.8705
      3 O2G        -0.3383    2.4744   -8.1230 O.co2     1 GTP        -0.8705
      4 O3G        -1.4582    0.4336   -7.0728 O.3       1 GTP        -0.7914
      5 O3B         0.1100    1.7742   -5.7022 O.3       1 GTP        -0.8116
      6 PB          1.0423    2.8705   -4.9312 P.3       1 GTP         1.6738
      7 O1B         1.9862    3.4953   -5.9342 O.co2     1 GTP        -0.8763
      8 O2B         0.1680    3.7169   -4.0330 O.co2     1 GTP        -0.8763
      9 O3A         1.8750    1.8640   -3.9522 O.3       1 GTP        -0.8005
     10 PA          2.8621    0.6170   -4.3270 P.3       1 GTP         1.5754
     11 O1A         2.0475   -0.4600   -5.0101 O.co2     1 GTP        -0.8771
     12 O2A         4.1194    1.1687   -4.9631 O.co2     1 GTP        -0.8771
     13 O5'         3.2903    0.1346   -2.8241 O.3       1 GTP        -0.5809
     14 C5'         2.2816   -0.2918   -1.9206 C.3       1 GTP         0.1986
     15 C4'         2.7248    0.0226   -0.4980 C.3       1 GTP         0.0418
     16 O4'         2.4697    1.4219   -0.2462 O.3       1 GTP        -0.3505
     17 C3'         1.9404   -0.7419    0.5596 C.3       1 GTP         0.0909
     18 O3'         2.7418   -0.8086    1.7389 O.3       1 GTP        -0.6187
     19 C2'         0.7477    0.1630    0.7858 C.3       1 GTP         0.0706
     20 O2'         0.1373   -0.0577    2.0407 O.3       1 GTP        -0.6294
     21 C1'         1.3733    1.5427    0.6747 C.3       1 GTP         0.3895
     22 N9          0.4520    2.5240    0.1767 N.pl3     1 GTP        -0.4733
     23 C8         -0.2136    2.5096   -0.9739 C.ar      1 GTP         0.2958
     24 N7         -0.9896    3.5820   -1.1212 N.pl3     1 GTP        -0.4933
     25 C5         -0.7962    4.3186    0.0156 C.ar      1 GTP        -0.1494
     26 C6         -1.3875    5.6031    0.4192 C.ar      1 GTP         0.7954
     27 O6         -2.1869    6.1731   -0.3158 O.2       1 GTP        -0.5729
     28 N1         -0.9745    6.0930    1.6597 N.2       1 GTP        -0.7443
     29 C2         -0.1105    5.4166    2.3900 C.ar      1 GTP         0.8831
     30 N2          0.3241    5.8571    3.6138 N.pl3     1 GTP        -0.9204
     31 N3          0.4444    4.2053    2.0072 N.pl3     1 GTP        -0.7173
     32 C4          0.0746    3.6889    0.8098 C.ar      1 GTP         0.2626
     33 HOG3       -0.8014   -0.1898   -7.4500 H         1 GTP         0.4102
     34 H5'         1.3514    0.2330   -2.1577 H         1 GTP         0.0289
     35 H5''        2.1280   -1.3678   -2.0460 H         1 GTP         0.0289
     36 H4'         3.8044   -0.1397   -0.4040 H         1 GTP         0.2056
     37 H3'         1.6764   -1.7639    0.2728 H         1 GTP         0.1140
     38 HO3'        2.2232   -1.2979    2.3953 H         1 GTP         0.4287
     39 H2'        -0.0011    0.0027    0.0003 H         1 GTP         0.0809
     40 HO2'       -0.6141    0.5574    2.1082 H         1 GTP         0.4385
     41 H1'         1.7826    1.9024    1.6451 H         1 GTP         0.0794
     42 H8         -0.1415    1.7265   -1.7082 H         1 GTP         0.3821
     43 HN21       -0.0303    6.7197    3.9559 H         1 GTP         0.4411
     44 HN22        0.9765    5.2967    4.1108 H         1 GTP         0.4411
     45 H45         1.1068    3.6990    2.5819 H         1 GTP         0.4819
     46 H46        -1.5877    3.7943   -1.9074 H         1 GTP         0.5182
@<TRIPOS>BOND
     1    1    2 2
     2    1    3 1
     3    1    4 1
     4    1    5 1
     5    4   33 1
     6    5    6 1
     7    6    7 2
     8    6    8 1
     9    6    9 1
    10    9   10 1
    11   10   11 2
    12   10   12 1
    13   10   13 1
    14   13   14 1
    15   14   15 1
    16   14   34 1
    17   14   35 1
    18   15   16 1
    19   15   17 1
    20   15   36 1
    21   16   21 1
    22   17   18 1
    23   17   19 1
    24   17   37 1
    25   18   38 1
    26   19   20 1
    27   19   21 1
    28   19   39 1
    29   20   40 1
    30   21   22 1
    31   21   41 1
    32   22   23 ar
    33   22   32 ar
    34   23   24 ar
    35   23   42 1
    36   24   25 ar
    37   24   46 1
    38   25   26 ar
    39   25   32 ar
    40   26   27 2
    41   26   28 ar
    42   28   29 ar
    43   29   30 1
    44   29   31 ar
    45   30   43 1
    46   30   44 1
    47   31   32 ar
    48   31   45 1
@<TRIPOS>SUBSTRUCTURE
     1 GTP         1 GROUP 0 A     ****
@<TRIPOS>MOLECULE
[[[5-(2-amino-6-oxo-7,8-dihydro-3~{H}-purin-8-ylium-9-yl)-3,4-dihydroxy-tetrahydrofuran-2-yl]methoxy-oxido-phosphoryl]oxy-oxido-phosphoryl] hydrogen phosphate
   46    48     1     0     0
SMALL
USER_CHARGES

@<TRIPOS>ATOM
      1 PG         -2.0927    0.3203   -4.3783 P.3       1 GTP         1.5447
      2 O1G        -3.2767    0.8975   -3.6351 O.co2     1 GTP        -0.8705
      3 O2G        -2.2884   -0.6872   -5.4893 O.co2     1 GTP        -0.8705
      4 O3G        -1.0511   -0.3061   -3.2881 O.3       1 GTP        -0.7914
      5 O3B        -1.1647    1.5438   -4.9312 O.3       1 GTP        -0.8116
      6 PB          0.2960    1.5021   -5.6594 P.3       1 GTP         1.6738
      7 O1B         0.2147    0.5817   -6.8568 O.co2     1 GTP        -0.8763
      8 O2B         0.8275    2.9130   -5.7799 O.co2     1 GTP        -0.8763
      9 O3A         1.1584    0.7817   -4.4753 O.3       1 GTP        -0.8005
     10 PA          2.7407    0.3769   -4.4297 P.3       1 GTP         1.5754
     11 O1A         2.8866   -1.0655   -4.8640 O.co2     1 GTP        -0.8771
     12 O2A         3.5415    1.4776   -5.0906 O.co2     1 GTP        -0.8771
     13 O5'         3.0213    0.5153   -2.8245 O.3       1 GTP        -0.5809
     14 C5'         2.2816   -0.2918   -1.9206 C.3       1 GTP         0.1986
     15 C4'         2.7248    0.0226   -0.4980 C.3       1 GTP         0.0418
     16 O4'         2.4697    1.4219   -0.2462 O.3       1 GTP        -0.3505
     17 C3'         1.9404   -0.7419    0.5596 C.3       1 GTP         0.0909
     18 O3'         2.7418   -0.8086    1.7389 O.3       1 GTP        -0.6187
     19 C2'         0.7477    0.1630    0.7858 C.3       1 GTP         0.0706
     20 O2'         0.1373   -0.0577    2.0407 O.3       1 GTP        -0.6294
     21 C1'         1.3733    1.5427    0.6747 C.3       1 GTP         0.3895
     22 N9          0.4520    2.5240    0.1767 N.pl3     1 GTP        -0.4733
     23 C8          0.2012    2.8401   -1.0899 C.ar      1 GTP         0.2958
     24 N7         -0.7168    3.7990   -1.1981 N.pl3     1 GTP        -0.4933
     25 C5         -1.0645    4.1043    0.0896 C.ar      1 GTP        -0.1494
     26 C6         -2.0336    5.0870    0.5973 C.ar      1 GTP         0.7954
     27 O6         -2.6730    5.7839   -0.1834 O.2       1 GTP        -0.5729
     28 N1         -2.1539    5.1517    1.9868 N.2       1 GTP        -0.7443
     29 C2         -1.4288    4.3650    2.7566 C.ar      1 GTP         0.8831
     30 N2         -1.5126    4.3922    4.1250 N.pl3     1 GTP        -0.9204
     31 N3         -0.5167    3.4388    2.2748 N.pl3     1 GTP        -0.7173
     32 C4         -0.3638    3.3392    0.9318 C.ar      1 GTP         0.2626
     33 HOG3       -0.2254   -0.7216   -3.6164 H         1 GTP         0.4102
     34 H5'         1.2163   -0.0770   -2.0471 H         1 GTP         0.0289
     35 H5''        2.4655   -1.3443   -2.1563 H         1 GTP         0.0289
     36 H4'         3.8044   -0.1397   -0.4040 H         1 GTP         0.2056
     37 H3'         1.6764   -1.7639    0.2728 H         1 GTP         0.1140
     38 HO3'        2.2232   -1.2979    2.3953 H         1 GTP         0.4287
     39 H2'        -0.0011    0.0027    0.0003 H         1 GTP         0.0809
     40 HO2'       -0.1563   -0.9855    2.0596 H         1 GTP         0.4385
     41 H1'         1.7826    1.9024    1.6451 H         1 GTP         0.0794
     42 H8          0.6787    2.3803   -1.9373 H         1 GTP         0.3821
     43 HN21       -2.1462    5.0320    4.5446 H         1 GTP         0.4411
     44 HN22       -0.9365    3.7712    4.6440 H         1 GTP         0.4411
     45 H45         0.0318    2.8419    2.8816 H         1 GTP         0.4819
     46 H46        -1.0718    4.2049   -2.0526 H         1 GTP         0.5182
@<TRIPOS>BOND
     1    1    2 2
     2    1    3 1
     3    1    4 1
     4    1    5 1
     5    4   33 1
     6    5    6 1
     7    6    7 2
     8    6    8 1
     9    6    9 1
    10    9   10 1
    11   10   11 2
    12   10   12 1
    13   10   13 1
    14   13   14 1
    15   14   15 1
    16   14   34 1
    17   14   35 1
    18   15   16 1
    19   15   17 1
    20   15   36 1
    21   16   21 1
    22   17   18 1
    23   17   19 1
    24   17   37 1
    25   18   38 1
    26   19   20 1
    27   19   21 1
    28   19   39 1
    29   20   40 1
    30   21   22 1
    31   21   41 1
    32   22   23 ar
    33   22   32 ar
    34   23   24 ar
    35   23   42 1
    36   24   25 ar
    37   24   46 1
    38   25   26 ar
    39   25   32 ar
    40   26   27 2
    41   26   28 ar
    42   28   29 ar
    43   29   30 1
    44   29   31 ar
    45   30   43 1
    46   30   44 1
    47   31   32 ar
    48   31   45 1
@<TRIPOS>SUBSTRUCTURE
     1 GTP         1 GROUP 0 A     ****
@<TRIPOS>MOLECULE
[[[5-(2-amino-6-oxo-7,8-dihydro-3~{H}-purin-8-ylium-9-yl)-3,4-dihydroxy-tetrahydrofuran-2-yl]methoxy-oxido-phosphoryl]oxy-oxido-phosphoryl] hydrogen phosphate
   46    48     1     0     0
SMALL
USER_CHARGES

@<TRIPOS>ATOM
      1 PG          1.3872    4.0546   -4.6408 P.3       1 GTP         1.5447
      2 O1G         0.0730    4.7215   -4.3006 O.co2     1 GTP        -0.8705
      3 O2G         2.2721    3.4823   -3.5559 O.co2     1 GTP        -0.8705
      4 O3G         2.2744    5.0868   -5.5427 O.3       1 GTP        -0.7914
      5 O3B         1.1232    2.9054   -5.7692 O.3       1 GTP        -0.8116
      6 PB          0.2960    1.5021   -5.6594 P.3       1 GTP         1.6738
      7 O1B        -1.0996    1.8000   -5.1582 O.co2     1 GTP        -0.8763
      8 O2B         0.5303    0.6918   -6.9148 O.co2     1 GTP        -0.8763
      9 O3A         1.1584    0.7817   -4.4753 O.3       1 GTP        -0.8005
     10 PA          2.7407    0.3769   -4.4297 P.3       1 GTP         1.5754
     11 O1A         2.8866   -1.0655   -4.8640 O.co2     1 GTP        -0.8771
     12 O2A         3.5415    1.4776   -5.0906 O.co2     1 GTP        -0.8771
     13 O5'         3.0213    0.5153   -2.8245 O.3       1 GTP        -0.5809
     14 C5'         2.2816   -0.2918   -1.9206 C.3       1 GTP         0.1986
     15 C4'         2.7248    0.0226   -0.4980 C.3       1 GTP         0.0418
     16 O4'         2.4697    1.4219   -0.2462 O.3       1 GTP        -0.3505
     17 C3'         1.9404   -0.7419    0.5596 C.3       1 GTP         0.0909
     18 O3'         2.7418   -0.8086    1.7389 O.3       1 GTP        -0.6187
     19 C2'         0.7477    0.1630    0.7858 C.3       1 GTP         0.0706
     20 O2'         0.1373   -0.0577    2.0407 O.3       1 GTP        -0.6294
     21 C1'         1.3733    1.5427    0.6747 C.3       1 GTP         0.3895
     22 N9          0.4520    2.5240    0.1767 N.pl3     1 GTP        -0.4733
     23 C8          0.2012    2.8401   -1.0899 C.ar      1 GTP         0.2958
     24 N7         -0.7168    3.7990   -1.1981 N.pl3     1 GTP        -0.4933
     25 C5         -1.0645    4.1043    0.0896 C.ar      1 GTP        -0.1494
     26 C6         -2.0336    5.0870    0.5973 C.ar      1 GTP         0.7954
     27 O6         -2.6730    5.7839   -0.1834 O.2       1 GTP        -0.5729
     28 N1         -2.1539    5.1517    1.9868 N.2       1 GTP        -0.7443
     29 C2         -1.4288    4.3650    2.7566 C.ar      1 GTP         0.8831
     30 N2         -1.5126    4.3922    4.1250 N.pl3     1 GTP        -0.9204
     31 N3         -0.5167    3.4388    2.2748 N.pl3     1 GTP        -0.7173
     32 C4         -0.3638    3.3392    0.9318 C.ar      1 GTP         0.2626
     33 HOG3        3.1616    4.7981   -5.8456 H         1 GTP         0.4102
     34 H5'         1.2163   -0.0770   -2.0471 H         1 GTP         0.0289
     35 H5''        2.4655   -1.3443   -2.1563 H         1 GTP         0.0289
     36 H4'         3.8044   -0.1397   -0.4040 H         1 GTP         0.2056
     37 H3'         1.6764   -1.7639    0.2728 H         1 GTP         0.1140
     38 HO3'        2.2232   -1.2979    2.3953 H         1 GTP         0.4287
     39 H2'        -0.0011    0.0027    0.0003 H         1 GTP         0.0809
     40 HO2'       -0.6141    0.5574    2.1082 H         1 GTP         0.4385
     41 H1'         1.7826    1.9024    1.6451 H         1 GTP         0.0794
     42 H8          0.6787    2.3803   -1.9373 H         1 GTP         0.3821
     43 HN21       -2.1462    5.0320    4.5446 H         1 GTP         0.4411
     44 HN22       -0.9365    3.7712    4.6440 H         1 GTP         0.4411
     45 H45         0.0318    2.8419    2.8816 H         1 GTP         0.4819
     46 H46        -1.0718    4.2049   -2.0526 H         1 GTP         0.5182
@<TRIPOS>BOND
     1    1    2 2
     2    1    3 1
     3    1    4 1
     4    1    5 1
     5    4   33 1
     6    5    6 1
     7    6    7 2
     8    6    8 1
     9    6    9 1
    10    9   10 1
    11   10   11 2
    12   10   12 1
    13   10   13 1
    14   13   14 1
    15   14   15 1
    16   14   34 1
    17   14   35 1
    18   15   16 1
    19   15   17 1
    20   15   36 1
    21   16   21 1
    22   17   18 1
    23   17   19 1
    24   17   37 1
    25   18   38 1
    26   19   20 1
    27   19   21 1
    28   19   39 1
    29   20   40 1
    30   21   22 1
    31   21   41 1
    32   22   23 ar
    33   22   32 ar
    34   23   24 ar
    35   23   42 1
    36   24   25 ar
    37   24   46 1
    38   25   26 ar
    39   25   32 ar
    40   26   27 2
    41   26   28 ar
    42   28   29 ar
    43   29   30 1
    44   29   31 ar
    45   30   43 1
    46   30   44 1
    47   31   32 ar
    48   31   45 1
@<TRIPOS>SUBSTRUCTURE
     1 GTP         1 GROUP 0 A     ****
@<TRIPOS>MOLECULE
[[[5-(2-amino-6-oxo-7,8-dihydro-3~{H}-purin-8-ylium-9-yl)-3,4-dihydroxy-tetrahydrofuran-2-yl]methoxy-oxido-phosphoryl]oxy-oxido-phosphoryl] hydrogen phosphate
   46    48     1     0     0
SMALL
USER_CHARGES

@<TRIPOS>ATOM
      1 PG          4.5237    4.2830   -5.9003 P.3       1 GTP         1.5447
      2 O1G         5.7262    3.8769   -6.7227 O.co2     1 GTP        -0.8705
      3 O2G         3.5869    5.3703   -6.3777 O.co2     1 GTP        -0.8705
      4 O3G         5.0285    4.6583   -4.3936 O.3       1 GTP        -0.7914
      5 O3B         3.6501    2.9514   -5.5432 O.3       1 GTP        -0.8116
      6 PB          2.3529    2.7824   -4.5663 P.3       1 GTP         1.6738
      7 O1B         2.7792    3.0599   -3.1420 O.co2     1 GTP        -0.8763
      8 O2B         1.1700    3.4884   -5.1906 O.co2     1 GTP        -0.8763
      9 O3A         2.0898    1.1823   -4.7548 O.3       1 GTP        -0.8005
     10 PA          3.0675   -0.0857   -4.4293 P.3       1 GTP         1.5754
     11 O1A         2.3024   -1.3670   -4.6805 O.co2     1 GTP        -0.8771
     12 O2A         4.4130    0.1616   -5.0759 O.co2     1 GTP        -0.8771
     13 O5'         3.2903    0.1346   -2.8241 O.3       1 GTP        -0.5809
     14 C5'         2.2816   -0.2918   -1.9206 C.3       1 GTP         0.1986
     15 C4'         2.7248    0.0226   -0.4980 C.3       1 GTP         0.0418
     16 O4'         2.4697    1.4219   -0.2462 O.3       1 GTP        -0.3505
     17 C3'         1.9404   -0.7419    0.5596 C.3       1 GTP         0.0909
     18 O3'         2.7418   -0.8086    1.7389 O.3       1 GTP        -0.6187
     19 C2'         0.7477    0.1630    0.7858 C.3       1 GTP         0.0706
     20 O2'         0.1373   -0.0577    2.0407 O.3       1 GTP        -0.6294
     21 C1'         1.3733    1.5427    0.6747 C.3       1 GTP         0.3895
     22 N9          0.4520    2.5240    0.1767 N.pl3     1 GTP        -0.4733
     23 C8          0.2012    2.8401   -1.0899 C.ar      1 GTP         0.2958
     24 N7         -0.7168    3.7990   -1.1981 N.pl3     1 GTP        -0.4933
     25 C5         -1.0645    4.1043    0.0896 C.ar      1 GTP        -0.1494
     26 C6         -2.0336    5.0870    0.5973 C.ar      1 GTP         0.7954
     27 O6         -2.6730    5.7839   -0.1834 O.2       1 GTP        -0.5729
     28 N1         -2.1539    5.1517    1.9868 N.2       1 GTP        -0.7443
     29 C2         -1.4288    4.3650    2.7566 C.ar      1 GTP         0.8831
     30 N2         -1.5126    4.3922    4.1250 N.pl3     1 GTP        -0.9204
     31 N3         -0.5167    3.4388    2.2748 N.pl3     1 GTP        -0.7173
     32 C4         -0.3638    3.3392    0.9318 C.ar      1 GTP         0.2626
     33 HOG3        4.3600    4.9435   -3.7347 H         1 GTP         0.4102
     34 H5'         1.3514    0.2330   -2.1577 H         1 GTP         0.0289
     35 H5''        2.1280   -1.3678   -2.0460 H         1 GTP         0.0289
     36 H4'         3.8044   -0.1397   -0.4040 H         1 GTP         0.2056
     37 H3'         1.6764   -1.7639    0.2728 H         1 GTP         0.1140
     38 HO3'        2.2232   -1.2979    2.3953 H         1 GTP         0.4287
     39 H2'        -0.0011    0.0027    0.0003 H         1 GTP         0.0809
     40 HO2'       -0.6141    0.5574    2.1082 H         1 GTP         0.4385
     41 H1'         1.7826    1.9024    1.6451 H         1 GTP         0.0794
     42 H8          0.6787    2.3803   -1.9373 H         1 GTP         0.3821
     43 HN21       -2.1462    5.0320    4.5446 H         1 GTP         0.4411
     44 HN22       -0.9365    3.7712    4.6440 H         1 GTP         0.4411
     45 H45         0.0318    2.8419    2.8816 H         1 GTP         0.4819
     46 H46        -1.0718    4.2049   -2.0526 H         1 GTP         0.5182
@<TRIPOS>BOND
     1    1    2 2
     2    1    3 1
     3    1    4 1
     4    1    5 1
     5    4   33 1
     6    5    6 1
     7    6    7 2
     8    6    8 1
     9    6    9 1
    10    9   10 1
    11   10   11 2
    12   10   12 1
    13   10   13 1
    14   13   14 1
    15   14   15 1
    16   14   34 1
    17   14   35 1
    18   15   16 1
    19   15   17 1
    20   15   36 1
    21   16   21 1
    22   17   18 1
    23   17   19 1
    24   17   37 1
    25   18   38 1
    26   19   20 1
    27   19   21 1
    28   19   39 1
    29   20   40 1
    30   21   22 1
    31   21   41 1
    32   22   23 ar
    33   22   32 ar
    34   23   24 ar
    35   23   42 1
    36   24   25 ar
    37   24   46 1
    38   25   26 ar
    39   25   32 ar
    40   26   27 2
    41   26   28 ar
    42   28   29 ar
    43   29   30 1
    44   29   31 ar
    45   30   43 1
    46   30   44 1
    47   31   32 ar
    48   31   45 1
@<TRIPOS>SUBSTRUCTURE
     1 GTP         1 GROUP 0 A     ****
@<TRIPOS>MOLECULE
[[[5-(2-amino-6-oxo-7,8-dihydro-3~{H}-purin-8-ylium-9-yl)-3,4-dihydroxy-tetrahydrofuran-2-yl]methoxy-oxido-phosphoryl]oxy-oxido-phosphoryl] hydrogen phosphate
   46    48     1     0     0
SMALL
USER_CHARGES

@<TRIPOS>ATOM
      1 PG          5.0555    0.4901   -7.7075 P.3       1 GTP         1.5447
      2 O1G         3.9773    0.8892   -8.6902 O.co2     1 GTP        -0.8705
      3 O2G         6.1258    1.4725   -7.2867 O.co2     1 GTP        -0.8705
      4 O3G         5.7824   -0.8647   -8.2571 O.3       1 GTP        -0.7914
      5 O3B         4.3532   -0.1313   -6.3718 O.3       1 GTP        -0.8116
      6 PB          3.2576   -1.3334   -6.2291 P.3       1 GTP         1.6738
      7 O1B         1.9649   -0.8906   -6.8774 O.co2     1 GTP        -0.8763
      8 O2B         3.9157   -2.6462   -6.5909 O.co2     1 GTP        -0.8763
      9 O3A         3.0809   -1.3355   -4.6062 O.3       1 GTP        -0.8005
     10 PA          2.1372   -2.2718   -3.6563 P.3       1 GTP         1.5754
     11 O1A         0.6864   -1.9828   -3.9759 O.co2     1 GTP        -0.8771
     12 O2A         2.6769   -3.6852   -3.6801 O.co2     1 GTP        -0.8771
     13 O5'         2.5245   -1.6648   -2.1878 O.3       1 GTP        -0.5809
     14 C5'         2.2816   -0.2918   -1.9206 C.3       1 GTP         0.1986
     15 C4'         2.7248    0.0226   -0.4980 C.3       1 GTP         0.0418
     16 O4'         2.4697    1.4219   -0.2462 O.3       1 GTP        -0.3505
     17 C3'         1.9404   -0.7419    0.5596 C.3       1 GTP         0.0909
     18 O3'         2.7418   -0.8086    1.7389 O.3       1 GTP        -0.6187
     19 C2'         0.7477    0.1630    0.7858 C.3       1 GTP         0.0706
     20 O2'         0.1373   -0.0577    2.0407 O.3       1 GTP        -0.6294
     21 C1'         1.3733    1.5427    0.6747 C.3       1 GTP         0.3895
     22 N9          0.4520    2.5240    0.1767 N.pl3     1 GTP        -0.4733
     23 C8          0.2012    2.8401   -1.0899 C.ar      1 GTP         0.2958
     24 N7         -0.7168    3.7990   -1.1981 N.pl3     1 GTP        -0.4933
     25 C5         -1.0645    4.1043    0.0896 C.ar      1 GTP        -0.1494
     26 C6         -2.0336    5.0870    0.5973 C.ar      1 GTP         0.7954
     27 O6         -2.6730    5.7839   -0.1834 O.2       1 GTP        -0.5729
     28 N1         -2.1539    5.1517    1.9868 N.2       1 GTP        -0.7443
     29 C2         -1.4288    4.3650    2.7566 C.ar      1 GTP         0.8831
     30 N2         -1.5126    4.3922    4.1250 N.pl3     1 GTP        -0.9204
     31 N3         -0.5167    3.4388    2.2748 N.pl3     1 GTP        -0.7173
     32 C4         -0.3638    3.3392    0.9318 C.ar      1 GTP         0.2626
     33 HOG3        6.5102   -1.2524   -7.7258 H         1 GTP         0.4102
     34 H5'         2.8432    0.3119   -2.6398 H         1 GTP         0.0289
     35 H5''        1.2128   -0.0927   -2.0428 H         1 GTP         0.0289
     36 H4'         3.8044   -0.1397   -0.4040 H         1 GTP         0.2056
     37 H3'         1.6764   -1.7639    0.2728 H         1 GTP         0.1140
     38 HO3'        2.2232   -1.2979    2.3953 H         1 GTP         0.4287
     39 H2'        -0.0011    0.0027    0.0003 H         1 GTP         0.0809
     40 HO2'       -0.6141    0.5574    2.1082 H         1 GTP         0.4385
     41 H1'         1.7826    1.9024    1.6451 H         1 GTP         0.0794
     42 H8          0.6787    2.3803   -1.9373 H         1 GTP         0.3821
     43 HN21       -2.1462    5.0320    4.5446 H         1 GTP         0.4411
     44 HN22       -0.9365    3.7712    4.6440 H         1 GTP         0.4411
     45 H45         0.0318    2.8419    2.8816 H         1 GTP         0.4819
     46 H46        -1.0718    4.2049   -2.0526 H         1 GTP         0.5182
@<TRIPOS>BOND
     1    1    2 2
     2    1    3 1
     3    1    4 1
     4    1    5 1
     5    4   33 1
     6    5    6 1
     7    6    7 2
     8    6    8 1
     9    6    9 1
    10    9   10 1
    11   10   11 2
    12   10   12 1
    13   10   13 1
    14   13   14 1
    15   14   15 1
    16   14   34 1
    17   14   35 1
    18   15   16 1
    19   15   17 1
    20   15   36 1
    21   16   21 1
    22   17   18 1
    23   17   19 1
    24   17   37 1
    25   18   38 1
    26   19   20 1
    27   19   21 1
    28   19   39 1
    29   20   40 1
    30   21   22 1
    31   21   41 1
    32   22   23 ar
    33   22   32 ar
    34   23   24 ar
    35   23   42 1
    36   24   25 ar
    37   24   46 1
    38   25   26 ar
    39   25   32 ar
    40   26   27 2
    41   26   28 ar
    42   28   29 ar
    43   29   30 1
    44   29   31 ar
    45   30   43 1
    46   30   44 1
    47   31   32 ar
    48   31   45 1
@<TRIPOS>SUBSTRUCTURE
     1 GTP         1 GROUP 0 A     ****
@<TRIPOS>MOLECULE
[[[5-(2-amino-6-oxo-7,8-dihydro-3~{H}-purin-8-ylium-9-yl)-3,4-dihydroxy-tetrahydrofuran-2-yl]methoxy-oxido-phosphoryl]oxy-oxido-phosphoryl] hydrogen phosphate
   46    48     1     0     0
SMALL
USER_CHARGES

@<TRIPOS>ATOM
      1 PG          2.4432   -5.6481   -5.5370 P.3       1 GTP         1.5447
      2 O1G         1.0333   -5.7842   -6.0672 O.co2     1 GTP        -0.8705
      3 O2G         3.6348   -6.0087   -6.3959 O.co2     1 GTP        -0.8705
      4 O3G         2.5501   -6.4705   -4.1306 O.3       1 GTP        -0.7914
      5 O3B         2.6484   -4.1371   -4.9553 O.3       1 GTP        -0.8116
      6 PB          2.6728   -2.7073   -5.7432 P.3       1 GTP         1.6738
      7 O1B         3.8808   -2.6756   -6.6529 O.co2     1 GTP        -0.8763
      8 O2B         1.2840   -2.4054   -6.2605 O.co2     1 GTP        -0.8763
      9 O3A         2.9205   -1.7124   -4.4729 O.3       1 GTP        -0.8005
     10 PA          3.0675   -0.0857   -4.4293 P.3       1 GTP         1.5754
     11 O1A         4.3144    0.3107   -5.1899 O.co2     1 GTP        -0.8771
     12 O2A         1.7243    0.5309   -4.7535 O.co2     1 GTP        -0.8771
     13 O5'         3.2903    0.1346   -2.8241 O.3       1 GTP        -0.5809
     14 C5'         2.2816   -0.2918   -1.9206 C.3       1 GTP         0.1986
     15 C4'         2.7248    0.0226   -0.4980 C.3       1 GTP         0.0418
     16 O4'         2.4697    1.4219   -0.2462 O.3       1 GTP        -0.3505
     17 C3'         1.9404   -0.7419    0.5596 C.3       1 GTP         0.0909
     18 O3'         2.7418   -0.8086    1.7389 O.3       1 GTP        -0.6187
     19 C2'         0.7477    0.1630    0.7858 C.3       1 GTP         0.0706
     20 O2'         0.1373   -0.0577    2.0407 O.3       1 GTP        -0.6294
     21 C1'         1.3733    1.5427    0.6747 C.3       1 GTP         0.3895
     22 N9          0.4520    2.5240    0.1767 N.pl3     1 GTP        -0.4733
     23 C8          0.2012    2.8401   -1.0899 C.ar      1 GTP         0.2958
     24 N7         -0.7168    3.7990   -1.1981 N.pl3     1 GTP        -0.4933
     25 C5         -1.0645    4.1043    0.0896 C.ar      1 GTP        -0.1494
     26 C6         -2.0336    5.0870    0.5973 C.ar      1 GTP         0.7954
     27 O6         -2.6730    5.7839   -0.1834 O.2       1 GTP        -0.5729
     28 N1         -2.1539    5.1517    1.9868 N.2       1 GTP        -0.7443
     29 C2         -1.4288    4.3650    2.7566 C.ar      1 GTP         0.8831
     30 N2         -1.5126    4.3922    4.1250 N.pl3     1 GTP        -0.9204
     31 N3         -0.5167    3.4388    2.2748 N.pl3     1 GTP        -0.7173
     32 C4         -0.3638    3.3392    0.9318 C.ar      1 GTP         0.2626
     33 HOG3        3.4099   -6.4783   -3.6584 H         1 GTP         0.4102
     34 H5'         1.3514    0.2330   -2.1577 H         1 GTP         0.0289
     35 H5''        2.1280   -1.3678   -2.0460 H         1 GTP         0.0289
     36 H4'         3.8044   -0.1397   -0.4040 H         1 GTP         0.2056
     37 H3'         1.6764   -1.7639    0.2728 H         1 GTP         0.1140
     38 HO3'        2.2232   -1.2979    2.3953 H         1 GTP         0.4287
     39 H2'        -0.0011    0.0027    0.0003 H         1 GTP         0.0809
     40 HO2'       -0.6141    0.5574    2.1082 H         1 GTP         0.4385
     41 H1'         1.7826    1.9024    1.6451 H         1 GTP         0.0794
     42 H8          0.6787    2.3803   -1.9373 H         1 GTP         0.3821
     43 HN21       -2.1462    5.0320    4.5446 H         1 GTP         0.4411
     44 HN22       -0.9365    3.7712    4.6440 H         1 GTP         0.4411
     45 H45         0.0318    2.8419    2.8816 H         1 GTP         0.4819
     46 H46        -1.0718    4.2049   -2.0526 H         1 GTP         0.5182
@<TRIPOS>BOND
     1    1    2 2
     2    1    3 1
     3    1    4 1
     4    1    5 1
     5    4   33 1
     6    5    6 1
     7    6    7 2
     8    6    8 1
     9    6    9 1
    10    9   10 1
    11   10   11 2
    12   10   12 1
    13   10   13 1
    14   13   14 1
    15   14   15 1
    16   14   34 1
    17   14   35 1
    18   15   16 1
    19   15   17 1
    20   15   36 1
    21   16   21 1
    22   17   18 1
    23   17   19 1
    24   17   37 1
    25   18   38 1
    26   19   20 1
    27   19   21 1
    28   19   39 1
    29   20   40 1
    30   21   22 1
    31   21   41 1
    32   22   23 ar
    33   22   32 ar
    34   23   24 ar
    35   23   42 1
    36   24   25 ar
    37   24   46 1
    38   25   26 ar
    39   25   32 ar
    40   26   27 2
    41   26   28 ar
    42   28   29 ar
    43   29   30 1
    44   29   31 ar
    45   30   43 1
    46   30   44 1
    47   31   32 ar
    48   31   45 1
@<TRIPOS>SUBSTRUCTURE
     1 GTP         1 GROUP 0 A     ****
@<TRIPOS>MOLECULE
[[[5-(2-amino-6-oxo-7,8-dihydro-3~{H}-purin-8-ylium-9-yl)-3,4-dihydroxy-tetrahydrofuran-2-yl]methoxy-oxido-phosphoryl]oxy-oxido-phosphoryl] hydrogen phosphate
   46    48     1     0     0
SMALL
USER_CHARGES

@<TRIPOS>ATOM
      1 PG          6.5320   -3.8105   -5.2354 P.3       1 GTP         1.5447
      2 O1G         7.4783   -3.2820   -6.2902 O.co2     1 GTP        -0.8705
      3 O2G         7.0282   -4.1566   -3.8491 O.co2     1 GTP        -0.8705
      4 O3G         5.7486   -5.1072   -5.8443 O.3       1 GTP        -0.7914
      5 O3B         5.2618   -2.7942   -5.1041 O.3       1 GTP        -0.8116
      6 PB          5.2054   -1.2550   -4.5625 P.3       1 GTP         1.6738
      7 O1B         5.5480   -1.2466   -3.0894 O.co2     1 GTP        -0.8763
      8 O2B         5.9227   -0.3589   -5.5474 O.co2     1 GTP        -0.8763
      9 O3A         3.6096   -0.9687   -4.7528 O.3       1 GTP        -0.8005
     10 PA          2.7407    0.3769   -4.4297 P.3       1 GTP         1.5754
     11 O1A         3.3568    1.5435   -5.1712 O.co2     1 GTP        -0.8771
     12 O2A         1.2702    0.0493   -4.5704 O.co2     1 GTP        -0.8771
     13 O5'         3.0213    0.5153   -2.8245 O.3       1 GTP        -0.5809
     14 C5'         2.2816   -0.2918   -1.9206 C.3       1 GTP         0.1986
     15 C4'         2.7248    0.0226   -0.4980 C.3       1 GTP         0.0418
     16 O4'         2.4697    1.4219   -0.2462 O.3       1 GTP        -0.3505
     17 C3'         1.9404   -0.7419    0.5596 C.3       1 GTP         0.0909
     18 O3'         2.7418   -0.8086    1.7389 O.3       1 GTP        -0.6187
     19 C2'         0.7477    0.1630    0.7858 C.3       1 GTP         0.0706
     20 O2'         0.1373   -0.0577    2.0407 O.3       1 GTP        -0.6294
     21 C1'         1.3733    1.5427    0.6747 C.3       1 GTP         0.3895
     22 N9          0.4520    2.5240    0.1767 N.pl3     1 GTP        -0.4733
     23 C8          0.2012    2.8401   -1.0899 C.ar      1 GTP         0.2958
     24 N7         -0.7168    3.7990   -1.1981 N.pl3     1 GTP        -0.4933
     25 C5         -1.0645    4.1043    0.0896 C.ar      1 GTP        -0.1494
     26 C6         -2.0336    5.0870    0.5973 C.ar      1 GTP         0.7954
     27 O6         -2.6730    5.7839   -0.1834 O.2       1 GTP        -0.5729
     28 N1         -2.1539    5.1517    1.9868 N.2       1 GTP        -0.7443
     29 C2         -1.4288    4.3650    2.7566 C.ar      1 GTP         0.8831
     30 N2         -1.5126    4.3922    4.1250 N.pl3     1 GTP        -0.9204
     31 N3         -0.5167    3.4388    2.2748 N.pl3     1 GTP        -0.7173
     32 C4         -0.3638    3.3392    0.9318 C.ar      1 GTP         0.2626
     33 HOG3        5.0939   -5.5664   -5.2761 H         1 GTP         0.4102
     34 H5'         1.2163   -0.0770   -2.0471 H         1 GTP         0.0289
     35 H5''        2.4655   -1.3443   -2.1563 H         1 GTP         0.0289
     36 H4'         3.8044   -0.1397   -0.4040 H         1 GTP         0.2056
     37 H3'         1.6764   -1.7639    0.2728 H         1 GTP         0.1140
     38 HO3'        2.2232   -1.2979    2.3953 H         1 GTP         0.4287
     39 H2'        -0.0011    0.0027    0.0003 H         1 GTP         0.0809
     40 HO2'       -0.6141    0.5574    2.1082 H         1 GTP         0.4385
     41 H1'         1.7826    1.9024    1.6451 H         1 GTP         0.0794
     42 H8          0.6787    2.3803   -1.9373 H         1 GTP         0.3821
     43 HN21       -2.1462    5.0320    4.5446 H         1 GTP         0.4411
     44 HN22       -0.9365    3.7712    4.6440 H         1 GTP         0.4411
     45 H45         0.0318    2.8419    2.8816 H         1 GTP         0.4819
     46 H46        -1.0718    4.2049   -2.0526 H         1 GTP         0.5182
@<TRIPOS>BOND
     1    1    2 2
     2    1    3 1
     3    1    4 1
     4    1    5 1
     5    4   33 1
     6    5    6 1
     7    6    7 2
     8    6    8 1
     9    6    9 1
    10    9   10 1
    11   10   11 2
    12   10   12 1
    13   10   13 1
    14   13   14 1
    15   14   15 1
    16   14   34 1
    17   14   35 1
    18   15   16 1
    19   15   17 1
    20   15   36 1
    21   16   21 1
    22   17   18 1
    23   17   19 1
    24   17   37 1
    25   18   38 1
    26   19   20 1
    27   19   21 1
    28   19   39 1
    29   20   40 1
    30   21   22 1
    31   21   41 1
    32   22   23 ar
    33   22   32 ar
    34   23   24 ar
    35   23   42 1
    36   24   25 ar
    37   24   46 1
    38   25   26 ar
    39   25   32 ar
    40   26   27 2
    41   26   28 ar
    42   28   29 ar
    43   29   30 1
    44   29   31 ar
    45   30   43 1
    46   30   44 1
    47   31   32 ar
    48   31   45 1
@<TRIPOS>SUBSTRUCTURE
     1 GTP         1 GROUP 0 A     ****
@<TRIPOS>MOLECULE
[[[5-(2-amino-6-oxo-7,8-dihydro-3~{H}-purin-8-ylium-9-yl)-3,4-dihydroxy-tetrahydrofuran-2-yl]methoxy-oxido-phosphoryl]oxy-oxido-phosphoryl] hydrogen phosphate
   46    48     1     0     0
SMALL
USER_CHARGES

@<TRIPOS>ATOM
      1 PG         -1.2541   -1.4460   -4.9340 P.3       1 GTP         1.5447
      2 O1G        -0.6703   -1.1762   -3.5651 O.co2     1 GTP        -0.8705
      3 O2G        -2.7092   -1.1573   -5.2292 O.co2     1 GTP        -0.8705
      4 O3G        -0.9418   -2.9978   -5.3345 O.3       1 GTP        -0.7914
      5 O3B        -0.3299   -0.7100   -6.0600 O.3       1 GTP        -0.8116
      6 PB          1.2796   -0.8054   -6.3174 P.3       1 GTP         1.6738
      7 O1B         1.6595   -2.2605   -6.4776 O.co2     1 GTP        -0.8763
      8 O2B         1.6778    0.2342   -7.3413 O.co2     1 GTP        -0.8763
      9 O3A         1.8086   -0.2594   -4.8729 O.3       1 GTP        -0.8005
     10 PA          3.3343   -0.0514   -4.3264 P.3       1 GTP         1.5754
     11 O1A         4.0106   -1.4028   -4.2454 O.co2     1 GTP        -0.8771
     12 O2A         3.9675    1.0961   -5.0826 O.co2     1 GTP        -0.8771
     13 O5'         3.0213    0.5153   -2.8245 O.3       1 GTP        -0.5809
     14 C5'         2.2816   -0.2918   -1.9206 C.3       1 GTP         0.1986
     15 C4'         2.7248    0.0226   -0.4980 C.3       1 GTP         0.0418
     16 O4'         2.4697    1.4219   -0.2462 O.3       1 GTP        -0.3505
     17 C3'         1.9404   -0.7419    0.5596 C.3       1 GTP         0.0909
     18 O3'         2.7418   -0.8086    1.7389 O.3       1 GTP        -0.6187
     19 C2'         0.7477    0.1630    0.7858 C.3       1 GTP         0.0706
     20 O2'         0.1373   -0.0577    2.0407 O.3       1 GTP        -0.6294
     21 C1'         1.3733    1.5427    0.6747 C.3       1 GTP         0.3895
     22 N9          0.4520    2.5240    0.1767 N.pl3     1 GTP        -0.4733
     23 C8          0.2012    2.8401   -1.0899 C.ar      1 GTP         0.2958
     24 N7         -0.7168    3.7990   -1.1981 N.pl3     1 GTP        -0.4933
     25 C5         -1.0645    4.1043    0.0896 C.ar      1 GTP        -0.1494
     26 C6         -2.0336    5.0870    0.5973 C.ar      1 GTP         0.7954
     27 O6         -2.6730    5.7839   -0.1834 O.2       1 GTP        -0.5729
     28 N1         -2.1539    5.1517    1.9868 N.2       1 GTP        -0.7443
     29 C2         -1.4288    4.3650    2.7566 C.ar      1 GTP         0.8831
     30 N2         -1.5126    4.3922    4.1250 N.pl3     1 GTP        -0.9204
     31 N3         -0.5167    3.4388    2.2748 N.pl3     1 GTP        -0.7173
     32 C4         -0.3638    3.3392    0.9318 C.ar      1 GTP         0.2626
     33 HOG3       -1.2590   -3.3291   -6.2016 H         1 GTP         0.4102
     34 H5'         1.2163   -0.0770   -2.0471 H         1 GTP         0.0289
     35 H5''        2.4655   -1.3443   -2.1563 H         1 GTP         0.0289
     36 H4'         3.8044   -0.1397   -0.4040 H         1 GTP         0.2056
     37 H3'         1.6764   -1.7639    0.2728 H         1 GTP         0.1140
     38 HO3'        2.2232   -1.2979    2.3953 H         1 GTP         0.4287
     39 H2'        -0.0011    0.0027    0.0003 H         1 GTP         0.0809
     40 HO2'       -0.1563   -0.9855    2.0596 H         1 GTP         0.4385
     41 H1'         1.7826    1.9024    1.6451 H         1 GTP         0.0794
     42 H8          0.6787    2.3803   -1.9373 H         1 GTP         0.3821
     43 HN21       -2.1462    5.0320    4.5446 H         1 GTP         0.4411
     44 HN22       -0.9365    3.7712    4.6440 H         1 GTP         0.4411
     45 H45         0.0318    2.8419    2.8816 H         1 GTP         0.4819
     46 H46        -1.0718    4.2049   -2.0526 H         1 GTP         0.5182
@<TRIPOS>BOND
     1    1    2 2
     2    1    3 1
     3    1    4 1
     4    1    5 1
     5    4   33 1
     6    5    6 1
     7    6    7 2
     8    6    8 1
     9    6    9 1
    10    9   10 1
    11   10   11 2
    12   10   12 1
    13   10   13 1
    14   13   14 1
    15   14   15 1
    16   14   34 1
    17   14   35 1
    18   15   16 1
    19   15   17 1
    20   15   36 1
    21   16   21 1
    22   17   18 1
    23   17   19 1
    24   17   37 1
    25   18   38 1
    26   19   20 1
    27   19   21 1
    28   19   39 1
    29   20   40 1
    30   21   22 1
    31   21   41 1
    32   22   23 ar
    33   22   32 ar
    34   23   24 ar
    35   23   42 1
    36   24   25 ar
    37   24   46 1
    38   25   26 ar
    39   25   32 ar
    40   26   27 2
    41   26   28 ar
    42   28   29 ar
    43   29   30 1
    44   29   31 ar
    45   30   43 1
    46   30   44 1
    47   31   32 ar
    48   31   45 1
@<TRIPOS>SUBSTRUCTURE
     1 GTP         1 GROUP 0 A     ****
@<TRIPOS>MOLECULE
[[[5-(2-amino-6-oxo-7,8-dihydro-3~{H}-purin-8-ylium-9-yl)-3,4-dihydroxy-tetrahydrofuran-2-yl]methoxy-oxido-phosphoryl]oxy-oxido-phosphoryl] hydrogen phosphate
   46    48     1     0     0
SMALL
USER_CHARGES

@<TRIPOS>ATOM
      1 PG          1.8305    0.0467   -8.3608 P.3       1 GTP         1.5447
      2 O1G         2.5867    1.3499   -8.4921 O.co2     1 GTP        -0.8705
      3 O2G         2.1147   -1.1137   -9.2884 O.co2     1 GTP        -0.8705
      4 O3G         0.2304    0.3684   -8.4082 O.3       1 GTP        -0.7914
      5 O3B         1.9319   -0.4730   -6.8170 O.3       1 GTP        -0.8116
      6 PB          1.1870   -1.7278   -6.0847 P.3       1 GTP         1.6738
      7 O1B        -0.2998   -1.4531   -6.0457 O.co2     1 GTP        -0.8763
      8 O2B         1.7388   -3.0217   -6.6406 O.co2     1 GTP        -0.8763
      9 O3A         1.8113   -1.5642   -4.5853 O.3       1 GTP        -0.8005
     10 PA          1.5544   -2.4558   -3.2404 P.3       1 GTP         1.5754
     11 O1A         0.1056   -2.3088   -2.8286 O.co2     1 GTP        -0.8771
     12 O2A         2.1769   -3.8208   -3.4380 O.co2     1 GTP        -0.8771
     13 O5'         2.5245   -1.6648   -2.1878 O.3       1 GTP        -0.5809
     14 C5'         2.2816   -0.2918   -1.9206 C.3       1 GTP         0.1986
     15 C4'         2.7248    0.0226   -0.4980 C.3       1 GTP         0.0418
     16 O4'         2.4697    1.4219   -0.2462 O.3       1 GTP        -0.3505
     17 C3'         1.9404   -0.7419    0.5596 C.3       1 GTP         0.0909
     18 O3'         2.7418   -0.8086    1.7389 O.3       1 GTP        -0.6187
     19 C2'         0.7477    0.1630    0.7858 C.3       1 GTP         0.0706
     20 O2'         0.1373   -0.0577    2.0407 O.3       1 GTP        -0.6294
     21 C1'         1.3733    1.5427    0.6747 C.3       1 GTP         0.3895
     22 N9          0.4520    2.5240    0.1767 N.pl3     1 GTP        -0.4733
     23 C8          0.2012    2.8401   -1.0899 C.ar      1 GTP         0.2958
     24 N7         -0.7168    3.7990   -1.1981 N.pl3     1 GTP        -0.4933
     25 C5         -1.0645    4.1043    0.0896 C.ar      1 GTP        -0.1494
     26 C6         -2.0336    5.0870    0.5973 C.ar      1 GTP         0.7954
     27 O6         -2.6730    5.7839   -0.1834 O.2       1 GTP        -0.5729
     28 N1         -2.1539    5.1517    1.9868 N.2       1 GTP        -0.7443
     29 C2         -1.4288    4.3650    2.7566 C.ar      1 GTP         0.8831
     30 N2         -1.5126    4.3922    4.1250 N.pl3     1 GTP        -0.9204
     31 N3         -0.5167    3.4388    2.2748 N.pl3     1 GTP        -0.7173
     32 C4         -0.3638    3.3392    0.9318 C.ar      1 GTP         0.2626
     33 HOG3       -0.3988   -0.3806   -8.3343 H         1 GTP         0.4102
     34 H5'         2.8432    0.3119   -2.6398 H         1 GTP         0.0289
     35 H5''        1.2128   -0.0927   -2.0428 H         1 GTP         0.0289
     36 H4'         3.8044   -0.1397   -0.4040 H         1 GTP         0.2056
     37 H3'         1.6764   -1.7639    0.2728 H         1 GTP         0.1140
     38 HO3'        2.2232   -1.2979    2.3953 H         1 GTP         0.4287
     39 H2'        -0.0011    0.0027    0.0003 H         1 GTP         0.0809
     40 HO2'       -0.6141    0.5574    2.1082 H         1 GTP         0.4385
     41 H1'         1.7826    1.9024    1.6451 H         1 GTP         0.0794
     42 H8          0.6787    2.3803   -1.9373 H         1 GTP         0.3821
     43 HN21       -2.1462    5.0320    4.5446 H         1 GTP         0.4411
     44 HN22       -0.9365    3.7712    4.6440 H         1 GTP         0.4411
     45 H45         0.0318    2.8419    2.8816 H         1 GTP         0.4819
     46 H46        -1.0718    4.2049   -2.0526 H         1 GTP         0.5182
@<TRIPOS>BOND
     1    1    2 2
     2    1    3 1
     3    1    4 1
     4    1    5 1
     5    4   33 1
     6    5    6 1
     7    6    7 2
     8    6    8 1
     9    6    9 1
    10    9   10 1
    11   10   11 2
    12   10   12 1
    13   10   13 1
    14   13   14 1
    15   14   15 1
    16   14   34 1
    17   14   35 1
    18   15   16 1
    19   15   17 1
    20   15   36 1
    21   16   21 1
    22   17   18 1
    23   17   19 1
    24   17   37 1
    25   18   38 1
    26   19   20 1
    27   19   21 1
    28   19   39 1
    29   20   40 1
    30   21   22 1
    31   21   41 1
    32   22   23 ar
    33   22   32 ar
    34   23   24 ar
    35   23   42 1
    36   24   25 ar
    37   24   46 1
    38   25   26 ar
    39   25   32 ar
    40   26   27 2
    41   26   28 ar
    42   28   29 ar
    43   29   30 1
    44   29   31 ar
    45   30   43 1
    46   30   44 1
    47   31   32 ar
    48   31   45 1
@<TRIPOS>SUBSTRUCTURE
     1 GTP         1 GROUP 0 A     ****
@<TRIPOS>MOLECULE
[[[5-(2-amino-6-oxo-7,8-dihydro-3~{H}-purin-8-ylium-9-yl)-3,4-dihydroxy-tetrahydrofuran-2-yl]methoxy-oxido-phosphoryl]oxy-oxido-phosphoryl] hydrogen phosphate
   46    48     1     0     0
SMALL
USER_CHARGES

@<TRIPOS>ATOM
      1 PG          1.8925    0.4775   -8.9102 P.3       1 GTP         1.5447
      2 O1G         2.5440    1.7842   -9.3045 O.co2     1 GTP        -0.8705
      3 O2G         2.3201   -0.8270   -9.5451 O.co2     1 GTP        -0.8705
      4 O3G         0.2760    0.6316   -9.0806 O.3       1 GTP        -0.7914
      5 O3B         1.9555    0.3212   -7.2868 O.3       1 GTP        -0.8116
      6 PB          1.2796   -0.8054   -6.3174 P.3       1 GTP         1.6738
      7 O1B        -0.2249   -0.6674   -6.3895 O.co2     1 GTP        -0.8763
      8 O2B         1.9650   -2.1331   -6.5517 O.co2     1 GTP        -0.8763
      9 O3A         1.8086   -0.2594   -4.8729 O.3       1 GTP        -0.8005
     10 PA          3.3343   -0.0514   -4.3264 P.3       1 GTP         1.5754
     11 O1A         4.0106   -1.4028   -4.2454 O.co2     1 GTP        -0.8771
     12 O2A         3.9675    1.0961   -5.0826 O.co2     1 GTP        -0.8771
     13 O5'         3.0213    0.5153   -2.8245 O.3       1 GTP        -0.5809
     14 C5'         2.2816   -0.2918   -1.9206 C.3       1 GTP         0.1986
     15 C4'         2.7248    0.0226   -0.4980 C.3       1 GTP         0.0418
     16 O4'         2.4697    1.4219   -0.2462 O.3       1 GTP        -0.3505
     17 C3'         1.9404   -0.7419    0.5596 C.3       1 GTP         0.0909
     18 O3'         2.7418   -0.8086    1.7389 O.3       1 GTP        -0.6187
     19 C2'         0.7477    0.1630    0.7858 C.3       1 GTP         0.0706
     20 O2'         0.1373   -0.0577    2.0407 O.3       1 GTP        -0.6294
     21 C1'         1.3733    1.5427    0.6747 C.3       1 GTP         0.3895
     22 N9          0.4520    2.5240    0.1767 N.pl3     1 GTP        -0.4733
     23 C8          0.2012    2.8401   -1.0899 C.ar      1 GTP         0.2958
     24 N7         -0.7168    3.7990   -1.1981 N.pl3     1 GTP        -0.4933
     25 C5         -1.0645    4.1043    0.0896 C.ar      1 GTP        -0.1494
     26 C6         -2.0336    5.0870    0.5973 C.ar      1 GTP         0.7954
     27 O6         -2.6730    5.7839   -0.1834 O.2       1 GTP        -0.5729
     28 N1         -2.1539    5.1517    1.9868 N.2       1 GTP        -0.7443
     29 C2         -1.4288    4.3650    2.7566 C.ar      1 GTP         0.8831
     30 N2         -1.5126    4.3922    4.1250 N.pl3     1 GTP        -0.9204
     31 N3         -0.5167    3.4388    2.2748 N.pl3     1 GTP        -0.7173
     32 C4         -0.3638    3.3392    0.9318 C.ar      1 GTP         0.2626
     33 HOG3       -0.2920   -0.1376   -8.8620 H         1 GTP         0.4102
     34 H5'         1.2163   -0.0770   -2.0471 H         1 GTP         0.0289
     35 H5''        2.4655   -1.3443   -2.1563 H         1 GTP         0.0289
     36 H4'         3.8044   -0.1397   -0.4040 H         1 GTP         0.2056
     37 H3'         1.6764   -1.7639    0.2728 H         1 GTP         0.1140
     38 HO3'        2.2232   -1.2979    2.3953 H         1 GTP         0.4287
     39 H2'        -0.0011    0.0027    0.0003 H         1 GTP         0.0809
     40 HO2'       -0.6141    0.5574    2.1082 H         1 GTP         0.4385
     41 H1'         1.7826    1.9024    1.6451 H         1 GTP         0.0794
     42 H8          0.6787    2.3803   -1.9373 H         1 GTP         0.3821
     43 HN21       -2.1462    5.0320    4.5446 H         1 GTP         0.4411
     44 HN22       -0.9365    3.7712    4.6440 H         1 GTP         0.4411
     45 H45         0.0318    2.8419    2.8816 H         1 GTP         0.4819
     46 H46        -1.0718    4.2049   -2.0526 H         1 GTP         0.5182
@<TRIPOS>BOND
     1    1    2 2
     2    1    3 1
     3    1    4 1
     4    1    5 1
     5    4   33 1
     6    5    6 1
     7    6    7 2
     8    6    8 1
     9    6    9 1
    10    9   10 1
    11   10   11 2
    12   10   12 1
    13   10   13 1
    14   13   14 1
    15   14   15 1
    16   14   34 1
    17   14   35 1
    18   15   16 1
    19   15   17 1
    20   15   36 1
    21   16   21 1
    22   17   18 1
    23   17   19 1
    24   17   37 1
    25   18   38 1
    26   19   20 1
    27   19   21 1
    28   19   39 1
    29   20   40 1
    30   21   22 1
    31   21   41 1
    32   22   23 ar
    33   22   32 ar
    34   23   24 ar
    35   23   42 1
    36   24   25 ar
    37   24   46 1
    38   25   26 ar
    39   25   32 ar
    40   26   27 2
    41   26   28 ar
    42   28   29 ar
    43   29   30 1
    44   29   31 ar
    45   30   43 1
    46   30   44 1
    47   31   32 ar
    48   31   45 1
@<TRIPOS>SUBSTRUCTURE
     1 GTP         1 GROUP 0 A     ****
@<TRIPOS>MOLECULE
[[[5-(2-amino-6-oxo-7,8-dihydro-3~{H}-purin-8-ylium-9-yl)-3,4-dihydroxy-tetrahydrofuran-2-yl]methoxy-oxido-phosphoryl]oxy-oxido-phosphoryl] hydrogen phosphate
   46    48     1     0     0
SMALL
USER_CHARGES

@<TRIPOS>ATOM
      1 PG         -7.0730   -3.4468    0.7880 P.3       1 GTP         1.5447
      2 O1G        -7.8370   -3.3150    2.0866 O.co2     1 GTP        -0.8705
      3 O2G        -6.9780   -2.2876   -0.1789 O.co2     1 GTP        -0.8705
      4 O3G        -7.6403   -4.7488   -0.0176 O.3       1 GTP        -0.7914
      5 O3B        -5.5687   -3.9920    1.1098 O.3       1 GTP        -0.8116
      6 PB         -5.0903   -5.3033    1.9566 P.3       1 GTP         1.6738
      7 O1B        -5.4875   -5.1171    3.4041 O.co2     1 GTP        -0.8763
      8 O2B        -5.4641   -6.5507    1.1873 O.co2     1 GTP        -0.8763
      9 O3A        -3.4733   -5.1349    1.8088 O.3       1 GTP        -0.8005
     10 PA         -2.2652   -6.0681    2.3913 P.3       1 GTP         1.5754
     11 O1A        -2.2952   -6.0149    3.9035 O.co2     1 GTP        -0.8771
     12 O2A        -2.2759   -7.3899    1.6547 O.co2     1 GTP        -0.8771
     13 O5'        -0.9724   -5.2440    1.8220 O.3       1 GTP        -0.5809
     14 C5'        -0.7840   -3.8935    2.2172 C.3       1 GTP         0.1986
     15 C4'        -0.0724   -3.1466    1.1027 C.3       1 GTP         0.0418
     16 O4'        -0.8674   -3.1929   -0.0945 O.3       1 GTP        -0.3505
     17 C3'         0.1338   -1.6715    1.4027 C.3       1 GTP         0.0909
     18 O3'         1.2893   -1.4445    2.1808 O.3       1 GTP        -0.6187
     19 C2'         0.2158   -1.0724    0.0128 C.3       1 GTP         0.0706
     20 O2'         1.5141   -1.2448   -0.5513 O.3       1 GTP        -0.6294
     21 C1'        -0.7897   -1.9176   -0.7583 C.3       1 GTP         0.3895
     22 N9         -2.1040   -1.3333   -0.7704 N.pl3     1 GTP        -0.4733
     23 C8         -3.0774   -1.4939    0.1205 C.ar      1 GTP         0.2958
     24 N7         -4.1709   -0.8031   -0.1972 N.pl3     1 GTP        -0.4933
     25 C5         -3.8606   -0.1662   -1.3678 C.ar      1 GTP        -0.1494
     26 C6         -4.6738    0.7391   -2.1934 C.ar      1 GTP         0.7954
     27 O6         -5.8186    1.0214   -1.8562 O.2       1 GTP        -0.5729
     28 N1         -4.0520    1.2260   -3.3448 N.2       1 GTP        -0.7443
     29 C2         -2.8155    0.8734   -3.6351 C.ar      1 GTP         0.8831
     30 N2         -2.1637    1.3257   -4.7536 N.pl3     1 GTP        -0.9204
     31 N3         -2.0511    0.0205   -2.8541 N.pl3     1 GTP        -0.7173
     32 C4         -2.6117   -0.4790   -1.7258 C.ar      1 GTP         0.2626
     33 HOG3       -7.2424   -4.9699   -0.8866 H         1 GTP         0.4102
     34 H5'        -1.7618   -3.4448    2.4164 H         1 GTP         0.0289
     35 H5''       -0.1874   -3.8744    3.1341 H         1 GTP         0.0289
     36 H4'         0.8874   -3.6466    0.8805 H         1 GTP         0.2056
     37 H3'        -0.7376   -1.2333    1.9867 H         1 GTP         0.1140
     38 HO3'        1.3408   -0.4870    2.3219 H         1 GTP         0.4287
     39 H2'        -0.0384   -0.0310    0.0096 H         1 GTP         0.0809
     40 HO2'        2.1463   -0.7958    0.0370 H         1 GTP         0.4385
     41 H1'        -0.4769   -2.1002   -1.8093 H         1 GTP         0.0794
     42 H8         -3.0010   -2.1083    1.0004 H         1 GTP         0.3821
     43 HN21       -2.6485    1.9422   -5.3633 H         1 GTP         0.4411
     44 HN22       -1.2319    1.0195   -4.9110 H         1 GTP         0.4411
     45 H45        -1.1018   -0.2391   -3.0927 H         1 GTP         0.4819
     46 H46        -5.0365   -0.7653    0.3226 H         1 GTP         0.5182
@<TRIPOS>BOND
     1    1    2 2
     2    1    3 1
     3    1    4 1
     4    1    5 1
     5    4   33 1
     6    5    6 1
     7    6    7 2
     8    6    8 1
     9    6    9 1
    10    9   10 1
    11   10   11 2
    12   10   12 1
    13   10   13 1
    14   13   14 1
    15   14   15 1
    16   14   34 1
    17   14   35 1
    18   15   16 1
    19   15   17 1
    20   15   36 1
    21   16   21 1
    22   17   18 1
    23   17   19 1
    24   17   37 1
    25   18   38 1
    26   19   20 1
    27   19   21 1
    28   19   39 1
    29   20   40 1
    30   21   22 1
    31   21   41 1
    32   22   23 ar
    33   22   32 ar
    34   23   24 ar
    35   23   42 1
    36   24   25 ar
    37   24   46 1
    38   25   26 ar
    39   25   32 ar
    40   26   27 2
    41   26   28 ar
    42   28   29 ar
    43   29   30 1
    44   29   31 ar
    45   30   43 1
    46   30   44 1
    47   31   32 ar
    48   31   45 1
@<TRIPOS>SUBSTRUCTURE
     1 GTP         1 GROUP 0 A     ****
@<TRIPOS>MOLECULE
[[[5-(2-amino-6-oxo-7,8-dihydro-3~{H}-purin-8-ylium-9-yl)-3,4-dihydroxy-tetrahydrofuran-2-yl]methoxy-oxido-phosphoryl]oxy-oxido-phosphoryl] hydrogen phosphate
   46    48     1     0     0
SMALL
USER_CHARGES

@<TRIPOS>ATOM
      1 PG          0.8790    4.1893   -6.7468 P.3       1 GTP         1.5447
      2 O1G         1.8162    5.3040   -6.3387 O.co2     1 GTP        -0.8705
      3 O2G         0.8191    3.7098   -8.1800 O.co2     1 GTP        -0.8705
      4 O3G        -0.6320    4.5805   -6.2675 O.3       1 GTP        -0.7914
      5 O3B         1.1232    2.9054   -5.7692 O.3       1 GTP        -0.8116
      6 PB          0.2960    1.5021   -5.6594 P.3       1 GTP         1.6738
      7 O1B        -1.0996    1.8000   -5.1582 O.co2     1 GTP        -0.8763
      8 O2B         0.5303    0.6918   -6.9148 O.co2     1 GTP        -0.8763
      9 O3A         1.1584    0.7817   -4.4753 O.3       1 GTP        -0.8005
     10 PA          2.7407    0.3769   -4.4297 P.3       1 GTP         1.5754
     11 O1A         2.8866   -1.0655   -4.8640 O.co2     1 GTP        -0.8771
     12 O2A         3.5415    1.4776   -5.0906 O.co2     1 GTP        -0.8771
     13 O5'         3.0213    0.5153   -2.8245 O.3       1 GTP        -0.5809
     14 C5'         2.2816   -0.2918   -1.9206 C.3       1 GTP         0.1986
     15 C4'         2.7248    0.0226   -0.4980 C.3       1 GTP         0.0418
     16 O4'         2.4697    1.4219   -0.2462 O.3       1 GTP        -0.3505
     17 C3'         1.9404   -0.7419    0.5596 C.3       1 GTP         0.0909
     18 O3'         2.7418   -0.8086    1.7389 O.3       1 GTP        -0.6187
     19 C2'         0.7477    0.1630    0.7858 C.3       1 GTP         0.0706
     20 O2'         0.1373   -0.0577    2.0407 O.3       1 GTP        -0.6294
     21 C1'         1.3733    1.5427    0.6747 C.3       1 GTP         0.3895
     22 N9          0.4520    2.5240    0.1767 N.pl3     1 GTP        -0.4733
     23 C8          0.2012    2.8401   -1.0899 C.ar      1 GTP         0.2958
     24 N7         -0.7168    3.7990   -1.1981 N.pl3     1 GTP        -0.4933
     25 C5         -1.0645    4.1043    0.0896 C.ar      1 GTP        -0.1494
     26 C6         -2.0336    5.0870    0.5973 C.ar      1 GTP         0.7954
     27 O6         -2.6730    5.7839   -0.1834 O.2       1 GTP        -0.5729
     28 N1         -2.1539    5.1517    1.9868 N.2       1 GTP        -0.7443
     29 C2         -1.4288    4.3650    2.7566 C.ar      1 GTP         0.8831
     30 N2         -1.5126    4.3922    4.1250 N.pl3     1 GTP        -0.9204
     31 N3         -0.5167    3.4388    2.2748 N.pl3     1 GTP        -0.7173
     32 C4         -0.3638    3.3392    0.9318 C.ar      1 GTP         0.2626
     33 HOG3       -1.3604    3.9526   -6.4607 H         1 GTP         0.4102
     34 H5'         1.2163   -0.0770   -2.0471 H         1 GTP         0.0289
     35 H5''        2.4655   -1.3443   -2.1563 H         1 GTP         0.0289
     36 H4'         3.8044   -0.1397   -0.4040 H         1 GTP         0.2056
     37 H3'         1.6764   -1.7639    0.2728 H         1 GTP         0.1140
     38 HO3'        2.2232   -1.2979    2.3953 H         1 GTP         0.4287
     39 H2'        -0.0011    0.0027    0.0003 H         1 GTP         0.0809
     40 HO2'       -0.6141    0.5574    2.1082 H         1 GTP         0.4385
     41 H1'         1.7826    1.9024    1.6451 H         1 GTP         0.0794
     42 H8          0.6787    2.3803   -1.9373 H         1 GTP         0.3821
     43 HN21       -2.1462    5.0320    4.5446 H         1 GTP         0.4411
     44 HN22       -0.9365    3.7712    4.6440 H         1 GTP         0.4411
     45 H45         0.0318    2.8419    2.8816 H         1 GTP         0.4819
     46 H46        -1.0718    4.2049   -2.0526 H         1 GTP         0.5182
@<TRIPOS>BOND
     1    1    2 2
     2    1    3 1
     3    1    4 1
     4    1    5 1
     5    4   33 1
     6    5    6 1
     7    6    7 2
     8    6    8 1
     9    6    9 1
    10    9   10 1
    11   10   11 2
    12   10   12 1
    13   10   13 1
    14   13   14 1
    15   14   15 1
    16   14   34 1
    17   14   35 1
    18   15   16 1
    19   15   17 1
    20   15   36 1
    21   16   21 1
    22   17   18 1
    23   17   19 1
    24   17   37 1
    25   18   38 1
    26   19   20 1
    27   19   21 1
    28   19   39 1
    29   20   40 1
    30   21   22 1
    31   21   41 1
    32   22   23 ar
    33   22   32 ar
    34   23   24 ar
    35   23   42 1
    36   24   25 ar
    37   24   46 1
    38   25   26 ar
    39   25   32 ar
    40   26   27 2
    41   26   28 ar
    42   28   29 ar
    43   29   30 1
    44   29   31 ar
    45   30   43 1
    46   30   44 1
    47   31   32 ar
    48   31   45 1
@<TRIPOS>SUBSTRUCTURE
     1 GTP         1 GROUP 0 A     ****
@<TRIPOS>MOLECULE
[[[5-(2-amino-6-oxo-7,8-dihydro-3~{H}-purin-8-ylium-9-yl)-3,4-dihydroxy-tetrahydrofuran-2-yl]methoxy-oxido-phosphoryl]oxy-oxido-phosphoryl] hydrogen phosphate
   46    48     1     0     0
SMALL
USER_CHARGES

@<TRIPOS>ATOM
      1 PG         -1.7001   -1.5998   -6.7111 P.3       1 GTP         1.5447
      2 O1G        -2.9546   -1.5615   -5.8672 O.co2     1 GTP        -0.8705
      3 O2G        -1.4927   -0.6156   -7.8407 O.co2     1 GTP        -0.8705
      4 O3G        -1.5176   -3.1115   -7.3006 O.3       1 GTP        -0.7914
      5 O3B        -0.3975   -1.5594   -5.7285 O.3       1 GTP        -0.8116
      6 PB          1.1870   -1.7278   -6.0847 P.3       1 GTP         1.6738
      7 O1B         1.4254   -3.1367   -6.5803 O.co2     1 GTP        -0.8763
      8 O2B         1.6458   -0.5224   -6.8746 O.co2     1 GTP        -0.8763
      9 O3A         1.8113   -1.5642   -4.5853 O.3       1 GTP        -0.8005
     10 PA          1.5544   -2.4558   -3.2404 P.3       1 GTP         1.5754
     11 O1A         0.1056   -2.3088   -2.8286 O.co2     1 GTP        -0.8771
     12 O2A         2.1769   -3.8208   -3.4380 O.co2     1 GTP        -0.8771
     13 O5'         2.5245   -1.6648   -2.1878 O.3       1 GTP        -0.5809
     14 C5'         2.2816   -0.2918   -1.9206 C.3       1 GTP         0.1986
     15 C4'         2.7248    0.0226   -0.4980 C.3       1 GTP         0.0418
     16 O4'         2.4697    1.4219   -0.2462 O.3       1 GTP        -0.3505
     17 C3'         1.9404   -0.7419    0.5596 C.3       1 GTP         0.0909
     18 O3'         2.7418   -0.8086    1.7389 O.3       1 GTP        -0.6187
     19 C2'         0.7477    0.1630    0.7858 C.3       1 GTP         0.0706
     20 O2'         0.1373   -0.0577    2.0407 O.3       1 GTP        -0.6294
     21 C1'         1.3733    1.5427    0.6747 C.3       1 GTP         0.3895
     22 N9          0.4520    2.5240    0.1767 N.pl3     1 GTP        -0.4733
     23 C8          0.2012    2.8401   -1.0899 C.ar      1 GTP         0.2958
     24 N7         -0.7168    3.7990   -1.1981 N.pl3     1 GTP        -0.4933
     25 C5         -1.0645    4.1043    0.0896 C.ar      1 GTP        -0.1494
     26 C6         -2.0336    5.0870    0.5973 C.ar      1 GTP         0.7954
     27 O6         -2.6730    5.7839   -0.1834 O.2       1 GTP        -0.5729
     28 N1         -2.1539    5.1517    1.9868 N.2       1 GTP        -0.7443
     29 C2         -1.4288    4.3650    2.7566 C.ar      1 GTP         0.8831
     30 N2         -1.5126    4.3922    4.1250 N.pl3     1 GTP        -0.9204
     31 N3         -0.5167    3.4388    2.2748 N.pl3     1 GTP        -0.7173
     32 C4         -0.3638    3.3392    0.9318 C.ar      1 GTP         0.2626
     33 HOG3       -0.7430   -3.2992   -7.8725 H         1 GTP         0.4102
     34 H5'         2.8432    0.3119   -2.6398 H         1 GTP         0.0289
     35 H5''        1.2128   -0.0927   -2.0428 H         1 GTP         0.0289
     36 H4'         3.8044   -0.1397   -0.4040 H         1 GTP         0.2056
     37 H3'         1.6764   -1.7639    0.2728 H         1 GTP         0.1140
     38 HO3'        2.2232   -1.2979    2.3953 H         1 GTP         0.4287
     39 H2'        -0.0011    0.0027    0.0003 H         1 GTP         0.0809
     40 HO2'       -0.1563   -0.9855    2.0596 H         1 GTP         0.4385
     41 H1'         1.7826    1.9024    1.6451 H         1 GTP         0.0794
     42 H8          0.6787    2.3803   -1.9373 H         1 GTP         0.3821
     43 HN21       -2.1462    5.0320    4.5446 H         1 GTP         0.4411
     44 HN22       -0.9365    3.7712    4.6440 H         1 GTP         0.4411
     45 H45         0.0318    2.8419    2.8816 H         1 GTP         0.4819
     46 H46        -1.0718    4.2049   -2.0526 H         1 GTP         0.5182
@<TRIPOS>BOND
     1    1    2 2
     2    1    3 1
     3    1    4 1
     4    1    5 1
     5    4   33 1
     6    5    6 1
     7    6    7 2
     8    6    8 1
     9    6    9 1
    10    9   10 1
    11   10   11 2
    12   10   12 1
    13   10   13 1
    14   13   14 1
    15   14   15 1
    16   14   34 1
    17   14   35 1
    18   15   16 1
    19   15   17 1
    20   15   36 1
    21   16   21 1
    22   17   18 1
    23   17   19 1
    24   17   37 1
    25   18   38 1
    26   19   20 1
    27   19   21 1
    28   19   39 1
    29   20   40 1
    30   21   22 1
    31   21   41 1
    32   22   23 ar
    33   22   32 ar
    34   23   24 ar
    35   23   42 1
    36   24   25 ar
    37   24   46 1
    38   25   26 ar
    39   25   32 ar
    40   26   27 2
    41   26   28 ar
    42   28   29 ar
    43   29   30 1
    44   29   31 ar
    45   30   43 1
    46   30   44 1
    47   31   32 ar
    48   31   45 1
@<TRIPOS>SUBSTRUCTURE
     1 GTP         1 GROUP 0 A     ****
@<TRIPOS>MOLECULE
[[[5-(2-amino-6-oxo-7,8-dihydro-3~{H}-purin-8-ylium-9-yl)-3,4-dihydroxy-tetrahydrofuran-2-yl]methoxy-oxido-phosphoryl]oxy-oxido-phosphoryl] hydrogen phosphate
   46    48     1     0     0
SMALL
USER_CHARGES

@<TRIPOS>ATOM
      1 PG          4.3390    5.6002   -5.5330 P.3       1 GTP         1.5447
      2 O1G         4.5948    6.7867   -4.6307 O.co2     1 GTP        -0.8705
      3 O2G         5.3653    5.1657   -6.5556 O.co2     1 GTP        -0.8705
      4 O3G         2.9121    5.8256   -6.2941 O.3       1 GTP        -0.7914
      5 O3B         3.9288    4.3140   -4.6158 O.3       1 GTP        -0.8116
      6 PB          2.7694    4.1698   -3.4753 P.3       1 GTP         1.6738
      7 O1B         3.1199    5.0695   -2.3112 O.co2     1 GTP        -0.8763
      8 O2B         1.4126    4.2287   -4.1410 O.co2     1 GTP        -0.8763
      9 O3A         3.0106    2.6117   -3.0522 O.3       1 GTP        -0.8005
     10 PA          2.9232    1.2546   -3.9579 P.3       1 GTP         1.5754
     11 O1A         1.4961    1.0747   -4.4283 O.co2     1 GTP        -0.8771
     12 O2A         4.0762    1.2511   -4.9378 O.co2     1 GTP        -0.8771
     13 O5'         3.2903    0.1346   -2.8241 O.3       1 GTP        -0.5809
     14 C5'         2.2816   -0.2918   -1.9206 C.3       1 GTP         0.1986
     15 C4'         2.7248    0.0226   -0.4980 C.3       1 GTP         0.0418
     16 O4'         2.4697    1.4219   -0.2462 O.3       1 GTP        -0.3505
     17 C3'         1.9404   -0.7419    0.5596 C.3       1 GTP         0.0909
     18 O3'         2.7418   -0.8086    1.7389 O.3       1 GTP        -0.6187
     19 C2'         0.7477    0.1630    0.7858 C.3       1 GTP         0.0706
     20 O2'         0.1373   -0.0577    2.0407 O.3       1 GTP        -0.6294
     21 C1'         1.3733    1.5427    0.6747 C.3       1 GTP         0.3895
     22 N9          0.4520    2.5240    0.1767 N.pl3     1 GTP        -0.4733
     23 C8          0.2012    2.8401   -1.0899 C.ar      1 GTP         0.2958
     24 N7         -0.7168    3.7990   -1.1981 N.pl3     1 GTP        -0.4933
     25 C5         -1.0645    4.1043    0.0896 C.ar      1 GTP        -0.1494
     26 C6         -2.0336    5.0870    0.5973 C.ar      1 GTP         0.7954
     27 O6         -2.6730    5.7839   -0.1834 O.2       1 GTP        -0.5729
     28 N1         -2.1539    5.1517    1.9868 N.2       1 GTP        -0.7443
     29 C2         -1.4288    4.3650    2.7566 C.ar      1 GTP         0.8831
     30 N2         -1.5126    4.3922    4.1250 N.pl3     1 GTP        -0.9204
     31 N3         -0.5167    3.4388    2.2748 N.pl3     1 GTP        -0.7173
     32 C4         -0.3638    3.3392    0.9318 C.ar      1 GTP         0.2626
     33 HOG3        2.6027    5.1364   -6.9198 H         1 GTP         0.4102
     34 H5'         1.3514    0.2330   -2.1577 H         1 GTP         0.0289
     35 H5''        2.1280   -1.3678   -2.0460 H         1 GTP         0.0289
     36 H4'         3.8044   -0.1397   -0.4040 H         1 GTP         0.2056
     37 H3'         1.6764   -1.7639    0.2728 H         1 GTP         0.1140
     38 HO3'        2.2232   -1.2979    2.3953 H         1 GTP         0.4287
     39 H2'        -0.0011    0.0027    0.0003 H         1 GTP         0.0809
     40 HO2'       -0.6141    0.5574    2.1082 H         1 GTP         0.4385
     41 H1'         1.7826    1.9024    1.6451 H         1 GTP         0.0794
     42 H8          0.6787    2.3803   -1.9373 H         1 GTP         0.3821
     43 HN21       -2.1462    5.0320    4.5446 H         1 GTP         0.4411
     44 HN22       -0.9365    3.7712    4.6440 H         1 GTP         0.4411
     45 H45         0.0318    2.8419    2.8816 H         1 GTP         0.4819
     46 H46        -1.0718    4.2049   -2.0526 H         1 GTP         0.5182
@<TRIPOS>BOND
     1    1    2 2
     2    1    3 1
     3    1    4 1
     4    1    5 1
     5    4   33 1
     6    5    6 1
     7    6    7 2
     8    6    8 1
     9    6    9 1
    10    9   10 1
    11   10   11 2
    12   10   12 1
    13   10   13 1
    14   13   14 1
    15   14   15 1
    16   14   34 1
    17   14   35 1
    18   15   16 1
    19   15   17 1
    20   15   36 1
    21   16   21 1
    22   17   18 1
    23   17   19 1
    24   17   37 1
    25   18   38 1
    26   19   20 1
    27   19   21 1
    28   19   39 1
    29   20   40 1
    30   21   22 1
    31   21   41 1
    32   22   23 ar
    33   22   32 ar
    34   23   24 ar
    35   23   42 1
    36   24   25 ar
    37   24   46 1
    38   25   26 ar
    39   25   32 ar
    40   26   27 2
    41   26   28 ar
    42   28   29 ar
    43   29   30 1
    44   29   31 ar
    45   30   43 1
    46   30   44 1
    47   31   32 ar
    48   31   45 1
@<TRIPOS>SUBSTRUCTURE
     1 GTP         1 GROUP 0 A     ****
@<TRIPOS>MOLECULE
[[[5-(2-amino-6-oxo-7,8-dihydro-3~{H}-purin-8-ylium-9-yl)-3,4-dihydroxy-tetrahydrofuran-2-yl]methoxy-oxido-phosphoryl]oxy-oxido-phosphoryl] hydrogen phosphate
   46    48     1     0     0
SMALL
USER_CHARGES

@<TRIPOS>ATOM
      1 PG         -0.0439    0.3980   -8.3813 P.3       1 GTP         1.5447
      2 O1G         0.5808   -0.7594   -9.1280 O.co2     1 GTP        -0.8705
      3 O2G        -1.5442    0.5887   -8.3577 O.co2     1 GTP        -0.8705
      4 O3G         0.6467    1.7834   -8.9005 O.3       1 GTP        -0.7914
      5 O3B         0.5143    0.4039   -6.8476 O.3       1 GTP        -0.8116
      6 PB          0.2960    1.5021   -5.6594 P.3       1 GTP         1.6738
      7 O1B         0.9720    2.7936   -6.0626 O.co2     1 GTP        -0.8763
      8 O2B        -1.1501    1.4698   -5.2175 O.co2     1 GTP        -0.8763
      9 O3A         1.1584    0.7817   -4.4753 O.3       1 GTP        -0.8005
     10 PA          2.7407    0.3769   -4.4297 P.3       1 GTP         1.5754
     11 O1A         2.8866   -1.0655   -4.8640 O.co2     1 GTP        -0.8771
     12 O2A         3.5415    1.4776   -5.0906 O.co2     1 GTP        -0.8771
     13 O5'         3.0213    0.5153   -2.8245 O.3       1 GTP        -0.5809
     14 C5'         2.2816   -0.2918   -1.9206 C.3       1 GTP         0.1986
     15 C4'         2.7248    0.0226   -0.4980 C.3       1 GTP         0.0418
     16 O4'         2.4697    1.4219   -0.2462 O.3       1 GTP        -0.3505
     17 C3'         1.9404   -0.7419    0.5596 C.3       1 GTP         0.0909
     18 O3'         2.7418   -0.8086    1.7389 O.3       1 GTP        -0.6187
     19 C2'         0.7477    0.1630    0.7858 C.3       1 GTP         0.0706
     20 O2'         0.1373   -0.0577    2.0407 O.3       1 GTP        -0.6294
     21 C1'         1.3733    1.5427    0.6747 C.3       1 GTP         0.3895
     22 N9          0.4520    2.5240    0.1767 N.pl3     1 GTP        -0.4733
     23 C8          0.2012    2.8401   -1.0899 C.ar      1 GTP         0.2958
     24 N7         -0.7168    3.7990   -1.1981 N.pl3     1 GTP        -0.4933
     25 C5         -1.0645    4.1043    0.0896 C.ar      1 GTP        -0.1494
     26 C6         -2.0336    5.0870    0.5973 C.ar      1 GTP         0.7954
     27 O6         -2.6730    5.7839   -0.1834 O.2       1 GTP        -0.5729
     28 N1         -2.1539    5.1517    1.9868 N.2       1 GTP        -0.7443
     29 C2         -1.4288    4.3650    2.7566 C.ar      1 GTP         0.8831
     30 N2         -1.5126    4.3922    4.1250 N.pl3     1 GTP        -0.9204
     31 N3         -0.5167    3.4388    2.2748 N.pl3     1 GTP        -0.7173
     32 C4         -0.3638    3.3392    0.9318 C.ar      1 GTP         0.2626
     33 HOG3        0.3461    2.6307   -8.5079 H         1 GTP         0.4102
     34 H5'         1.2163   -0.0770   -2.0471 H         1 GTP         0.0289
     35 H5''        2.4655   -1.3443   -2.1563 H         1 GTP         0.0289
     36 H4'         3.8044   -0.1397   -0.4040 H         1 GTP         0.2056
     37 H3'         1.6764   -1.7639    0.2728 H         1 GTP         0.1140
     38 HO3'        2.2232   -1.2979    2.3953 H         1 GTP         0.4287
     39 H2'        -0.0011    0.0027    0.0003 H         1 GTP         0.0809
     40 HO2'       -0.1563   -0.9855    2.0596 H         1 GTP         0.4385
     41 H1'         1.7826    1.9024    1.6451 H         1 GTP         0.0794
     42 H8          0.6787    2.3803   -1.9373 H         1 GTP         0.3821
     43 HN21       -2.1462    5.0320    4.5446 H         1 GTP         0.4411
     44 HN22       -0.9365    3.7712    4.6440 H         1 GTP         0.4411
     45 H45         0.0318    2.8419    2.8816 H         1 GTP         0.4819
     46 H46        -1.0718    4.2049   -2.0526 H         1 GTP         0.5182
@<TRIPOS>BOND
     1    1    2 2
     2    1    3 1
     3    1    4 1
     4    1    5 1
     5    4   33 1
     6    5    6 1
     7    6    7 2
     8    6    8 1
     9    6    9 1
    10    9   10 1
    11   10   11 2
    12   10   12 1
    13   10   13 1
    14   13   14 1
    15   14   15 1
    16   14   34 1
    17   14   35 1
    18   15   16 1
    19   15   17 1
    20   15   36 1
    21   16   21 1
    22   17   18 1
    23   17   19 1
    24   17   37 1
    25   18   38 1
    26   19   20 1
    27   19   21 1
    28   19   39 1
    29   20   40 1
    30   21   22 1
    31   21   41 1
    32   22   23 ar
    33   22   32 ar
    34   23   24 ar
    35   23   42 1
    36   24   25 ar
    37   24   46 1
    38   25   26 ar
    39   25   32 ar
    40   26   27 2
    41   26   28 ar
    42   28   29 ar
    43   29   30 1
    44   29   31 ar
    45   30   43 1
    46   30   44 1
    47   31   32 ar
    48   31   45 1
@<TRIPOS>SUBSTRUCTURE
     1 GTP         1 GROUP 0 A     ****
@<TRIPOS>MOLECULE
[[[5-(2-amino-6-oxo-7,8-dihydro-3~{H}-purin-8-ylium-9-yl)-3,4-dihydroxy-tetrahydrofuran-2-yl]methoxy-oxido-phosphoryl]oxy-oxido-phosphoryl] hydrogen phosphate
   46    48     1     0     0
SMALL
USER_CHARGES

@<TRIPOS>ATOM
      1 PG         -1.8117   -3.5121   -2.5908 P.3       1 GTP         1.5447
      2 O1G        -1.9111   -5.0011   -2.8365 O.co2     1 GTP        -0.8705
      3 O2G        -0.9387   -2.9636   -1.4841 O.co2     1 GTP        -0.8705
      4 O3G        -3.3200   -2.9152   -2.4053 O.3       1 GTP        -0.7914
      5 O3B        -1.4221   -2.7677   -3.9900 O.3       1 GTP        -0.8116
      6 PB         -0.0466   -2.8417   -4.8664 P.3       1 GTP         1.6738
      7 O1B         0.2591   -4.2920   -5.1674 O.co2     1 GTP        -0.8763
      8 O2B        -0.1032   -1.8006   -5.9620 O.co2     1 GTP        -0.8763
      9 O3A         1.0055   -2.2829   -3.7503 O.3       1 GTP        -0.8005
     10 PA          2.6196   -2.0516   -3.8552 P.3       1 GTP         1.5754
     11 O1A         3.2915   -3.3932   -4.0526 O.co2     1 GTP        -0.8771
     12 O2A         2.8833   -0.8983   -4.7986 O.co2     1 GTP        -0.8771
     13 O5'         2.9216   -1.4836   -2.3516 O.3       1 GTP        -0.5809
     14 C5'         2.2816   -0.2918   -1.9206 C.3       1 GTP         0.1986
     15 C4'         2.7248    0.0226   -0.4980 C.3       1 GTP         0.0418
     16 O4'         2.4697    1.4219   -0.2462 O.3       1 GTP        -0.3505
     17 C3'         1.9404   -0.7419    0.5596 C.3       1 GTP         0.0909
     18 O3'         2.7418   -0.8086    1.7389 O.3       1 GTP        -0.6187
     19 C2'         0.7477    0.1630    0.7858 C.3       1 GTP         0.0706
     20 O2'         0.1373   -0.0577    2.0407 O.3       1 GTP        -0.6294
     21 C1'         1.3733    1.5427    0.6747 C.3       1 GTP         0.3895
     22 N9          0.4520    2.5240    0.1767 N.pl3     1 GTP        -0.4733
     23 C8          0.2012    2.8401   -1.0899 C.ar      1 GTP         0.2958
     24 N7         -0.7168    3.7990   -1.1981 N.pl3     1 GTP        -0.4933
     25 C5         -1.0645    4.1043    0.0896 C.ar      1 GTP        -0.1494
     26 C6         -2.0336    5.0870    0.5973 C.ar      1 GTP         0.7954
     27 O6         -2.6730    5.7839   -0.1834 O.2       1 GTP        -0.5729
     28 N1         -2.1539    5.1517    1.9868 N.2       1 GTP        -0.7443
     29 C2         -1.4288    4.3650    2.7566 C.ar      1 GTP         0.8831
     30 N2         -1.5126    4.3922    4.1250 N.pl3     1 GTP        -0.9204
     31 N3         -0.5167    3.4388    2.2748 N.pl3     1 GTP        -0.7173
     32 C4         -0.3638    3.3392    0.9318 C.ar      1 GTP         0.2626
     33 HOG3       -3.4245   -1.9544   -2.2373 H         1 GTP         0.4102
     34 H5'         2.5589    0.5217   -2.5976 H         1 GTP         0.0289
     35 H5''        1.1982   -0.4388   -1.9617 H         1 GTP         0.0289
     36 H4'         3.8044   -0.1397   -0.4040 H         1 GTP         0.2056
     37 H3'         1.6764   -1.7639    0.2728 H         1 GTP         0.1140
     38 HO3'        2.2232   -1.2979    2.3953 H         1 GTP         0.4287
     39 H2'        -0.0011    0.0027    0.0003 H         1 GTP         0.0809
     40 HO2'       -0.6141    0.5574    2.1082 H         1 GTP         0.4385
     41 H1'         1.7826    1.9024    1.6451 H         1 GTP         0.0794
     42 H8          0.6787    2.3803   -1.9373 H         1 GTP         0.3821
     43 HN21       -2.1462    5.0320    4.5446 H         1 GTP         0.4411
     44 HN22       -0.9365    3.7712    4.6440 H         1 GTP         0.4411
     45 H45         0.0318    2.8419    2.8816 H         1 GTP         0.4819
     46 H46        -1.0718    4.2049   -2.0526 H         1 GTP         0.5182
@<TRIPOS>BOND
     1    1    2 2
     2    1    3 1
     3    1    4 1
     4    1    5 1
     5    4   33 1
     6    5    6 1
     7    6    7 2
     8    6    8 1
     9    6    9 1
    10    9   10 1
    11   10   11 2
    12   10   12 1
    13   10   13 1
    14   13   14 1
    15   14   15 1
    16   14   34 1
    17   14   35 1
    18   15   16 1
    19   15   17 1
    20   15   36 1
    21   16   21 1
    22   17   18 1
    23   17   19 1
    24   17   37 1
    25   18   38 1
    26   19   20 1
    27   19   21 1
    28   19   39 1
    29   20   40 1
    30   21   22 1
    31   21   41 1
    32   22   23 ar
    33   22   32 ar
    34   23   24 ar
    35   23   42 1
    36   24   25 ar
    37   24   46 1
    38   25   26 ar
    39   25   32 ar
    40   26   27 2
    41   26   28 ar
    42   28   29 ar
    43   29   30 1
    44   29   31 ar
    45   30   43 1
    46   30   44 1
    47   31   32 ar
    48   31   45 1
@<TRIPOS>SUBSTRUCTURE
     1 GTP         1 GROUP 0 A     ****
@<TRIPOS>MOLECULE
[[[5-(2-amino-6-oxo-7,8-dihydro-3~{H}-purin-8-ylium-9-yl)-3,4-dihydroxy-tetrahydrofuran-2-yl]methoxy-oxido-phosphoryl]oxy-oxido-phosphoryl] hydrogen phosphate
   46    48     1     0     0
SMALL
USER_CHARGES

@<TRIPOS>ATOM
      1 PG          2.0115    6.0686   -2.8730 P.3       1 GTP         1.5447
      2 O1G         3.1629    6.7827   -3.5450 O.co2     1 GTP        -0.8705
      3 O2G         0.6066    6.6250   -2.9395 O.co2     1 GTP        -0.8705
      4 O3G         2.3977    5.8220   -1.3059 O.3       1 GTP        -0.7914
      5 O3B         1.9886    4.5138   -3.3689 O.3       1 GTP        -0.8116
      6 PB          3.1773    3.3946   -3.3571 P.3       1 GTP         1.6738
      7 O1B         4.2656    3.8331   -4.3114 O.co2     1 GTP        -0.8763
      8 O2B         3.4848    3.0168   -1.9252 O.co2     1 GTP        -0.8763
      9 O3A         2.3599    2.1376   -4.0025 O.3       1 GTP        -0.8005
     10 PA          2.8621    0.6170   -4.3270 P.3       1 GTP         1.5754
     11 O1A         1.6809   -0.1909   -4.8193 O.co2     1 GTP        -0.8771
     12 O2A         4.1462    0.6908   -5.1241 O.co2     1 GTP        -0.8771
     13 O5'         3.2903    0.1346   -2.8241 O.3       1 GTP        -0.5809
     14 C5'         2.2816   -0.2918   -1.9206 C.3       1 GTP         0.1986
     15 C4'         2.7248    0.0226   -0.4980 C.3       1 GTP         0.0418
     16 O4'         2.4697    1.4219   -0.2462 O.3       1 GTP        -0.3505
     17 C3'         1.9404   -0.7419    0.5596 C.3       1 GTP         0.0909
     18 O3'         2.7418   -0.8086    1.7389 O.3       1 GTP        -0.6187
     19 C2'         0.7477    0.1630    0.7858 C.3       1 GTP         0.0706
     20 O2'         0.1373   -0.0577    2.0407 O.3       1 GTP        -0.6294
     21 C1'         1.3733    1.5427    0.6747 C.3       1 GTP         0.3895
     22 N9          0.4520    2.5240    0.1767 N.pl3     1 GTP        -0.4733
     23 C8          0.2012    2.8401   -1.0899 C.ar      1 GTP         0.2958
     24 N7         -0.7168    3.7990   -1.1981 N.pl3     1 GTP        -0.4933
     25 C5         -1.0645    4.1043    0.0896 C.ar      1 GTP        -0.1494
     26 C6         -2.0336    5.0870    0.5973 C.ar      1 GTP         0.7954
     27 O6         -2.6730    5.7839   -0.1834 O.2       1 GTP        -0.5729
     28 N1         -2.1539    5.1517    1.9868 N.2       1 GTP        -0.7443
     29 C2         -1.4288    4.3650    2.7566 C.ar      1 GTP         0.8831
     30 N2         -1.5126    4.3922    4.1250 N.pl3     1 GTP        -0.9204
     31 N3         -0.5167    3.4388    2.2748 N.pl3     1 GTP        -0.7173
     32 C4         -0.3638    3.3392    0.9318 C.ar      1 GTP         0.2626
     33 HOG3        1.7471    5.3655   -0.7309 H         1 GTP         0.4102
     34 H5'         1.3514    0.2330   -2.1577 H         1 GTP         0.0289
     35 H5''        2.1280   -1.3678   -2.0460 H         1 GTP         0.0289
     36 H4'         3.8044   -0.1397   -0.4040 H         1 GTP         0.2056
     37 H3'         1.6764   -1.7639    0.2728 H         1 GTP         0.1140
     38 HO3'        2.2232   -1.2979    2.3953 H         1 GTP         0.4287
     39 H2'        -0.0011    0.0027    0.0003 H         1 GTP         0.0809
     40 HO2'       -0.6141    0.5574    2.1082 H         1 GTP         0.4385
     41 H1'         1.7826    1.9024    1.6451 H         1 GTP         0.0794
     42 H8          0.6787    2.3803   -1.9373 H         1 GTP         0.3821
     43 HN21       -2.1462    5.0320    4.5446 H         1 GTP         0.4411
     44 HN22       -0.9365    3.7712    4.6440 H         1 GTP         0.4411
     45 H45         0.0318    2.8419    2.8816 H         1 GTP         0.4819
     46 H46        -1.0718    4.2049   -2.0526 H         1 GTP         0.5182
@<TRIPOS>BOND
     1    1    2 2
     2    1    3 1
     3    1    4 1
     4    1    5 1
     5    4   33 1
     6    5    6 1
     7    6    7 2
     8    6    8 1
     9    6    9 1
    10    9   10 1
    11   10   11 2
    12   10   12 1
    13   10   13 1
    14   13   14 1
    15   14   15 1
    16   14   34 1
    17   14   35 1
    18   15   16 1
    19   15   17 1
    20   15   36 1
    21   16   21 1
    22   17   18 1
    23   17   19 1
    24   17   37 1
    25   18   38 1
    26   19   20 1
    27   19   21 1
    28   19   39 1
    29   20   40 1
    30   21   22 1
    31   21   41 1
    32   22   23 ar
    33   22   32 ar
    34   23   24 ar
    35   23   42 1
    36   24   25 ar
    37   24   46 1
    38   25   26 ar
    39   25   32 ar
    40   26   27 2
    41   26   28 ar
    42   28   29 ar
    43   29   30 1
    44   29   31 ar
    45   30   43 1
    46   30   44 1
    47   31   32 ar
    48   31   45 1
@<TRIPOS>SUBSTRUCTURE
     1 GTP         1 GROUP 0 A     ****
@<TRIPOS>MOLECULE
[[[5-(2-amino-6-oxo-7,8-dihydro-3~{H}-purin-8-ylium-9-yl)-3,4-dihydroxy-tetrahydrofuran-2-yl]methoxy-oxido-phosphoryl]oxy-oxido-phosphoryl] hydrogen phosphate
   46    48     1     0     0
SMALL
USER_CHARGES

@<TRIPOS>ATOM
      1 PG         -2.7097    1.6454   -5.5439 P.3       1 GTP         1.5447
      2 O1G        -3.1708    0.4652   -6.3698 O.co2     1 GTP        -0.8705
      3 O2G        -3.5682    2.1951   -4.4266 O.co2     1 GTP        -0.8705
      4 O3G        -2.3292    2.8692   -6.5555 O.3       1 GTP        -0.7914
      5 O3B        -1.2174    1.3347   -4.9605 O.3       1 GTP        -0.8116
      6 PB          0.1391    0.8790   -5.7466 P.3       1 GTP         1.6738
      7 O1B        -0.0774   -0.5006   -6.3274 O.co2     1 GTP        -0.8763
      8 O2B         0.6251    2.0297   -6.5994 O.co2     1 GTP        -0.8763
      9 O3A         1.1584    0.7817   -4.4753 O.3       1 GTP        -0.8005
     10 PA          2.7407    0.3769   -4.4297 P.3       1 GTP         1.5754
     11 O1A         2.8866   -1.0655   -4.8640 O.co2     1 GTP        -0.8771
     12 O2A         3.5415    1.4776   -5.0906 O.co2     1 GTP        -0.8771
     13 O5'         3.0213    0.5153   -2.8245 O.3       1 GTP        -0.5809
     14 C5'         2.2816   -0.2918   -1.9206 C.3       1 GTP         0.1986
     15 C4'         2.7248    0.0226   -0.4980 C.3       1 GTP         0.0418
     16 O4'         2.4697    1.4219   -0.2462 O.3       1 GTP        -0.3505
     17 C3'         1.9404   -0.7419    0.5596 C.3       1 GTP         0.0909
     18 O3'         2.7418   -0.8086    1.7389 O.3       1 GTP        -0.6187
     19 C2'         0.7477    0.1630    0.7858 C.3       1 GTP         0.0706
     20 O2'         0.1373   -0.0577    2.0407 O.3       1 GTP        -0.6294
     21 C1'         1.3733    1.5427    0.6747 C.3       1 GTP         0.3895
     22 N9          0.4520    2.5240    0.1767 N.pl3     1 GTP        -0.4733
     23 C8          0.5427    3.2356   -0.9425 C.ar      1 GTP         0.2958
     24 N7         -0.4919    4.0590   -1.1018 N.pl3     1 GTP        -0.4933
     25 C5         -1.2850    3.8484   -0.0069 C.ar      1 GTP        -0.1494
     26 C6         -2.5644    4.4707    0.3650 C.ar      1 GTP         0.7954
     27 O6         -3.0718    5.3200   -0.3599 O.2       1 GTP        -0.5729
     28 N1         -3.1239    4.0269    1.5647 N.2       1 GTP        -0.7443
     29 C2         -2.5133    3.1079    2.2858 C.ar      1 GTP         0.8831
     30 N2         -3.0239    2.6409    3.4697 N.pl3     1 GTP        -0.9204
     31 N3         -1.3076    2.5223    1.9320 N.pl3     1 GTP        -0.7173
     32 C4         -0.7246    2.9211    0.7753 C.ar      1 GTP         0.2626
     33 HOG3       -2.0103    3.7125   -6.1689 H         1 GTP         0.4102
     34 H5'         1.2163   -0.0770   -2.0471 H         1 GTP         0.0289
     35 H5''        2.4655   -1.3443   -2.1563 H         1 GTP         0.0289
     36 H4'         3.8044   -0.1397   -0.4040 H         1 GTP         0.2056
     37 H3'         1.6764   -1.7639    0.2728 H         1 GTP         0.1140
     38 HO3'        2.2232   -1.2979    2.3953 H         1 GTP         0.4287
     39 H2'        -0.0011    0.0027    0.0003 H         1 GTP         0.0809
     40 HO2'       -0.1563   -0.9855    2.0596 H         1 GTP         0.4385
     41 H1'         1.7826    1.9024    1.6451 H         1 GTP         0.0794
     42 H8          1.3539    3.1622   -1.6455 H         1 GTP         0.3821
     43 HN21       -3.8871    3.0143    3.7893 H         1 GTP         0.4411
     44 HN22       -2.5108    1.9472    3.9621 H         1 GTP         0.4411
     45 H45        -0.8530    1.8168    2.4986 H         1 GTP         0.4819
     46 H46        -0.6466    4.6966   -1.8702 H         1 GTP         0.5182
@<TRIPOS>BOND
     1    1    2 2
     2    1    3 1
     3    1    4 1
     4    1    5 1
     5    4   33 1
     6    5    6 1
     7    6    7 2
     8    6    8 1
     9    6    9 1
    10    9   10 1
    11   10   11 2
    12   10   12 1
    13   10   13 1
    14   13   14 1
    15   14   15 1
    16   14   34 1
    17   14   35 1
    18   15   16 1
    19   15   17 1
    20   15   36 1
    21   16   21 1
    22   17   18 1
    23   17   19 1
    24   17   37 1
    25   18   38 1
    26   19   20 1
    27   19   21 1
    28   19   39 1
    29   20   40 1
    30   21   22 1
    31   21   41 1
    32   22   23 ar
    33   22   32 ar
    34   23   24 ar
    35   23   42 1
    36   24   25 ar
    37   24   46 1
    38   25   26 ar
    39   25   32 ar
    40   26   27 2
    41   26   28 ar
    42   28   29 ar
    43   29   30 1
    44   29   31 ar
    45   30   43 1
    46   30   44 1
    47   31   32 ar
    48   31   45 1
@<TRIPOS>SUBSTRUCTURE
     1 GTP         1 GROUP 0 A     ****
@<TRIPOS>MOLECULE
[[[5-(2-amino-6-oxo-7,8-dihydro-3~{H}-purin-8-ylium-9-yl)-3,4-dihydroxy-tetrahydrofuran-2-yl]methoxy-oxido-phosphoryl]oxy-oxido-phosphoryl] hydrogen phosphate
   46    48     1     0     0
SMALL
USER_CHARGES

@<TRIPOS>ATOM
      1 PG         -5.9285   -3.9292    2.4587 P.3       1 GTP         1.5447
      2 O1G        -5.2352   -3.8556    3.8009 O.co2     1 GTP        -0.8705
      3 O2G        -5.7658   -2.8248    1.4382 O.co2     1 GTP        -0.8705
      4 O3G        -7.5234   -4.1707    2.7114 O.3       1 GTP        -0.7914
      5 O3B        -5.5715   -5.3574    1.7540 O.3       1 GTP        -0.8116
      6 PB         -4.1458   -5.9174    1.1889 P.3       1 GTP         1.6738
      7 O1B        -4.3265   -7.3558    0.7577 O.co2     1 GTP        -0.8763
      8 O2B        -3.5412   -4.8838    0.2649 O.co2     1 GTP        -0.8763
      9 O3A        -3.2784   -5.8672    2.5709 O.3       1 GTP        -0.8005
     10 PA         -1.7207   -6.2770    2.8455 P.3       1 GTP         1.5754
     11 O1A        -1.3736   -5.9369    4.2788 O.co2     1 GTP        -0.8771
     12 O2A        -1.4795   -7.6638    2.2902 O.co2     1 GTP        -0.8771
     13 O5'        -0.9724   -5.2440    1.8220 O.3       1 GTP        -0.5809
     14 C5'        -0.7840   -3.8935    2.2172 C.3       1 GTP         0.1986
     15 C4'        -0.0724   -3.1466    1.1027 C.3       1 GTP         0.0418
     16 O4'        -0.8674   -3.1929   -0.0945 O.3       1 GTP        -0.3505
     17 C3'         0.1338   -1.6715    1.4027 C.3       1 GTP         0.0909
     18 O3'         1.2893   -1.4445    2.1808 O.3       1 GTP        -0.6187
     19 C2'         0.2158   -1.0724    0.0128 C.3       1 GTP         0.0706
     20 O2'         1.5141   -1.2448   -0.5513 O.3       1 GTP        -0.6294
     21 C1'        -0.7897   -1.9176   -0.7583 C.3       1 GTP         0.3895
     22 N9         -2.1040   -1.3333   -0.7704 N.pl3     1 GTP        -0.4733
     23 C8         -3.0774   -1.4939    0.1205 C.ar      1 GTP         0.2958
     24 N7         -4.1709   -0.8031   -0.1972 N.pl3     1 GTP        -0.4933
     25 C5         -3.8606   -0.1662   -1.3678 C.ar      1 GTP        -0.1494
     26 C6         -4.6738    0.7391   -2.1934 C.ar      1 GTP         0.7954
     27 O6         -5.8186    1.0214   -1.8562 O.2       1 GTP        -0.5729
     28 N1         -4.0520    1.2260   -3.3448 N.2       1 GTP        -0.7443
     29 C2         -2.8155    0.8734   -3.6351 C.ar      1 GTP         0.8831
     30 N2         -2.1637    1.3257   -4.7536 N.pl3     1 GTP        -0.9204
     31 N3         -2.0511    0.0205   -2.8541 N.pl3     1 GTP        -0.7173
     32 C4         -2.6117   -0.4790   -1.7258 C.ar      1 GTP         0.2626
     33 HOG3       -8.1143   -4.2413    1.9316 H         1 GTP         0.4102
     34 H5'        -1.7618   -3.4448    2.4164 H         1 GTP         0.0289
     35 H5''       -0.1874   -3.8744    3.1341 H         1 GTP         0.0289
     36 H4'         0.8874   -3.6466    0.8805 H         1 GTP         0.2056
     37 H3'        -0.7376   -1.2333    1.9867 H         1 GTP         0.1140
     38 HO3'        1.3408   -0.4870    2.3219 H         1 GTP         0.4287
     39 H2'        -0.0384   -0.0310    0.0096 H         1 GTP         0.0809
     40 HO2'        2.1463   -0.7958    0.0370 H         1 GTP         0.4385
     41 H1'        -0.4769   -2.1002   -1.8093 H         1 GTP         0.0794
     42 H8         -3.0010   -2.1083    1.0004 H         1 GTP         0.3821
     43 HN21       -2.6485    1.9422   -5.3633 H         1 GTP         0.4411
     44 HN22       -1.2319    1.0195   -4.9110 H         1 GTP         0.4411
     45 H45        -1.1018   -0.2391   -3.0927 H         1 GTP         0.4819
     46 H46        -5.0365   -0.7653    0.3226 H         1 GTP         0.5182
@<TRIPOS>BOND
     1    1    2 2
     2    1    3 1
     3    1    4 1
     4    1    5 1
     5    4   33 1
     6    5    6 1
     7    6    7 2
     8    6    8 1
     9    6    9 1
    10    9   10 1
    11   10   11 2
    12   10   12 1
    13   10   13 1
    14   13   14 1
    15   14   15 1
    16   14   34 1
    17   14   35 1
    18   15   16 1
    19   15   17 1
    20   15   36 1
    21   16   21 1
    22   17   18 1
    23   17   19 1
    24   17   37 1
    25   18   38 1
    26   19   20 1
    27   19   21 1
    28   19   39 1
    29   20   40 1
    30   21   22 1
    31   21   41 1
    32   22   23 ar
    33   22   32 ar
    34   23   24 ar
    35   23   42 1
    36   24   25 ar
    37   24   46 1
    38   25   26 ar
    39   25   32 ar
    40   26   27 2
    41   26   28 ar
    42   28   29 ar
    43   29   30 1
    44   29   31 ar
    45   30   43 1
    46   30   44 1
    47   31   32 ar
    48   31   45 1
@<TRIPOS>SUBSTRUCTURE
     1 GTP         1 GROUP 0 A     ****
@<TRIPOS>MOLECULE
[[[5-(2-amino-6-oxo-7,8-dihydro-3~{H}-purin-8-ylium-9-yl)-3,4-dihydroxy-tetrahydrofuran-2-yl]methoxy-oxido-phosphoryl]oxy-oxido-phosphoryl] hydrogen phosphate
   46    48     1     0     0
SMALL
USER_CHARGES

@<TRIPOS>ATOM
      1 PG          7.1661   -1.0280   -6.0480 P.3       1 GTP         1.5447
      2 O1G         7.7973   -2.3891   -6.2385 O.co2     1 GTP        -0.8705
      3 O2G         7.2079    0.0091   -7.1482 O.co2     1 GTP        -0.8705
      4 O3G         7.7702   -0.3623   -4.6849 O.3       1 GTP        -0.7914
      5 O3B         5.6199   -1.2226   -5.5631 O.3       1 GTP        -0.8116
      6 PB          5.0152   -2.0896   -4.3188 P.3       1 GTP         1.6738
      7 O1B         5.2682   -3.5572   -4.5823 O.co2     1 GTP        -0.8763
      8 O2B         5.4250   -1.4367   -3.0175 O.co2     1 GTP        -0.8763
      9 O3A         3.4281   -1.7650   -4.5203 O.3       1 GTP        -0.8005
     10 PA          2.1372   -2.2718   -3.6563 P.3       1 GTP         1.5754
     11 O1A         0.8958   -1.5923   -4.1925 O.co2     1 GTP        -0.8771
     12 O2A         2.2074   -3.7770   -3.5183 O.co2     1 GTP        -0.8771
     13 O5'         2.5245   -1.6648   -2.1878 O.3       1 GTP        -0.5809
     14 C5'         2.2816   -0.2918   -1.9206 C.3       1 GTP         0.1986
     15 C4'         2.7248    0.0226   -0.4980 C.3       1 GTP         0.0418
     16 O4'         2.4697    1.4219   -0.2462 O.3       1 GTP        -0.3505
     17 C3'         1.9404   -0.7419    0.5596 C.3       1 GTP         0.0909
     18 O3'         2.7418   -0.8086    1.7389 O.3       1 GTP        -0.6187
     19 C2'         0.7477    0.1630    0.7858 C.3       1 GTP         0.0706
     20 O2'         0.1373   -0.0577    2.0407 O.3       1 GTP        -0.6294
     21 C1'         1.3733    1.5427    0.6747 C.3       1 GTP         0.3895
     22 N9          0.4520    2.5240    0.1767 N.pl3     1 GTP        -0.4733
     23 C8          0.2012    2.8401   -1.0899 C.ar      1 GTP         0.2958
     24 N7         -0.7168    3.7990   -1.1981 N.pl3     1 GTP        -0.4933
     25 C5         -1.0645    4.1043    0.0896 C.ar      1 GTP        -0.1494
     26 C6         -2.0336    5.0870    0.5973 C.ar      1 GTP         0.7954
     27 O6         -2.6730    5.7839   -0.1834 O.2       1 GTP        -0.5729
     28 N1         -2.1539    5.1517    1.9868 N.2       1 GTP        -0.7443
     29 C2         -1.4288    4.3650    2.7566 C.ar      1 GTP         0.8831
     30 N2         -1.5126    4.3922    4.1250 N.pl3     1 GTP        -0.9204
     31 N3         -0.5167    3.4388    2.2748 N.pl3     1 GTP        -0.7173
     32 C4         -0.3638    3.3392    0.9318 C.ar      1 GTP         0.2626
     33 HOG3        7.4563    0.5290   -4.4218 H         1 GTP         0.4102
     34 H5'         2.8432    0.3119   -2.6398 H         1 GTP         0.0289
     35 H5''        1.2128   -0.0927   -2.0428 H         1 GTP         0.0289
     36 H4'         3.8044   -0.1397   -0.4040 H         1 GTP         0.2056
     37 H3'         1.6764   -1.7639    0.2728 H         1 GTP         0.1140
     38 HO3'        2.2232   -1.2979    2.3953 H         1 GTP         0.4287
     39 H2'        -0.0011    0.0027    0.0003 H         1 GTP         0.0809
     40 HO2'       -0.6141    0.5574    2.1082 H         1 GTP         0.4385
     41 H1'         1.7826    1.9024    1.6451 H         1 GTP         0.0794
     42 H8          0.6787    2.3803   -1.9373 H         1 GTP         0.3821
     43 HN21       -2.1462    5.0320    4.5446 H         1 GTP         0.4411
     44 HN22       -0.9365    3.7712    4.6440 H         1 GTP         0.4411
     45 H45         0.0318    2.8419    2.8816 H         1 GTP         0.4819
     46 H46        -1.0718    4.2049   -2.0526 H         1 GTP         0.5182
@<TRIPOS>BOND
     1    1    2 2
     2    1    3 1
     3    1    4 1
     4    1    5 1
     5    4   33 1
     6    5    6 1
     7    6    7 2
     8    6    8 1
     9    6    9 1
    10    9   10 1
    11   10   11 2
    12   10   12 1
    13   10   13 1
    14   13   14 1
    15   14   15 1
    16   14   34 1
    17   14   35 1
    18   15   16 1
    19   15   17 1
    20   15   36 1
    21   16   21 1
    22   17   18 1
    23   17   19 1
    24   17   37 1
    25   18   38 1
    26   19   20 1
    27   19   21 1
    28   19   39 1
    29   20   40 1
    30   21   22 1
    31   21   41 1
    32   22   23 ar
    33   22   32 ar
    34   23   24 ar
    35   23   42 1
    36   24   25 ar
    37   24   46 1
    38   25   26 ar
    39   25   32 ar
    40   26   27 2
    41   26   28 ar
    42   28   29 ar
    43   29   30 1
    44   29   31 ar
    45   30   43 1
    46   30   44 1
    47   31   32 ar
    48   31   45 1
@<TRIPOS>SUBSTRUCTURE
     1 GTP         1 GROUP 0 A     ****
@<TRIPOS>MOLECULE
[[[5-(2-amino-6-oxo-7,8-dihydro-3~{H}-purin-8-ylium-9-yl)-3,4-dihydroxy-tetrahydrofuran-2-yl]methoxy-oxido-phosphoryl]oxy-oxido-phosphoryl] hydrogen phosphate
   46    48     1     0     0
SMALL
USER_CHARGES

@<TRIPOS>ATOM
      1 PG          1.5182   -4.1314   -7.7748 P.3       1 GTP         1.5447
      2 O1G         1.9498   -3.3254   -8.9796 O.co2     1 GTP        -0.8705
      3 O2G         2.0732   -5.5164   -7.5267 O.co2     1 GTP        -0.8705
      4 O3G        -0.1123   -4.2169   -7.7651 O.3       1 GTP        -0.7914
      5 O3B         1.7259   -3.2297   -6.4304 O.3       1 GTP        -0.8116
      6 PB          1.1870   -1.7278   -6.0847 P.3       1 GTP         1.6738
      7 O1B         1.8556   -0.7455   -7.0204 O.co2     1 GTP        -0.8763
      8 O2B        -0.3161   -1.7684   -5.9217 O.co2     1 GTP        -0.8763
      9 O3A         1.8113   -1.5642   -4.5853 O.3       1 GTP        -0.8005
     10 PA          1.5544   -2.4558   -3.2404 P.3       1 GTP         1.5754
     11 O1A         0.1056   -2.3088   -2.8286 O.co2     1 GTP        -0.8771
     12 O2A         2.1769   -3.8208   -3.4380 O.co2     1 GTP        -0.8771
     13 O5'         2.5245   -1.6648   -2.1878 O.3       1 GTP        -0.5809
     14 C5'         2.2816   -0.2918   -1.9206 C.3       1 GTP         0.1986
     15 C4'         2.7248    0.0226   -0.4980 C.3       1 GTP         0.0418
     16 O4'         2.4697    1.4219   -0.2462 O.3       1 GTP        -0.3505
     17 C3'         1.9404   -0.7419    0.5596 C.3       1 GTP         0.0909
     18 O3'         2.7418   -0.8086    1.7389 O.3       1 GTP        -0.6187
     19 C2'         0.7477    0.1630    0.7858 C.3       1 GTP         0.0706
     20 O2'         0.1373   -0.0577    2.0407 O.3       1 GTP        -0.6294
     21 C1'         1.3733    1.5427    0.6747 C.3       1 GTP         0.3895
     22 N9          0.4520    2.5240    0.1767 N.pl3     1 GTP        -0.4733
     23 C8          0.2012    2.8401   -1.0899 C.ar      1 GTP         0.2958
     24 N7         -0.7168    3.7990   -1.1981 N.pl3     1 GTP        -0.4933
     25 C5         -1.0645    4.1043    0.0896 C.ar      1 GTP        -0.1494
     26 C6         -2.0336    5.0870    0.5973 C.ar      1 GTP         0.7954
     27 O6         -2.6730    5.7839   -0.1834 O.2       1 GTP        -0.5729
     28 N1         -2.1539    5.1517    1.9868 N.2       1 GTP        -0.7443
     29 C2         -1.4288    4.3650    2.7566 C.ar      1 GTP         0.8831
     30 N2         -1.5126    4.3922    4.1250 N.pl3     1 GTP        -0.9204
     31 N3         -0.5167    3.4388    2.2748 N.pl3     1 GTP        -0.7173
     32 C4         -0.3638    3.3392    0.9318 C.ar      1 GTP         0.2626
     33 HOG3       -0.5496   -4.7111   -7.0392 H         1 GTP         0.4102
     34 H5'         2.8432    0.3119   -2.6398 H         1 GTP         0.0289
     35 H5''        1.2128   -0.0927   -2.0428 H         1 GTP         0.0289
     36 H4'         3.8044   -0.1397   -0.4040 H         1 GTP         0.2056
     37 H3'         1.6764   -1.7639    0.2728 H         1 GTP         0.1140
     38 HO3'        2.2232   -1.2979    2.3953 H         1 GTP         0.4287
     39 H2'        -0.0011    0.0027    0.0003 H         1 GTP         0.0809
     40 HO2'       -0.6141    0.5574    2.1082 H         1 GTP         0.4385
     41 H1'         1.7826    1.9024    1.6451 H         1 GTP         0.0794
     42 H8          0.6787    2.3803   -1.9373 H         1 GTP         0.3821
     43 HN21       -2.1462    5.0320    4.5446 H         1 GTP         0.4411
     44 HN22       -0.9365    3.7712    4.6440 H         1 GTP         0.4411
     45 H45         0.0318    2.8419    2.8816 H         1 GTP         0.4819
     46 H46        -1.0718    4.2049   -2.0526 H         1 GTP         0.5182
@<TRIPOS>BOND
     1    1    2 2
     2    1    3 1
     3    1    4 1
     4    1    5 1
     5    4   33 1
     6    5    6 1
     7    6    7 2
     8    6    8 1
     9    6    9 1
    10    9   10 1
    11   10   11 2
    12   10   12 1
    13   10   13 1
    14   13   14 1
    15   14   15 1
    16   14   34 1
    17   14   35 1
    18   15   16 1
    19   15   17 1
    20   15   36 1
    21   16   21 1
    22   17   18 1
    23   17   19 1
    24   17   37 1
    25   18   38 1
    26   19   20 1
    27   19   21 1
    28   19   39 1
    29   20   40 1
    30   21   22 1
    31   21   41 1
    32   22   23 ar
    33   22   32 ar
    34   23   24 ar
    35   23   42 1
    36   24   25 ar
    37   24   46 1
    38   25   26 ar
    39   25   32 ar
    40   26   27 2
    41   26   28 ar
    42   28   29 ar
    43   29   30 1
    44   29   31 ar
    45   30   43 1
    46   30   44 1
    47   31   32 ar
    48   31   45 1
@<TRIPOS>SUBSTRUCTURE
     1 GTP         1 GROUP 0 A     ****
@<TRIPOS>MOLECULE
[[[5-(2-amino-6-oxo-7,8-dihydro-3~{H}-purin-8-ylium-9-yl)-3,4-dihydroxy-tetrahydrofuran-2-yl]methoxy-oxido-phosphoryl]oxy-oxido-phosphoryl] hydrogen phosphate
   46    48     1     0     0
SMALL
USER_CHARGES

@<TRIPOS>ATOM
      1 PG          6.6142   -3.3609   -5.1189 P.3       1 GTP         1.5447
      2 O1G         7.2558   -2.8007   -6.3687 O.co2     1 GTP        -0.8705
      3 O2G         7.3329   -3.3151   -3.7888 O.co2     1 GTP        -0.8705
      4 O3G         6.1656   -4.9031   -5.4128 O.3       1 GTP        -0.7914
      5 O3B         5.1315   -2.7023   -4.9419 O.3       1 GTP        -0.8116
      6 PB          4.7038   -1.1596   -4.6210 P.3       1 GTP         1.6738
      7 O1B         5.1859   -0.8016   -3.2329 O.co2     1 GTP        -0.8763
      8 O2B         5.0312   -0.2974   -5.8197 O.co2     1 GTP        -0.8763
      9 O3A         3.0809   -1.3355   -4.6062 O.3       1 GTP        -0.8005
     10 PA          2.1372   -2.2718   -3.6563 P.3       1 GTP         1.5754
     11 O1A         0.6864   -1.9828   -3.9759 O.co2     1 GTP        -0.8771
     12 O2A         2.6769   -3.6852   -3.6801 O.co2     1 GTP        -0.8771
     13 O5'         2.5245   -1.6648   -2.1878 O.3       1 GTP        -0.5809
     14 C5'         2.2816   -0.2918   -1.9206 C.3       1 GTP         0.1986
     15 C4'         2.7248    0.0226   -0.4980 C.3       1 GTP         0.0418
     16 O4'         2.4697    1.4219   -0.2462 O.3       1 GTP        -0.3505
     17 C3'         1.9404   -0.7419    0.5596 C.3       1 GTP         0.0909
     18 O3'         2.7418   -0.8086    1.7389 O.3       1 GTP        -0.6187
     19 C2'         0.7477    0.1630    0.7858 C.3       1 GTP         0.0706
     20 O2'         0.1373   -0.0577    2.0407 O.3       1 GTP        -0.6294
     21 C1'         1.3733    1.5427    0.6747 C.3       1 GTP         0.3895
     22 N9          0.4520    2.5240    0.1767 N.pl3     1 GTP        -0.4733
     23 C8          0.2012    2.8401   -1.0899 C.ar      1 GTP         0.2958
     24 N7         -0.7168    3.7990   -1.1981 N.pl3     1 GTP        -0.4933
     25 C5         -1.0645    4.1043    0.0896 C.ar      1 GTP        -0.1494
     26 C6         -2.0336    5.0870    0.5973 C.ar      1 GTP         0.7954
     27 O6         -2.6730    5.7839   -0.1834 O.2       1 GTP        -0.5729
     28 N1         -2.1539    5.1517    1.9868 N.2       1 GTP        -0.7443
     29 C2         -1.4288    4.3650    2.7566 C.ar      1 GTP         0.8831
     30 N2         -1.5126    4.3922    4.1250 N.pl3     1 GTP        -0.9204
     31 N3         -0.5167    3.4388    2.2748 N.pl3     1 GTP        -0.7173
     32 C4         -0.3638    3.3392    0.9318 C.ar      1 GTP         0.2626
     33 HOG3        5.7308   -5.4082   -4.6930 H         1 GTP         0.4102
     34 H5'         2.8432    0.3119   -2.6398 H         1 GTP         0.0289
     35 H5''        1.2128   -0.0927   -2.0428 H         1 GTP         0.0289
     36 H4'         3.8044   -0.1397   -0.4040 H         1 GTP         0.2056
     37 H3'         1.6764   -1.7639    0.2728 H         1 GTP         0.1140
     38 HO3'        2.2232   -1.2979    2.3953 H         1 GTP         0.4287
     39 H2'        -0.0011    0.0027    0.0003 H         1 GTP         0.0809
     40 HO2'       -0.6141    0.5574    2.1082 H         1 GTP         0.4385
     41 H1'         1.7826    1.9024    1.6451 H         1 GTP         0.0794
     42 H8          0.6787    2.3803   -1.9373 H         1 GTP         0.3821
     43 HN21       -2.1462    5.0320    4.5446 H         1 GTP         0.4411
     44 HN22       -0.9365    3.7712    4.6440 H         1 GTP         0.4411
     45 H45         0.0318    2.8419    2.8816 H         1 GTP         0.4819
     46 H46        -1.0718    4.2049   -2.0526 H         1 GTP         0.5182
@<TRIPOS>BOND
     1    1    2 2
     2    1    3 1
     3    1    4 1
     4    1    5 1
     5    4   33 1
     6    5    6 1
     7    6    7 2
     8    6    8 1
     9    6    9 1
    10    9   10 1
    11   10   11 2
    12   10   12 1
    13   10   13 1
    14   13   14 1
    15   14   15 1
    16   14   34 1
    17   14   35 1
    18   15   16 1
    19   15   17 1
    20   15   36 1
    21   16   21 1
    22   17   18 1
    23   17   19 1
    24   17   37 1
    25   18   38 1
    26   19   20 1
    27   19   21 1
    28   19   39 1
    29   20   40 1
    30   21   22 1
    31   21   41 1
    32   22   23 ar
    33   22   32 ar
    34   23   24 ar
    35   23   42 1
    36   24   25 ar
    37   24   46 1
    38   25   26 ar
    39   25   32 ar
    40   26   27 2
    41   26   28 ar
    42   28   29 ar
    43   29   30 1
    44   29   31 ar
    45   30   43 1
    46   30   44 1
    47   31   32 ar
    48   31   45 1
@<TRIPOS>SUBSTRUCTURE
     1 GTP         1 GROUP 0 A     ****
@<TRIPOS>MOLECULE
[[[5-(2-amino-6-oxo-7,8-dihydro-3~{H}-purin-8-ylium-9-yl)-3,4-dihydroxy-tetrahydrofuran-2-yl]methoxy-oxido-phosphoryl]oxy-oxido-phosphoryl] hydrogen phosphate
   46    48     1     0     0
SMALL
USER_CHARGES

@<TRIPOS>ATOM
      1 PG          7.8999   -3.4491   -1.4105 P.3       1 GTP         1.5447
      2 O1G         7.5736   -4.8641   -1.8334 O.co2     1 GTP        -0.8705
      3 O2G         9.2218   -2.8130   -1.7789 O.co2     1 GTP        -0.8705
      4 O3G         7.7009   -3.3319    0.2059 O.3       1 GTP        -0.7914
      5 O3B         6.6885   -2.4615   -1.8804 O.3       1 GTP        -0.8116
      6 PB          6.2090   -2.0356   -3.3818 P.3       1 GTP         1.6738
      7 O1B         7.3110   -1.2295   -4.0323 O.co2     1 GTP        -0.8763
      8 O2B         5.5996   -3.2395   -4.0651 O.co2     1 GTP        -0.8763
      9 O3A         4.9693   -1.0482   -2.9906 O.3       1 GTP        -0.8005
     10 PA          3.9554   -0.2064   -3.9565 P.3       1 GTP         1.5754
     11 O1A         4.7549    0.8313   -4.7144 O.co2     1 GTP        -0.8771
     12 O2A         3.0547   -1.1827   -4.6813 O.co2     1 GTP        -0.8771
     13 O5'         3.0213    0.5153   -2.8245 O.3       1 GTP        -0.5809
     14 C5'         2.2816   -0.2918   -1.9206 C.3       1 GTP         0.1986
     15 C4'         2.7248    0.0226   -0.4980 C.3       1 GTP         0.0418
     16 O4'         2.4697    1.4219   -0.2462 O.3       1 GTP        -0.3505
     17 C3'         1.9404   -0.7419    0.5596 C.3       1 GTP         0.0909
     18 O3'         2.7418   -0.8086    1.7389 O.3       1 GTP        -0.6187
     19 C2'         0.7477    0.1630    0.7858 C.3       1 GTP         0.0706
     20 O2'         0.1373   -0.0577    2.0407 O.3       1 GTP        -0.6294
     21 C1'         1.3733    1.5427    0.6747 C.3       1 GTP         0.3895
     22 N9          0.4520    2.5240    0.1767 N.pl3     1 GTP        -0.4733
     23 C8          0.2012    2.8401   -1.0899 C.ar      1 GTP         0.2958
     24 N7         -0.7168    3.7990   -1.1981 N.pl3     1 GTP        -0.4933
     25 C5         -1.0645    4.1043    0.0896 C.ar      1 GTP        -0.1494
     26 C6         -2.0336    5.0870    0.5973 C.ar      1 GTP         0.7954
     27 O6         -2.6730    5.7839   -0.1834 O.2       1 GTP        -0.5729
     28 N1         -2.1539    5.1517    1.9868 N.2       1 GTP        -0.7443
     29 C2         -1.4288    4.3650    2.7566 C.ar      1 GTP         0.8831
     30 N2         -1.5126    4.3922    4.1250 N.pl3     1 GTP        -0.9204
     31 N3         -0.5167    3.4388    2.2748 N.pl3     1 GTP        -0.7173
     32 C4         -0.3638    3.3392    0.9318 C.ar      1 GTP         0.2626
     33 HOG3        7.8755   -2.4679    0.6364 H         1 GTP         0.4102
     34 H5'         1.2163   -0.0770   -2.0471 H         1 GTP         0.0289
     35 H5''        2.4655   -1.3443   -2.1563 H         1 GTP         0.0289
     36 H4'         3.8044   -0.1397   -0.4040 H         1 GTP         0.2056
     37 H3'         1.6764   -1.7639    0.2728 H         1 GTP         0.1140
     38 HO3'        2.2232   -1.2979    2.3953 H         1 GTP         0.4287
     39 H2'        -0.0011    0.0027    0.0003 H         1 GTP         0.0809
     40 HO2'       -0.6141    0.5574    2.1082 H         1 GTP         0.4385
     41 H1'         1.7826    1.9024    1.6451 H         1 GTP         0.0794
     42 H8          0.6787    2.3803   -1.9373 H         1 GTP         0.3821
     43 HN21       -2.1462    5.0320    4.5446 H         1 GTP         0.4411
     44 HN22       -0.9365    3.7712    4.6440 H         1 GTP         0.4411
     45 H45         0.0318    2.8419    2.8816 H         1 GTP         0.4819
     46 H46        -1.0718    4.2049   -2.0526 H         1 GTP         0.5182
@<TRIPOS>BOND
     1    1    2 2
     2    1    3 1
     3    1    4 1
     4    1    5 1
     5    4   33 1
     6    5    6 1
     7    6    7 2
     8    6    8 1
     9    6    9 1
    10    9   10 1
    11   10   11 2
    12   10   12 1
    13   10   13 1
    14   13   14 1
    15   14   15 1
    16   14   34 1
    17   14   35 1
    18   15   16 1
    19   15   17 1
    20   15   36 1
    21   16   21 1
    22   17   18 1
    23   17   19 1
    24   17   37 1
    25   18   38 1
    26   19   20 1
    27   19   21 1
    28   19   39 1
    29   20   40 1
    30   21   22 1
    31   21   41 1
    32   22   23 ar
    33   22   32 ar
    34   23   24 ar
    35   23   42 1
    36   24   25 ar
    37   24   46 1
    38   25   26 ar
    39   25   32 ar
    40   26   27 2
    41   26   28 ar
    42   28   29 ar
    43   29   30 1
    44   29   31 ar
    45   30   43 1
    46   30   44 1
    47   31   32 ar
    48   31   45 1
@<TRIPOS>SUBSTRUCTURE
     1 GTP         1 GROUP 0 A     ****
@<TRIPOS>MOLECULE
[[[5-(2-amino-6-oxo-7,8-dihydro-3~{H}-purin-8-ylium-9-yl)-3,4-dihydroxy-tetrahydrofuran-2-yl]methoxy-oxido-phosphoryl]oxy-oxido-phosphoryl] hydrogen phosphate
   46    48     1     0     0
SMALL
USER_CHARGES

@<TRIPOS>ATOM
      1 PG         -0.5249   -1.3860   -7.5277 P.3       1 GTP         1.5447
      2 O1G        -2.0109   -1.4391   -7.2512 O.co2     1 GTP        -0.8705
      3 O2G         0.0054   -0.7976   -8.8161 O.co2     1 GTP        -0.8705
      4 O3G         0.0892   -2.8887   -7.3526 O.3       1 GTP        -0.7914
      5 O3B         0.2240   -0.6654   -6.2693 O.3       1 GTP        -0.8116
      6 PB          0.1391    0.8790   -5.7466 P.3       1 GTP         1.6738
      7 O1B         0.7346    1.7821   -6.8037 O.co2     1 GTP        -0.8763
      8 O2B        -1.2381    1.1310   -5.1743 O.co2     1 GTP        -0.8763
      9 O3A         1.1584    0.7817   -4.4753 O.3       1 GTP        -0.8005
     10 PA          2.7407    0.3769   -4.4297 P.3       1 GTP         1.5754
     11 O1A         2.8866   -1.0655   -4.8640 O.co2     1 GTP        -0.8771
     12 O2A         3.5415    1.4776   -5.0906 O.co2     1 GTP        -0.8771
     13 O5'         3.0213    0.5153   -2.8245 O.3       1 GTP        -0.5809
     14 C5'         2.2816   -0.2918   -1.9206 C.3       1 GTP         0.1986
     15 C4'         2.7248    0.0226   -0.4980 C.3       1 GTP         0.0418
     16 O4'         2.4697    1.4219   -0.2462 O.3       1 GTP        -0.3505
     17 C3'         1.9404   -0.7419    0.5596 C.3       1 GTP         0.0909
     18 O3'         2.7418   -0.8086    1.7389 O.3       1 GTP        -0.6187
     19 C2'         0.7477    0.1630    0.7858 C.3       1 GTP         0.0706
     20 O2'         0.1373   -0.0577    2.0407 O.3       1 GTP        -0.6294
     21 C1'         1.3733    1.5427    0.6747 C.3       1 GTP         0.3895
     22 N9          0.4520    2.5240    0.1767 N.pl3     1 GTP        -0.4733
     23 C8         -0.6872    2.9292    0.7291 C.ar      1 GTP         0.2958
     24 N7         -1.2991    3.8596   -0.0015 N.pl3     1 GTP        -0.4933
     25 C5         -0.4870    4.0499   -1.0861 C.ar      1 GTP        -0.1494
     26 C6         -0.6427    4.9562   -2.2336 C.ar      1 GTP         0.7954
     27 O6         -1.6219    5.6904   -2.3123 O.2       1 GTP        -0.5729
     28 N1          0.3798    4.9069   -3.1832 N.2       1 GTP        -0.7443
     29 C2          1.4004    4.0885   -3.0226 C.ar      1 GTP         0.8831
     30 N2          2.4275    4.0052   -3.9273 N.pl3     1 GTP        -0.9204
     31 N3          1.5448    3.2359   -1.9390 N.pl3     1 GTP        -0.7173
     32 C4          0.5769    3.2470   -0.9903 C.ar      1 GTP         0.2626
     33 HOG3        1.0501   -3.0205   -7.4998 H         1 GTP         0.4102
     34 H5'         1.2163   -0.0770   -2.0471 H         1 GTP         0.0289
     35 H5''        2.4655   -1.3443   -2.1563 H         1 GTP         0.0289
     36 H4'         3.8044   -0.1397   -0.4040 H         1 GTP         0.2056
     37 H3'         1.6764   -1.7639    0.2728 H         1 GTP         0.1140
     38 HO3'        2.2232   -1.2979    2.3953 H         1 GTP         0.4287
     39 H2'        -0.0011    0.0027    0.0003 H         1 GTP         0.0809
     40 HO2'       -0.1563   -0.9855    2.0596 H         1 GTP         0.4385
     41 H1'         1.7826    1.9024    1.6451 H         1 GTP         0.0794
     42 H8         -1.0786    2.5555    1.6591 H         1 GTP         0.3821
     43 HN21        2.3939    4.5871   -4.7317 H         1 GTP         0.4411
     44 HN22        3.1656    3.3663   -3.7434 H         1 GTP         0.4411
     45 H45         2.3366    2.6138   -1.8319 H         1 GTP         0.4819
     46 H46        -2.1740    4.3186    0.2105 H         1 GTP         0.5182
@<TRIPOS>BOND
     1    1    2 2
     2    1    3 1
     3    1    4 1
     4    1    5 1
     5    4   33 1
     6    5    6 1
     7    6    7 2
     8    6    8 1
     9    6    9 1
    10    9   10 1
    11   10   11 2
    12   10   12 1
    13   10   13 1
    14   13   14 1
    15   14   15 1
    16   14   34 1
    17   14   35 1
    18   15   16 1
    19   15   17 1
    20   15   36 1
    21   16   21 1
    22   17   18 1
    23   17   19 1
    24   17   37 1
    25   18   38 1
    26   19   20 1
    27   19   21 1
    28   19   39 1
    29   20   40 1
    30   21   22 1
    31   21   41 1
    32   22   23 ar
    33   22   32 ar
    34   23   24 ar
    35   23   42 1
    36   24   25 ar
    37   24   46 1
    38   25   26 ar
    39   25   32 ar
    40   26   27 2
    41   26   28 ar
    42   28   29 ar
    43   29   30 1
    44   29   31 ar
    45   30   43 1
    46   30   44 1
    47   31   32 ar
    48   31   45 1
@<TRIPOS>SUBSTRUCTURE
     1 GTP         1 GROUP 0 A     ****
@<TRIPOS>MOLECULE
[[[5-(2-amino-6-oxo-7,8-dihydro-3~{H}-purin-8-ylium-9-yl)-3,4-dihydroxy-tetrahydrofuran-2-yl]methoxy-oxido-phosphoryl]oxy-oxido-phosphoryl] hydrogen phosphate
   46    48     1     0     0
SMALL
USER_CHARGES

@<TRIPOS>ATOM
      1 PG         -1.2184   -4.9956   -5.8220 P.3       1 GTP         1.5447
      2 O1G        -1.1037   -4.5771   -7.2709 O.co2     1 GTP        -0.8705
      3 O2G        -0.8318   -6.3903   -5.3829 O.co2     1 GTP        -0.8705
      4 O3G        -2.7411   -4.6957   -5.3146 O.3       1 GTP        -0.7914
      5 O3B        -0.4303   -3.9106   -4.8918 O.3       1 GTP        -0.8116
      6 PB         -0.5823   -2.2865   -4.8222 P.3       1 GTP         1.6738
      7 O1B        -0.1291   -1.7002   -6.1407 O.co2     1 GTP        -0.8763
      8 O2B        -1.9278   -1.9421   -4.2234 O.co2     1 GTP        -0.8763
      9 O3A         0.5318   -1.9682   -3.6723 O.3       1 GTP        -0.8005
     10 PA          2.1372   -2.2718   -3.6563 P.3       1 GTP         1.5754
     11 O1A         2.3492   -3.7701   -3.6757 O.co2     1 GTP        -0.8771
     12 O2A         2.8102   -1.3732   -4.6709 O.co2     1 GTP        -0.8771
     13 O5'         2.5245   -1.6648   -2.1878 O.3       1 GTP        -0.5809
     14 C5'         2.2816   -0.2918   -1.9206 C.3       1 GTP         0.1986
     15 C4'         2.7248    0.0226   -0.4980 C.3       1 GTP         0.0418
     16 O4'         2.4697    1.4219   -0.2462 O.3       1 GTP        -0.3505
     17 C3'         1.9404   -0.7419    0.5596 C.3       1 GTP         0.0909
     18 O3'         2.7418   -0.8086    1.7389 O.3       1 GTP        -0.6187
     19 C2'         0.7477    0.1630    0.7858 C.3       1 GTP         0.0706
     20 O2'         0.1373   -0.0577    2.0407 O.3       1 GTP        -0.6294
     21 C1'         1.3733    1.5427    0.6747 C.3       1 GTP         0.3895
     22 N9          0.4520    2.5240    0.1767 N.pl3     1 GTP        -0.4733
     23 C8          0.2012    2.8401   -1.0899 C.ar      1 GTP         0.2958
     24 N7         -0.7168    3.7990   -1.1981 N.pl3     1 GTP        -0.4933
     25 C5         -1.0645    4.1043    0.0896 C.ar      1 GTP        -0.1494
     26 C6         -2.0336    5.0870    0.5973 C.ar      1 GTP         0.7954
     27 O6         -2.6730    5.7839   -0.1834 O.2       1 GTP        -0.5729
     28 N1         -2.1539    5.1517    1.9868 N.2       1 GTP        -0.7443
     29 C2         -1.4288    4.3650    2.7566 C.ar      1 GTP         0.8831
     30 N2         -1.5126    4.3922    4.1250 N.pl3     1 GTP        -0.9204
     31 N3         -0.5167    3.4388    2.2748 N.pl3     1 GTP        -0.7173
     32 C4         -0.3638    3.3392    0.9318 C.ar      1 GTP         0.2626
     33 HOG3       -2.9760   -4.9148   -4.3877 H         1 GTP         0.4102
     34 H5'         2.8432    0.3119   -2.6398 H         1 GTP         0.0289
     35 H5''        1.2128   -0.0927   -2.0428 H         1 GTP         0.0289
     36 H4'         3.8044   -0.1397   -0.4040 H         1 GTP         0.2056
     37 H3'         1.6764   -1.7639    0.2728 H         1 GTP         0.1140
     38 HO3'        2.2232   -1.2979    2.3953 H         1 GTP         0.4287
     39 H2'        -0.0011    0.0027    0.0003 H         1 GTP         0.0809
     40 HO2'       -0.6141    0.5574    2.1082 H         1 GTP         0.4385
     41 H1'         1.7826    1.9024    1.6451 H         1 GTP         0.0794
     42 H8          0.6787    2.3803   -1.9373 H         1 GTP         0.3821
     43 HN21       -2.1462    5.0320    4.5446 H         1 GTP         0.4411
     44 HN22       -0.9365    3.7712    4.6440 H         1 GTP         0.4411
     45 H45         0.0318    2.8419    2.8816 H         1 GTP         0.4819
     46 H46        -1.0718    4.2049   -2.0526 H         1 GTP         0.5182
@<TRIPOS>BOND
     1    1    2 2
     2    1    3 1
     3    1    4 1
     4    1    5 1
     5    4   33 1
     6    5    6 1
     7    6    7 2
     8    6    8 1
     9    6    9 1
    10    9   10 1
    11   10   11 2
    12   10   12 1
    13   10   13 1
    14   13   14 1
    15   14   15 1
    16   14   34 1
    17   14   35 1
    18   15   16 1
    19   15   17 1
    20   15   36 1
    21   16   21 1
    22   17   18 1
    23   17   19 1
    24   17   37 1
    25   18   38 1
    26   19   20 1
    27   19   21 1
    28   19   39 1
    29   20   40 1
    30   21   22 1
    31   21   41 1
    32   22   23 ar
    33   22   32 ar
    34   23   24 ar
    35   23   42 1
    36   24   25 ar
    37   24   46 1
    38   25   26 ar
    39   25   32 ar
    40   26   27 2
    41   26   28 ar
    42   28   29 ar
    43   29   30 1
    44   29   31 ar
    45   30   43 1
    46   30   44 1
    47   31   32 ar
    48   31   45 1
@<TRIPOS>SUBSTRUCTURE
     1 GTP         1 GROUP 0 A     ****
@<TRIPOS>MOLECULE
[[[5-(2-amino-6-oxo-7,8-dihydro-3~{H}-purin-8-ylium-9-yl)-3,4-dihydroxy-tetrahydrofuran-2-yl]methoxy-oxido-phosphoryl]oxy-oxido-phosphoryl] hydrogen phosphate
   46    48     1     0     0
SMALL
USER_CHARGES

@<TRIPOS>ATOM
      1 PG          1.3765    1.0257   -6.4327 P.3       1 GTP         1.5447
      2 O1G         0.9080    1.0488   -4.9948 O.co2     1 GTP        -0.8705
      3 O2G         2.4148    2.0079   -6.9277 O.co2     1 GTP        -0.8705
      4 O3G         0.0688    1.1194   -7.4058 O.3       1 GTP        -0.7914
      5 O3B         1.8572   -0.4875   -6.8105 O.3       1 GTP        -0.8116
      6 PB          3.1246   -1.3523   -6.2524 P.3       1 GTP         1.6738
      7 O1B         3.0438   -2.7521   -6.8196 O.co2     1 GTP        -0.8763
      8 O2B         4.3816   -0.5201   -6.3742 O.co2     1 GTP        -0.8763
      9 O3A         2.7418   -1.3839   -4.6658 O.3       1 GTP        -0.8005
     10 PA          3.5300   -2.0730   -3.4114 P.3       1 GTP         1.5754
     11 O1A         3.5355   -3.5739   -3.6057 O.co2     1 GTP        -0.8771
     12 O2A         4.8145   -1.3109   -3.1689 O.co2     1 GTP        -0.8771
     13 O5'         2.5245   -1.6648   -2.1878 O.3       1 GTP        -0.5809
     14 C5'         2.2816   -0.2918   -1.9206 C.3       1 GTP         0.1986
     15 C4'         2.7248    0.0226   -0.4980 C.3       1 GTP         0.0418
     16 O4'         2.4697    1.4219   -0.2462 O.3       1 GTP        -0.3505
     17 C3'         1.9404   -0.7419    0.5596 C.3       1 GTP         0.0909
     18 O3'         2.7418   -0.8086    1.7389 O.3       1 GTP        -0.6187
     19 C2'         0.7477    0.1630    0.7858 C.3       1 GTP         0.0706
     20 O2'         0.1373   -0.0577    2.0407 O.3       1 GTP        -0.6294
     21 C1'         1.3733    1.5427    0.6747 C.3       1 GTP         0.3895
     22 N9          0.4520    2.5240    0.1767 N.pl3     1 GTP        -0.4733
     23 C8          0.2012    2.8401   -1.0899 C.ar      1 GTP         0.2958
     24 N7         -0.7168    3.7990   -1.1981 N.pl3     1 GTP        -0.4933
     25 C5         -1.0645    4.1043    0.0896 C.ar      1 GTP        -0.1494
     26 C6         -2.0336    5.0870    0.5973 C.ar      1 GTP         0.7954
     27 O6         -2.6730    5.7839   -0.1834 O.2       1 GTP        -0.5729
     28 N1         -2.1539    5.1517    1.9868 N.2       1 GTP        -0.7443
     29 C2         -1.4288    4.3650    2.7566 C.ar      1 GTP         0.8831
     30 N2         -1.5126    4.3922    4.1250 N.pl3     1 GTP        -0.9204
     31 N3         -0.5167    3.4388    2.2748 N.pl3     1 GTP        -0.7173
     32 C4         -0.3638    3.3392    0.9318 C.ar      1 GTP         0.2626
     33 HOG3        0.2082    1.1157   -8.3768 H         1 GTP         0.4102
     34 H5'         2.8432    0.3119   -2.6398 H         1 GTP         0.0289
     35 H5''        1.2128   -0.0927   -2.0428 H         1 GTP         0.0289
     36 H4'         3.8044   -0.1397   -0.4040 H         1 GTP         0.2056
     37 H3'         1.6764   -1.7639    0.2728 H         1 GTP         0.1140
     38 HO3'        2.2232   -1.2979    2.3953 H         1 GTP         0.4287
     39 H2'        -0.0011    0.0027    0.0003 H         1 GTP         0.0809
     40 HO2'       -0.6141    0.5574    2.1082 H         1 GTP         0.4385
     41 H1'         1.7826    1.9024    1.6451 H         1 GTP         0.0794
     42 H8          0.6787    2.3803   -1.9373 H         1 GTP         0.3821
     43 HN21       -2.1462    5.0320    4.5446 H         1 GTP         0.4411
     44 HN22       -0.9365    3.7712    4.6440 H         1 GTP         0.4411
     45 H45         0.0318    2.8419    2.8816 H         1 GTP         0.4819
     46 H46        -1.0718    4.2049   -2.0526 H         1 GTP         0.5182
@<TRIPOS>BOND
     1    1    2 2
     2    1    3 1
     3    1    4 1
     4    1    5 1
     5    4   33 1
     6    5    6 1
     7    6    7 2
     8    6    8 1
     9    6    9 1
    10    9   10 1
    11   10   11 2
    12   10   12 1
    13   10   13 1
    14   13   14 1
    15   14   15 1
    16   14   34 1
    17   14   35 1
    18   15   16 1
    19   15   17 1
    20   15   36 1
    21   16   21 1
    22   17   18 1
    23   17   19 1
    24   17   37 1
    25   18   38 1
    26   19   20 1
    27   19   21 1
    28   19   39 1
    29   20   40 1
    30   21   22 1
    31   21   41 1
    32   22   23 ar
    33   22   32 ar
    34   23   24 ar
    35   23   42 1
    36   24   25 ar
    37   24   46 1
    38   25   26 ar
    39   25   32 ar
    40   26   27 2
    41   26   28 ar
    42   28   29 ar
    43   29   30 1
    44   29   31 ar
    45   30   43 1
    46   30   44 1
    47   31   32 ar
    48   31   45 1
@<TRIPOS>SUBSTRUCTURE
     1 GTP         1 GROUP 0 A     ****
@<TRIPOS>MOLECULE
[[[5-(2-amino-6-oxo-7,8-dihydro-3~{H}-purin-8-ylium-9-yl)-3,4-dihydroxy-tetrahydrofuran-2-yl]methoxy-oxido-phosphoryl]oxy-oxido-phosphoryl] hydrogen phosphate
   46    48     1     0     0
SMALL
USER_CHARGES

@<TRIPOS>ATOM
      1 PG          0.7122   -3.4806   -7.3209 P.3       1 GTP         1.5447
      2 O1G        -0.7408   -3.6837   -6.9538 O.co2     1 GTP        -0.8705
      3 O2G         1.1076   -3.0321   -8.7103 O.co2     1 GTP        -0.8705
      4 O3G         1.5332   -4.8459   -6.9636 O.3       1 GTP        -0.7914
      5 O3B         1.4022   -2.4846   -6.2273 O.3       1 GTP        -0.8116
      6 PB          2.9657   -2.0498   -6.0488 P.3       1 GTP         1.6738
      7 O1B         3.7667   -3.2709   -5.6554 O.co2     1 GTP        -0.8763
      8 O2B         3.3719   -1.1789   -7.2167 O.co2     1 GTP        -0.8763
      9 O3A         2.8162   -1.0576   -4.7611 O.3       1 GTP        -0.8005
     10 PA          3.9554   -0.2064   -3.9565 P.3       1 GTP         1.5754
     11 O1A         4.9156   -1.1760   -3.3022 O.co2     1 GTP        -0.8771
     12 O2A         4.4556    0.9034   -4.8553 O.co2     1 GTP        -0.8771
     13 O5'         3.0213    0.5153   -2.8245 O.3       1 GTP        -0.5809
     14 C5'         2.2816   -0.2918   -1.9206 C.3       1 GTP         0.1986
     15 C4'         2.7248    0.0226   -0.4980 C.3       1 GTP         0.0418
     16 O4'         2.4697    1.4219   -0.2462 O.3       1 GTP        -0.3505
     17 C3'         1.9404   -0.7419    0.5596 C.3       1 GTP         0.0909
     18 O3'         2.7418   -0.8086    1.7389 O.3       1 GTP        -0.6187
     19 C2'         0.7477    0.1630    0.7858 C.3       1 GTP         0.0706
     20 O2'         0.1373   -0.0577    2.0407 O.3       1 GTP        -0.6294
     21 C1'         1.3733    1.5427    0.6747 C.3       1 GTP         0.3895
     22 N9          0.4520    2.5240    0.1767 N.pl3     1 GTP        -0.4733
     23 C8          0.2012    2.8401   -1.0899 C.ar      1 GTP         0.2958
     24 N7         -0.7168    3.7990   -1.1981 N.pl3     1 GTP        -0.4933
     25 C5         -1.0645    4.1043    0.0896 C.ar      1 GTP        -0.1494
     26 C6         -2.0336    5.0870    0.5973 C.ar      1 GTP         0.7954
     27 O6         -2.6730    5.7839   -0.1834 O.2       1 GTP        -0.5729
     28 N1         -2.1539    5.1517    1.9868 N.2       1 GTP        -0.7443
     29 C2         -1.4288    4.3650    2.7566 C.ar      1 GTP         0.8831
     30 N2         -1.5126    4.3922    4.1250 N.pl3     1 GTP        -0.9204
     31 N3         -0.5167    3.4388    2.2748 N.pl3     1 GTP        -0.7173
     32 C4         -0.3638    3.3392    0.9318 C.ar      1 GTP         0.2626
     33 HOG3        2.4968   -4.8725   -7.1455 H         1 GTP         0.4102
     34 H5'         1.2163   -0.0770   -2.0471 H         1 GTP         0.0289
     35 H5''        2.4655   -1.3443   -2.1563 H         1 GTP         0.0289
     36 H4'         3.8044   -0.1397   -0.4040 H         1 GTP         0.2056
     37 H3'         1.6764   -1.7639    0.2728 H         1 GTP         0.1140
     38 HO3'        2.2232   -1.2979    2.3953 H         1 GTP         0.4287
     39 H2'        -0.0011    0.0027    0.0003 H         1 GTP         0.0809
     40 HO2'       -0.6141    0.5574    2.1082 H         1 GTP         0.4385
     41 H1'         1.7826    1.9024    1.6451 H         1 GTP         0.0794
     42 H8          0.6787    2.3803   -1.9373 H         1 GTP         0.3821
     43 HN21       -2.1462    5.0320    4.5446 H         1 GTP         0.4411
     44 HN22       -0.9365    3.7712    4.6440 H         1 GTP         0.4411
     45 H45         0.0318    2.8419    2.8816 H         1 GTP         0.4819
     46 H46        -1.0718    4.2049   -2.0526 H         1 GTP         0.5182
@<TRIPOS>BOND
     1    1    2 2
     2    1    3 1
     3    1    4 1
     4    1    5 1
     5    4   33 1
     6    5    6 1
     7    6    7 2
     8    6    8 1
     9    6    9 1
    10    9   10 1
    11   10   11 2
    12   10   12 1
    13   10   13 1
    14   13   14 1
    15   14   15 1
    16   14   34 1
    17   14   35 1
    18   15   16 1
    19   15   17 1
    20   15   36 1
    21   16   21 1
    22   17   18 1
    23   17   19 1
    24   17   37 1
    25   18   38 1
    26   19   20 1
    27   19   21 1
    28   19   39 1
    29   20   40 1
    30   21   22 1
    31   21   41 1
    32   22   23 ar
    33   22   32 ar
    34   23   24 ar
    35   23   42 1
    36   24   25 ar
    37   24   46 1
    38   25   26 ar
    39   25   32 ar
    40   26   27 2
    41   26   28 ar
    42   28   29 ar
    43   29   30 1
    44   29   31 ar
    45   30   43 1
    46   30   44 1
    47   31   32 ar
    48   31   45 1
@<TRIPOS>SUBSTRUCTURE
     1 GTP         1 GROUP 0 A     ****
@<TRIPOS>MOLECULE
[[[5-(2-amino-6-oxo-7,8-dihydro-3~{H}-purin-8-ylium-9-yl)-3,4-dihydroxy-tetrahydrofuran-2-yl]methoxy-oxido-phosphoryl]oxy-oxido-phosphoryl] hydrogen phosphate
   46    48     1     0     0
SMALL
USER_CHARGES

@<TRIPOS>ATOM
      1 PG          6.9225   -0.1593   -6.2747 P.3       1 GTP         1.5447
      2 O1G         7.8702    0.9388   -5.8463 O.co2     1 GTP        -0.8705
      3 O2G         7.4395   -1.4199   -6.9315 O.co2     1 GTP        -0.8705
      4 O3G         5.7741    0.4922   -7.2352 O.3       1 GTP        -0.7914
      5 O3B         5.9796   -0.5714   -5.0078 O.3       1 GTP        -0.8116
      6 PB          6.3781   -1.2932   -3.5986 P.3       1 GTP         1.6738
      7 O1B         6.8483   -2.7007   -3.8907 O.co2     1 GTP        -0.8763
      8 O2B         7.2083   -0.3367   -2.7720 O.co2     1 GTP        -0.8763
      9 O3A         4.9017   -1.3446   -2.9040 O.3       1 GTP        -0.8005
     10 PA          3.5300   -2.0730   -3.4114 P.3       1 GTP         1.5754
     11 O1A         3.0794   -1.4186   -4.6995 O.co2     1 GTP        -0.8771
     12 O2A         3.7147   -3.5720   -3.3184 O.co2     1 GTP        -0.8771
     13 O5'         2.5245   -1.6648   -2.1878 O.3       1 GTP        -0.5809
     14 C5'         2.2816   -0.2918   -1.9206 C.3       1 GTP         0.1986
     15 C4'         2.7248    0.0226   -0.4980 C.3       1 GTP         0.0418
     16 O4'         2.4697    1.4219   -0.2462 O.3       1 GTP        -0.3505
     17 C3'         1.9404   -0.7419    0.5596 C.3       1 GTP         0.0909
     18 O3'         2.7418   -0.8086    1.7389 O.3       1 GTP        -0.6187
     19 C2'         0.7477    0.1630    0.7858 C.3       1 GTP         0.0706
     20 O2'         0.1373   -0.0577    2.0407 O.3       1 GTP        -0.6294
     21 C1'         1.3733    1.5427    0.6747 C.3       1 GTP         0.3895
     22 N9          0.4520    2.5240    0.1767 N.pl3     1 GTP        -0.4733
     23 C8          0.2012    2.8401   -1.0899 C.ar      1 GTP         0.2958
     24 N7         -0.7168    3.7990   -1.1981 N.pl3     1 GTP        -0.4933
     25 C5         -1.0645    4.1043    0.0896 C.ar      1 GTP        -0.1494
     26 C6         -2.0336    5.0870    0.5973 C.ar      1 GTP         0.7954
     27 O6         -2.6730    5.7839   -0.1834 O.2       1 GTP        -0.5729
     28 N1         -2.1539    5.1517    1.9868 N.2       1 GTP        -0.7443
     29 C2         -1.4288    4.3650    2.7566 C.ar      1 GTP         0.8831
     30 N2         -1.5126    4.3922    4.1250 N.pl3     1 GTP        -0.9204
     31 N3         -0.5167    3.4388    2.2748 N.pl3     1 GTP        -0.7173
     32 C4         -0.3638    3.3392    0.9318 C.ar      1 GTP         0.2626
     33 HOG3        5.0788   -0.0974   -7.5976 H         1 GTP         0.4102
     34 H5'         2.8432    0.3119   -2.6398 H         1 GTP         0.0289
     35 H5''        1.2128   -0.0927   -2.0428 H         1 GTP         0.0289
     36 H4'         3.8044   -0.1397   -0.4040 H         1 GTP         0.2056
     37 H3'         1.6764   -1.7639    0.2728 H         1 GTP         0.1140
     38 HO3'        2.2232   -1.2979    2.3953 H         1 GTP         0.4287
     39 H2'        -0.0011    0.0027    0.0003 H         1 GTP         0.0809
     40 HO2'       -0.6141    0.5574    2.1082 H         1 GTP         0.4385
     41 H1'         1.7826    1.9024    1.6451 H         1 GTP         0.0794
     42 H8          0.6787    2.3803   -1.9373 H         1 GTP         0.3821
     43 HN21       -2.1462    5.0320    4.5446 H         1 GTP         0.4411
     44 HN22       -0.9365    3.7712    4.6440 H         1 GTP         0.4411
     45 H45         0.0318    2.8419    2.8816 H         1 GTP         0.4819
     46 H46        -1.0718    4.2049   -2.0526 H         1 GTP         0.5182
@<TRIPOS>BOND
     1    1    2 2
     2    1    3 1
     3    1    4 1
     4    1    5 1
     5    4   33 1
     6    5    6 1
     7    6    7 2
     8    6    8 1
     9    6    9 1
    10    9   10 1
    11   10   11 2
    12   10   12 1
    13   10   13 1
    14   13   14 1
    15   14   15 1
    16   14   34 1
    17   14   35 1
    18   15   16 1
    19   15   17 1
    20   15   36 1
    21   16   21 1
    22   17   18 1
    23   17   19 1
    24   17   37 1
    25   18   38 1
    26   19   20 1
    27   19   21 1
    28   19   39 1
    29   20   40 1
    30   21   22 1
    31   21   41 1
    32   22   23 ar
    33   22   32 ar
    34   23   24 ar
    35   23   42 1
    36   24   25 ar
    37   24   46 1
    38   25   26 ar
    39   25   32 ar
    40   26   27 2
    41   26   28 ar
    42   28   29 ar
    43   29   30 1
    44   29   31 ar
    45   30   43 1
    46   30   44 1
    47   31   32 ar
    48   31   45 1
@<TRIPOS>SUBSTRUCTURE
     1 GTP         1 GROUP 0 A     ****
@<TRIPOS>MOLECULE
[[[5-(2-amino-6-oxo-7,8-dihydro-3~{H}-purin-8-ylium-9-yl)-3,4-dihydroxy-tetrahydrofuran-2-yl]methoxy-oxido-phosphoryl]oxy-oxido-phosphoryl] hydrogen phosphate
   46    48     1     0     0
SMALL
USER_CHARGES

@<TRIPOS>ATOM
      1 PG          4.6292   -4.4941   -6.0851 P.3       1 GTP         1.5447
      2 O1G         3.5240   -5.4939   -6.3424 O.co2     1 GTP        -0.8705
      3 O2G         5.5772   -4.0821   -7.1893 O.co2     1 GTP        -0.8705
      4 O3G         5.5104   -5.0114   -4.8115 O.3       1 GTP        -0.7914
      5 O3B         3.9865   -3.1534   -5.4119 O.3       1 GTP        -0.8116
      6 PB          2.9657   -2.0498   -6.0488 P.3       1 GTP         1.6738
      7 O1B         3.6759   -1.3214   -7.1680 O.co2     1 GTP        -0.8763
      8 O2B         1.6119   -2.6916   -6.2556 O.co2     1 GTP        -0.8763
      9 O3A         2.8162   -1.0576   -4.7611 O.3       1 GTP        -0.8005
     10 PA          3.9554   -0.2064   -3.9565 P.3       1 GTP         1.5754
     11 O1A         4.9156   -1.1760   -3.3022 O.co2     1 GTP        -0.8771
     12 O2A         4.4556    0.9034   -4.8553 O.co2     1 GTP        -0.8771
     13 O5'         3.0213    0.5153   -2.8245 O.3       1 GTP        -0.5809
     14 C5'         2.2816   -0.2918   -1.9206 C.3       1 GTP         0.1986
     15 C4'         2.7248    0.0226   -0.4980 C.3       1 GTP         0.0418
     16 O4'         2.4697    1.4219   -0.2462 O.3       1 GTP        -0.3505
     17 C3'         1.9404   -0.7419    0.5596 C.3       1 GTP         0.0909
     18 O3'         2.7418   -0.8086    1.7389 O.3       1 GTP        -0.6187
     19 C2'         0.7477    0.1630    0.7858 C.3       1 GTP         0.0706
     20 O2'         0.1373   -0.0577    2.0407 O.3       1 GTP        -0.6294
     21 C1'         1.3733    1.5427    0.6747 C.3       1 GTP         0.3895
     22 N9          0.4520    2.5240    0.1767 N.pl3     1 GTP        -0.4733
     23 C8          0.2012    2.8401   -1.0899 C.ar      1 GTP         0.2958
     24 N7         -0.7168    3.7990   -1.1981 N.pl3     1 GTP        -0.4933
     25 C5         -1.0645    4.1043    0.0896 C.ar      1 GTP        -0.1494
     26 C6         -2.0336    5.0870    0.5973 C.ar      1 GTP         0.7954
     27 O6         -2.6730    5.7839   -0.1834 O.2       1 GTP        -0.5729
     28 N1         -2.1539    5.1517    1.9868 N.2       1 GTP        -0.7443
     29 C2         -1.4288    4.3650    2.7566 C.ar      1 GTP         0.8831
     30 N2         -1.5126    4.3922    4.1250 N.pl3     1 GTP        -0.9204
     31 N3         -0.5167    3.4388    2.2748 N.pl3     1 GTP        -0.7173
     32 C4         -0.3638    3.3392    0.9318 C.ar      1 GTP         0.2626
     33 HOG3        6.2713   -4.4663   -4.5180 H         1 GTP         0.4102
     34 H5'         1.2163   -0.0770   -2.0471 H         1 GTP         0.0289
     35 H5''        2.4655   -1.3443   -2.1563 H         1 GTP         0.0289
     36 H4'         3.8044   -0.1397   -0.4040 H         1 GTP         0.2056
     37 H3'         1.6764   -1.7639    0.2728 H         1 GTP         0.1140
     38 HO3'        3.5554   -1.2733    1.4914 H         1 GTP         0.4287
     39 H2'        -0.0011    0.0027    0.0003 H         1 GTP         0.0809
     40 HO2'       -0.1563   -0.9855    2.0596 H         1 GTP         0.4385
     41 H1'         1.7826    1.9024    1.6451 H         1 GTP         0.0794
     42 H8          0.6787    2.3803   -1.9373 H         1 GTP         0.3821
     43 HN21       -2.1462    5.0320    4.5446 H         1 GTP         0.4411
     44 HN22       -0.9365    3.7712    4.6440 H         1 GTP         0.4411
     45 H45         0.0318    2.8419    2.8816 H         1 GTP         0.4819
     46 H46        -1.0718    4.2049   -2.0526 H         1 GTP         0.5182
@<TRIPOS>BOND
     1    1    2 2
     2    1    3 1
     3    1    4 1
     4    1    5 1
     5    4   33 1
     6    5    6 1
     7    6    7 2
     8    6    8 1
     9    6    9 1
    10    9   10 1
    11   10   11 2
    12   10   12 1
    13   10   13 1
    14   13   14 1
    15   14   15 1
    16   14   34 1
    17   14   35 1
    18   15   16 1
    19   15   17 1
    20   15   36 1
    21   16   21 1
    22   17   18 1
    23   17   19 1
    24   17   37 1
    25   18   38 1
    26   19   20 1
    27   19   21 1
    28   19   39 1
    29   20   40 1
    30   21   22 1
    31   21   41 1
    32   22   23 ar
    33   22   32 ar
    34   23   24 ar
    35   23   42 1
    36   24   25 ar
    37   24   46 1
    38   25   26 ar
    39   25   32 ar
    40   26   27 2
    41   26   28 ar
    42   28   29 ar
    43   29   30 1
    44   29   31 ar
    45   30   43 1
    46   30   44 1
    47   31   32 ar
    48   31   45 1
@<TRIPOS>SUBSTRUCTURE
     1 GTP         1 GROUP 0 A     ****
@<TRIPOS>MOLECULE
[[[5-(2-amino-6-oxo-7,8-dihydro-3~{H}-purin-8-ylium-9-yl)-3,4-dihydroxy-tetrahydrofuran-2-yl]methoxy-oxido-phosphoryl]oxy-oxido-phosphoryl] hydrogen phosphate
   46    48     1     0     0
SMALL
USER_CHARGES

@<TRIPOS>ATOM
      1 PG          0.4327   -3.2763   -5.1951 P.3       1 GTP         1.5447
      2 O1G         1.6388   -3.8750   -4.5064 O.co2     1 GTP        -0.8705
      3 O2G        -0.8103   -2.9161   -4.4122 O.co2     1 GTP        -0.8705
      4 O3G         0.0023   -4.2538   -6.4301 O.3       1 GTP        -0.7914
      5 O3B         0.9066   -1.9774   -6.0623 O.3       1 GTP        -0.8116
      6 PB          1.4889   -0.5382   -5.5569 P.3       1 GTP         1.6738
      7 O1B         1.9079    0.2670   -6.7667 O.co2     1 GTP        -0.8763
      8 O2B         0.5566    0.0313   -4.5109 O.co2     1 GTP        -0.8763
      9 O3A         2.8162   -1.0576   -4.7611 O.3       1 GTP        -0.8005
     10 PA          3.9554   -0.2064   -3.9565 P.3       1 GTP         1.5754
     11 O1A         4.9156   -1.1760   -3.3022 O.co2     1 GTP        -0.8771
     12 O2A         4.4556    0.9034   -4.8553 O.co2     1 GTP        -0.8771
     13 O5'         3.0213    0.5153   -2.8245 O.3       1 GTP        -0.5809
     14 C5'         2.2816   -0.2918   -1.9206 C.3       1 GTP         0.1986
     15 C4'         2.7248    0.0226   -0.4980 C.3       1 GTP         0.0418
     16 O4'         2.4697    1.4219   -0.2462 O.3       1 GTP        -0.3505
     17 C3'         1.9404   -0.7419    0.5596 C.3       1 GTP         0.0909
     18 O3'         2.7418   -0.8086    1.7389 O.3       1 GTP        -0.6187
     19 C2'         0.7477    0.1630    0.7858 C.3       1 GTP         0.0706
     20 O2'         0.1373   -0.0577    2.0407 O.3       1 GTP        -0.6294
     21 C1'         1.3733    1.5427    0.6747 C.3       1 GTP         0.3895
     22 N9          0.4520    2.5240    0.1767 N.pl3     1 GTP        -0.4733
     23 C8          0.2012    2.8401   -1.0899 C.ar      1 GTP         0.2958
     24 N7         -0.7168    3.7990   -1.1981 N.pl3     1 GTP        -0.4933
     25 C5         -1.0645    4.1043    0.0896 C.ar      1 GTP        -0.1494
     26 C6         -2.0336    5.0870    0.5973 C.ar      1 GTP         0.7954
     27 O6         -2.6730    5.7839   -0.1834 O.2       1 GTP        -0.5729
     28 N1         -2.1539    5.1517    1.9868 N.2       1 GTP        -0.7443
     29 C2         -1.4288    4.3650    2.7566 C.ar      1 GTP         0.8831
     30 N2         -1.5126    4.3922    4.1250 N.pl3     1 GTP        -0.9204
     31 N3         -0.5167    3.4388    2.2748 N.pl3     1 GTP        -0.7173
     32 C4         -0.3638    3.3392    0.9318 C.ar      1 GTP         0.2626
     33 HOG3       -0.7701   -4.0001   -6.9790 H         1 GTP         0.4102
     34 H5'         1.2163   -0.0770   -2.0471 H         1 GTP         0.0289
     35 H5''        2.4655   -1.3443   -2.1563 H         1 GTP         0.0289
     36 H4'         3.8044   -0.1397   -0.4040 H         1 GTP         0.2056
     37 H3'         1.6764   -1.7639    0.2728 H         1 GTP         0.1140
     38 HO3'        2.2232   -1.2979    2.3953 H         1 GTP         0.4287
     39 H2'        -0.0011    0.0027    0.0003 H         1 GTP         0.0809
     40 HO2'       -0.6141    0.5574    2.1082 H         1 GTP         0.4385
     41 H1'         1.7826    1.9024    1.6451 H         1 GTP         0.0794
     42 H8          0.6787    2.3803   -1.9373 H         1 GTP         0.3821
     43 HN21       -2.1462    5.0320    4.5446 H         1 GTP         0.4411
     44 HN22       -0.9365    3.7712    4.6440 H         1 GTP         0.4411
     45 H45         0.0318    2.8419    2.8816 H         1 GTP         0.4819
     46 H46        -1.0718    4.2049   -2.0526 H         1 GTP         0.5182
@<TRIPOS>BOND
     1    1    2 2
     2    1    3 1
     3    1    4 1
     4    1    5 1
     5    4   33 1
     6    5    6 1
     7    6    7 2
     8    6    8 1
     9    6    9 1
    10    9   10 1
    11   10   11 2
    12   10   12 1
    13   10   13 1
    14   13   14 1
    15   14   15 1
    16   14   34 1
    17   14   35 1
    18   15   16 1
    19   15   17 1
    20   15   36 1
    21   16   21 1
    22   17   18 1
    23   17   19 1
    24   17   37 1
    25   18   38 1
    26   19   20 1
    27   19   21 1
    28   19   39 1
    29   20   40 1
    30   21   22 1
    31   21   41 1
    32   22   23 ar
    33   22   32 ar
    34   23   24 ar
    35   23   42 1
    36   24   25 ar
    37   24   46 1
    38   25   26 ar
    39   25   32 ar
    40   26   27 2
    41   26   28 ar
    42   28   29 ar
    43   29   30 1
    44   29   31 ar
    45   30   43 1
    46   30   44 1
    47   31   32 ar
    48   31   45 1
@<TRIPOS>SUBSTRUCTURE
     1 GTP         1 GROUP 0 A     ****
@<TRIPOS>MOLECULE
[[[5-(2-amino-6-oxo-7,8-dihydro-3~{H}-purin-8-ylium-9-yl)-3,4-dihydroxy-tetrahydrofuran-2-yl]methoxy-oxido-phosphoryl]oxy-oxido-phosphoryl] hydrogen phosphate
   46    48     1     0     0
SMALL
USER_CHARGES

@<TRIPOS>ATOM
      1 PG          2.0838   -1.0362   -8.3296 P.3       1 GTP         1.5447
      2 O1G         2.1152   -2.3766   -9.0295 O.co2     1 GTP        -0.8705
      3 O2G         0.8646   -0.1449   -8.4118 O.co2     1 GTP        -0.8705
      4 O3G         3.3885   -0.1747   -8.8002 O.3       1 GTP        -0.7914
      5 O3B         2.4802   -1.2469   -6.7605 O.3       1 GTP        -0.8116
      6 PB          3.7805   -1.9804   -6.0996 P.3       1 GTP         1.6738
      7 O1B         3.7269   -3.4547   -6.4327 O.co2     1 GTP        -0.8763
      8 O2B         5.0122   -1.1492   -6.3818 O.co2     1 GTP        -0.8763
      9 O3A         3.4281   -1.7650   -4.5203 O.3       1 GTP        -0.8005
     10 PA          2.1372   -2.2718   -3.6563 P.3       1 GTP         1.5754
     11 O1A         0.8958   -1.5923   -4.1925 O.co2     1 GTP        -0.8771
     12 O2A         2.2074   -3.7770   -3.5183 O.co2     1 GTP        -0.8771
     13 O5'         2.5245   -1.6648   -2.1878 O.3       1 GTP        -0.5809
     14 C5'         2.2816   -0.2918   -1.9206 C.3       1 GTP         0.1986
     15 C4'         2.7248    0.0226   -0.4980 C.3       1 GTP         0.0418
     16 O4'         2.4697    1.4219   -0.2462 O.3       1 GTP        -0.3505
     17 C3'         1.9404   -0.7419    0.5596 C.3       1 GTP         0.0909
     18 O3'         2.7418   -0.8086    1.7389 O.3       1 GTP        -0.6187
     19 C2'         0.7477    0.1630    0.7858 C.3       1 GTP         0.0706
     20 O2'         0.1373   -0.0577    2.0407 O.3       1 GTP        -0.6294
     21 C1'         1.3733    1.5427    0.6747 C.3       1 GTP         0.3895
     22 N9          0.4520    2.5240    0.1767 N.pl3     1 GTP        -0.4733
     23 C8          0.2012    2.8401   -1.0899 C.ar      1 GTP         0.2958
     24 N7         -0.7168    3.7990   -1.1981 N.pl3     1 GTP        -0.4933
     25 C5         -1.0645    4.1043    0.0896 C.ar      1 GTP        -0.1494
     26 C6         -2.0336    5.0870    0.5973 C.ar      1 GTP         0.7954
     27 O6         -2.6730    5.7839   -0.1834 O.2       1 GTP        -0.5729
     28 N1         -2.1539    5.1517    1.9868 N.2       1 GTP        -0.7443
     29 C2         -1.4288    4.3650    2.7566 C.ar      1 GTP         0.8831
     30 N2         -1.5126    4.3922    4.1250 N.pl3     1 GTP        -0.9204
     31 N3         -0.5167    3.4388    2.2748 N.pl3     1 GTP        -0.7173
     32 C4         -0.3638    3.3392    0.9318 C.ar      1 GTP         0.2626
     33 HOG3        3.5117    0.7255   -8.4304 H         1 GTP         0.4102
     34 H5'         2.8432    0.3119   -2.6398 H         1 GTP         0.0289
     35 H5''        1.2128   -0.0927   -2.0428 H         1 GTP         0.0289
     36 H4'         3.8044   -0.1397   -0.4040 H         1 GTP         0.2056
     37 H3'         1.6764   -1.7639    0.2728 H         1 GTP         0.1140
     38 HO3'        2.2232   -1.2979    2.3953 H         1 GTP         0.4287
     39 H2'        -0.0011    0.0027    0.0003 H         1 GTP         0.0809
     40 HO2'       -0.1563   -0.9855    2.0596 H         1 GTP         0.4385
     41 H1'         1.7826    1.9024    1.6451 H         1 GTP         0.0794
     42 H8          0.6787    2.3803   -1.9373 H         1 GTP         0.3821
     43 HN21       -2.1462    5.0320    4.5446 H         1 GTP         0.4411
     44 HN22       -0.9365    3.7712    4.6440 H         1 GTP         0.4411
     45 H45         0.0318    2.8419    2.8816 H         1 GTP         0.4819
     46 H46        -1.0718    4.2049   -2.0526 H         1 GTP         0.5182
@<TRIPOS>BOND
     1    1    2 2
     2    1    3 1
     3    1    4 1
     4    1    5 1
     5    4   33 1
     6    5    6 1
     7    6    7 2
     8    6    8 1
     9    6    9 1
    10    9   10 1
    11   10   11 2
    12   10   12 1
    13   10   13 1
    14   13   14 1
    15   14   15 1
    16   14   34 1
    17   14   35 1
    18   15   16 1
    19   15   17 1
    20   15   36 1
    21   16   21 1
    22   17   18 1
    23   17   19 1
    24   17   37 1
    25   18   38 1
    26   19   20 1
    27   19   21 1
    28   19   39 1
    29   20   40 1
    30   21   22 1
    31   21   41 1
    32   22   23 ar
    33   22   32 ar
    34   23   24 ar
    35   23   42 1
    36   24   25 ar
    37   24   46 1
    38   25   26 ar
    39   25   32 ar
    40   26   27 2
    41   26   28 ar
    42   28   29 ar
    43   29   30 1
    44   29   31 ar
    45   30   43 1
    46   30   44 1
    47   31   32 ar
    48   31   45 1
@<TRIPOS>SUBSTRUCTURE
     1 GTP         1 GROUP 0 A     ****
@<TRIPOS>MOLECULE
[[[5-(2-amino-6-oxo-7,8-dihydro-3~{H}-purin-8-ylium-9-yl)-3,4-dihydroxy-tetrahydrofuran-2-yl]methoxy-oxido-phosphoryl]oxy-oxido-phosphoryl] hydrogen phosphate
   46    48     1     0     0
SMALL
USER_CHARGES

@<TRIPOS>ATOM
      1 PG          4.4990   -2.9424   -8.0569 P.3       1 GTP         1.5447
      2 O1G         3.3782   -2.7932   -9.0614 O.co2     1 GTP        -0.8705
      3 O2G         5.8846   -2.4135   -8.3541 O.co2     1 GTP        -0.8705
      4 O3G         4.6225   -4.5182   -7.6477 O.3       1 GTP        -0.7914
      5 O3B         4.0048   -2.3519   -6.6179 O.3       1 GTP        -0.8116
      6 PB          2.6728   -2.7073   -5.7432 P.3       1 GTP         1.6738
      7 O1B         1.4524   -2.2515   -6.5115 O.co2     1 GTP        -0.8763
      8 O2B         2.7931   -4.1186   -5.2129 O.co2     1 GTP        -0.8763
      9 O3A         2.9205   -1.7124   -4.4729 O.3       1 GTP        -0.8005
     10 PA          3.0675   -0.0857   -4.4293 P.3       1 GTP         1.5754
     11 O1A         4.3144    0.3107   -5.1899 O.co2     1 GTP        -0.8771
     12 O2A         1.7243    0.5309   -4.7535 O.co2     1 GTP        -0.8771
     13 O5'         3.2903    0.1346   -2.8241 O.3       1 GTP        -0.5809
     14 C5'         2.2816   -0.2918   -1.9206 C.3       1 GTP         0.1986
     15 C4'         2.7248    0.0226   -0.4980 C.3       1 GTP         0.0418
     16 O4'         2.4697    1.4219   -0.2462 O.3       1 GTP        -0.3505
     17 C3'         1.9404   -0.7419    0.5596 C.3       1 GTP         0.0909
     18 O3'         2.7418   -0.8086    1.7389 O.3       1 GTP        -0.6187
     19 C2'         0.7477    0.1630    0.7858 C.3       1 GTP         0.0706
     20 O2'         0.1373   -0.0577    2.0407 O.3       1 GTP        -0.6294
     21 C1'         1.3733    1.5427    0.6747 C.3       1 GTP         0.3895
     22 N9          0.4520    2.5240    0.1767 N.pl3     1 GTP        -0.4733
     23 C8          0.2012    2.8401   -1.0899 C.ar      1 GTP         0.2958
     24 N7         -0.7168    3.7990   -1.1981 N.pl3     1 GTP        -0.4933
     25 C5         -1.0645    4.1043    0.0896 C.ar      1 GTP        -0.1494
     26 C6         -2.0336    5.0870    0.5973 C.ar      1 GTP         0.7954
     27 O6         -2.6730    5.7839   -0.1834 O.2       1 GTP        -0.5729
     28 N1         -2.1539    5.1517    1.9868 N.2       1 GTP        -0.7443
     29 C2         -1.4288    4.3650    2.7566 C.ar      1 GTP         0.8831
     30 N2         -1.5126    4.3922    4.1250 N.pl3     1 GTP        -0.9204
     31 N3         -0.5167    3.4388    2.2748 N.pl3     1 GTP        -0.7173
     32 C4         -0.3638    3.3392    0.9318 C.ar      1 GTP         0.2626
     33 HOG3        5.3102   -4.7796   -6.9989 H         1 GTP         0.4102
     34 H5'         1.3514    0.2330   -2.1577 H         1 GTP         0.0289
     35 H5''        2.1280   -1.3678   -2.0460 H         1 GTP         0.0289
     36 H4'         3.8044   -0.1397   -0.4040 H         1 GTP         0.2056
     37 H3'         1.6764   -1.7639    0.2728 H         1 GTP         0.1140
     38 HO3'        2.2232   -1.2979    2.3953 H         1 GTP         0.4287
     39 H2'        -0.0011    0.0027    0.0003 H         1 GTP         0.0809
     40 HO2'       -0.6141    0.5574    2.1082 H         1 GTP         0.4385
     41 H1'         1.7826    1.9024    1.6451 H         1 GTP         0.0794
     42 H8          0.6787    2.3803   -1.9373 H         1 GTP         0.3821
     43 HN21       -2.1462    5.0320    4.5446 H         1 GTP         0.4411
     44 HN22       -0.9365    3.7712    4.6440 H         1 GTP         0.4411
     45 H45         0.0318    2.8419    2.8816 H         1 GTP         0.4819
     46 H46        -1.0718    4.2049   -2.0526 H         1 GTP         0.5182
@<TRIPOS>BOND
     1    1    2 2
     2    1    3 1
     3    1    4 1
     4    1    5 1
     5    4   33 1
     6    5    6 1
     7    6    7 2
     8    6    8 1
     9    6    9 1
    10    9   10 1
    11   10   11 2
    12   10   12 1
    13   10   13 1
    14   13   14 1
    15   14   15 1
    16   14   34 1
    17   14   35 1
    18   15   16 1
    19   15   17 1
    20   15   36 1
    21   16   21 1
    22   17   18 1
    23   17   19 1
    24   17   37 1
    25   18   38 1
    26   19   20 1
    27   19   21 1
    28   19   39 1
    29   20   40 1
    30   21   22 1
    31   21   41 1
    32   22   23 ar
    33   22   32 ar
    34   23   24 ar
    35   23   42 1
    36   24   25 ar
    37   24   46 1
    38   25   26 ar
    39   25   32 ar
    40   26   27 2
    41   26   28 ar
    42   28   29 ar
    43   29   30 1
    44   29   31 ar
    45   30   43 1
    46   30   44 1
    47   31   32 ar
    48   31   45 1
@<TRIPOS>SUBSTRUCTURE
     1 GTP         1 GROUP 0 A     ****
@<TRIPOS>MOLECULE
[[[5-(2-amino-6-oxo-7,8-dihydro-3~{H}-purin-8-ylium-9-yl)-3,4-dihydroxy-tetrahydrofuran-2-yl]methoxy-oxido-phosphoryl]oxy-oxido-phosphoryl] hydrogen phosphate
   46    48     1     0     0
SMALL
USER_CHARGES

@<TRIPOS>ATOM
      1 PG          8.5880   -1.1935   -4.9228 P.3       1 GTP         1.5447
      2 O1G         9.6314   -1.4755   -3.8649 O.co2     1 GTP        -0.8705
      3 O2G         8.4079   -2.1213   -6.1036 O.co2     1 GTP        -0.8705
      4 O3G         8.8157    0.3226   -5.4847 O.3       1 GTP        -0.7914
      5 O3B         7.1425   -0.9733   -4.1978 O.3       1 GTP        -0.8116
      6 PB          6.2090   -2.0356   -3.3818 P.3       1 GTP         1.6738
      7 O1B         5.7254   -3.0961   -4.3456 O.co2     1 GTP        -0.8763
      8 O2B         6.8945   -2.3989   -2.0835 O.co2     1 GTP        -0.8763
      9 O3A         4.9693   -1.0482   -2.9906 O.3       1 GTP        -0.8005
     10 PA          3.9554   -0.2064   -3.9565 P.3       1 GTP         1.5754
     11 O1A         4.7549    0.8313   -4.7144 O.co2     1 GTP        -0.8771
     12 O2A         3.0547   -1.1827   -4.6813 O.co2     1 GTP        -0.8771
     13 O5'         3.0213    0.5153   -2.8245 O.3       1 GTP        -0.5809
     14 C5'         2.2816   -0.2918   -1.9206 C.3       1 GTP         0.1986
     15 C4'         2.7248    0.0226   -0.4980 C.3       1 GTP         0.0418
     16 O4'         2.4697    1.4219   -0.2462 O.3       1 GTP        -0.3505
     17 C3'         1.9404   -0.7419    0.5596 C.3       1 GTP         0.0909
     18 O3'         2.7418   -0.8086    1.7389 O.3       1 GTP        -0.6187
     19 C2'         0.7477    0.1630    0.7858 C.3       1 GTP         0.0706
     20 O2'         0.1373   -0.0577    2.0407 O.3       1 GTP        -0.6294
     21 C1'         1.3733    1.5427    0.6747 C.3       1 GTP         0.3895
     22 N9          0.4520    2.5240    0.1767 N.pl3     1 GTP        -0.4733
     23 C8          0.2012    2.8401   -1.0899 C.ar      1 GTP         0.2958
     24 N7         -0.7168    3.7990   -1.1981 N.pl3     1 GTP        -0.4933
     25 C5         -1.0645    4.1043    0.0896 C.ar      1 GTP        -0.1494
     26 C6         -2.0336    5.0870    0.5973 C.ar      1 GTP         0.7954
     27 O6         -2.6730    5.7839   -0.1834 O.2       1 GTP        -0.5729
     28 N1         -2.1539    5.1517    1.9868 N.2       1 GTP        -0.7443
     29 C2         -1.4288    4.3650    2.7566 C.ar      1 GTP         0.8831
     30 N2         -1.5126    4.3922    4.1250 N.pl3     1 GTP        -0.9204
     31 N3         -0.5167    3.4388    2.2748 N.pl3     1 GTP        -0.7173
     32 C4         -0.3638    3.3392    0.9318 C.ar      1 GTP         0.2626
     33 HOG3        8.2128    0.6574   -6.1823 H         1 GTP         0.4102
     34 H5'         1.2163   -0.0770   -2.0471 H         1 GTP         0.0289
     35 H5''        2.4655   -1.3443   -2.1563 H         1 GTP         0.0289
     36 H4'         3.8044   -0.1397   -0.4040 H         1 GTP         0.2056
     37 H3'         1.6764   -1.7639    0.2728 H         1 GTP         0.1140
     38 HO3'        2.2232   -1.2979    2.3953 H         1 GTP         0.4287
     39 H2'        -0.0011    0.0027    0.0003 H         1 GTP         0.0809
     40 HO2'       -0.6141    0.5574    2.1082 H         1 GTP         0.4385
     41 H1'         1.7826    1.9024    1.6451 H         1 GTP         0.0794
     42 H8          0.6787    2.3803   -1.9373 H         1 GTP         0.3821
     43 HN21       -2.1462    5.0320    4.5446 H         1 GTP         0.4411
     44 HN22       -0.9365    3.7712    4.6440 H         1 GTP         0.4411
     45 H45         0.0318    2.8419    2.8816 H         1 GTP         0.4819
     46 H46        -1.0718    4.2049   -2.0526 H         1 GTP         0.5182
@<TRIPOS>BOND
     1    1    2 2
     2    1    3 1
     3    1    4 1
     4    1    5 1
     5    4   33 1
     6    5    6 1
     7    6    7 2
     8    6    8 1
     9    6    9 1
    10    9   10 1
    11   10   11 2
    12   10   12 1
    13   10   13 1
    14   13   14 1
    15   14   15 1
    16   14   34 1
    17   14   35 1
    18   15   16 1
    19   15   17 1
    20   15   36 1
    21   16   21 1
    22   17   18 1
    23   17   19 1
    24   17   37 1
    25   18   38 1
    26   19   20 1
    27   19   21 1
    28   19   39 1
    29   20   40 1
    30   21   22 1
    31   21   41 1
    32   22   23 ar
    33   22   32 ar
    34   23   24 ar
    35   23   42 1
    36   24   25 ar
    37   24   46 1
    38   25   26 ar
    39   25   32 ar
    40   26   27 2
    41   26   28 ar
    42   28   29 ar
    43   29   30 1
    44   29   31 ar
    45   30   43 1
    46   30   44 1
    47   31   32 ar
    48   31   45 1
@<TRIPOS>SUBSTRUCTURE
     1 GTP         1 GROUP 0 A     ****
@<TRIPOS>MOLECULE
[[[5-(2-amino-6-oxo-7,8-dihydro-3~{H}-purin-8-ylium-9-yl)-3,4-dihydroxy-tetrahydrofuran-2-yl]methoxy-oxido-phosphoryl]oxy-oxido-phosphoryl] hydrogen phosphate
   46    48     1     0     0
SMALL
USER_CHARGES

@<TRIPOS>ATOM
      1 PG          1.3872    4.0546   -4.6408 P.3       1 GTP         1.5447
      2 O1G         1.9718    3.4066   -3.4056 O.co2     1 GTP        -0.8705
      3 O2G         2.0679    5.2365   -5.2947 O.co2     1 GTP        -0.8705
      4 O3G        -0.1646    4.4566   -4.3305 O.3       1 GTP        -0.7914
      5 O3B         1.1232    2.9054   -5.7692 O.3       1 GTP        -0.8116
      6 PB          0.2960    1.5021   -5.6594 P.3       1 GTP         1.6738
      7 O1B        -1.0996    1.8000   -5.1582 O.co2     1 GTP        -0.8763
      8 O2B         0.5303    0.6918   -6.9148 O.co2     1 GTP        -0.8763
      9 O3A         1.1584    0.7817   -4.4753 O.3       1 GTP        -0.8005
     10 PA          2.7407    0.3769   -4.4297 P.3       1 GTP         1.5754
     11 O1A         2.8866   -1.0655   -4.8640 O.co2     1 GTP        -0.8771
     12 O2A         3.5415    1.4776   -5.0906 O.co2     1 GTP        -0.8771
     13 O5'         3.0213    0.5153   -2.8245 O.3       1 GTP        -0.5809
     14 C5'         2.2816   -0.2918   -1.9206 C.3       1 GTP         0.1986
     15 C4'         2.7248    0.0226   -0.4980 C.3       1 GTP         0.0418
     16 O4'         2.4697    1.4219   -0.2462 O.3       1 GTP        -0.3505
     17 C3'         1.9404   -0.7419    0.5596 C.3       1 GTP         0.0909
     18 O3'         2.7418   -0.8086    1.7389 O.3       1 GTP        -0.6187
     19 C2'         0.7477    0.1630    0.7858 C.3       1 GTP         0.0706
     20 O2'         0.1373   -0.0577    2.0407 O.3       1 GTP        -0.6294
     21 C1'         1.3733    1.5427    0.6747 C.3       1 GTP         0.3895
     22 N9          0.4520    2.5240    0.1767 N.pl3     1 GTP        -0.4733
     23 C8         -0.2136    2.5096   -0.9739 C.ar      1 GTP         0.2958
     24 N7         -0.9896    3.5820   -1.1212 N.pl3     1 GTP        -0.4933
     25 C5         -0.7962    4.3186    0.0156 C.ar      1 GTP        -0.1494
     26 C6         -1.3875    5.6031    0.4192 C.ar      1 GTP         0.7954
     27 O6         -2.1869    6.1731   -0.3158 O.2       1 GTP        -0.5729
     28 N1         -0.9745    6.0930    1.6597 N.2       1 GTP        -0.7443
     29 C2         -0.1105    5.4166    2.3900 C.ar      1 GTP         0.8831
     30 N2          0.3241    5.8571    3.6138 N.pl3     1 GTP        -0.9204
     31 N3          0.4444    4.2053    2.0072 N.pl3     1 GTP        -0.7173
     32 C4          0.0746    3.6889    0.8098 C.ar      1 GTP         0.2626
     33 HOG3       -0.6854    4.8903   -5.0397 H         1 GTP         0.4102
     34 H5'         1.2163   -0.0770   -2.0471 H         1 GTP         0.0289
     35 H5''        2.4655   -1.3443   -2.1563 H         1 GTP         0.0289
     36 H4'         3.8044   -0.1397   -0.4040 H         1 GTP         0.2056
     37 H3'         1.6764   -1.7639    0.2728 H         1 GTP         0.1140
     38 HO3'        2.2232   -1.2979    2.3953 H         1 GTP         0.4287
     39 H2'        -0.0011    0.0027    0.0003 H         1 GTP         0.0809
     40 HO2'       -0.1563   -0.9855    2.0596 H         1 GTP         0.4385
     41 H1'         1.7826    1.9024    1.6451 H         1 GTP         0.0794
     42 H8         -0.1415    1.7265   -1.7082 H         1 GTP         0.3821
     43 HN21       -0.0303    6.7197    3.9559 H         1 GTP         0.4411
     44 HN22        0.9765    5.2967    4.1108 H         1 GTP         0.4411
     45 H45         1.1068    3.6990    2.5819 H         1 GTP         0.4819
     46 H46        -1.5877    3.7943   -1.9074 H         1 GTP         0.5182
@<TRIPOS>BOND
     1    1    2 2
     2    1    3 1
     3    1    4 1
     4    1    5 1
     5    4   33 1
     6    5    6 1
     7    6    7 2
     8    6    8 1
     9    6    9 1
    10    9   10 1
    11   10   11 2
    12   10   12 1
    13   10   13 1
    14   13   14 1
    15   14   15 1
    16   14   34 1
    17   14   35 1
    18   15   16 1
    19   15   17 1
    20   15   36 1
    21   16   21 1
    22   17   18 1
    23   17   19 1
    24   17   37 1
    25   18   38 1
    26   19   20 1
    27   19   21 1
    28   19   39 1
    29   20   40 1
    30   21   22 1
    31   21   41 1
    32   22   23 ar
    33   22   32 ar
    34   23   24 ar
    35   23   42 1
    36   24   25 ar
    37   24   46 1
    38   25   26 ar
    39   25   32 ar
    40   26   27 2
    41   26   28 ar
    42   28   29 ar
    43   29   30 1
    44   29   31 ar
    45   30   43 1
    46   30   44 1
    47   31   32 ar
    48   31   45 1
@<TRIPOS>SUBSTRUCTURE
     1 GTP         1 GROUP 0 A     ****
@<TRIPOS>MOLECULE
[[[5-(2-amino-6-oxo-7,8-dihydro-3~{H}-purin-8-ylium-9-yl)-3,4-dihydroxy-tetrahydrofuran-2-yl]methoxy-oxido-phosphoryl]oxy-oxido-phosphoryl] hydrogen phosphate
   46    48     1     0     0
SMALL
USER_CHARGES

@<TRIPOS>ATOM
      1 PG         -6.9813   -5.1076    0.9706 P.3       1 GTP         1.5447
      2 O1G        -7.3730   -6.3759    0.2457 O.co2     1 GTP        -0.8705
      3 O2G        -7.9475   -4.4180    1.9079 O.co2     1 GTP        -0.8705
      4 O3G        -6.4621   -4.0200   -0.1309 O.3       1 GTP        -0.7914
      5 O3B        -5.5715   -5.3574    1.7540 O.3       1 GTP        -0.8116
      6 PB         -4.1458   -5.9174    1.1889 P.3       1 GTP         1.6738
      7 O1B        -4.3265   -7.3558    0.7577 O.co2     1 GTP        -0.8763
      8 O2B        -3.5412   -4.8838    0.2649 O.co2     1 GTP        -0.8763
      9 O3A        -3.2784   -5.8672    2.5709 O.3       1 GTP        -0.8005
     10 PA         -1.7207   -6.2770    2.8455 P.3       1 GTP         1.5754
     11 O1A        -1.3736   -5.9369    4.2788 O.co2     1 GTP        -0.8771
     12 O2A        -1.4795   -7.6638    2.2902 O.co2     1 GTP        -0.8771
     13 O5'        -0.9724   -5.2440    1.8220 O.3       1 GTP        -0.5809
     14 C5'        -0.7840   -3.8935    2.2172 C.3       1 GTP         0.1986
     15 C4'        -0.0724   -3.1466    1.1027 C.3       1 GTP         0.0418
     16 O4'        -0.8674   -3.1929   -0.0945 O.3       1 GTP        -0.3505
     17 C3'         0.1338   -1.6715    1.4027 C.3       1 GTP         0.0909
     18 O3'         1.2893   -1.4445    2.1808 O.3       1 GTP        -0.6187
     19 C2'         0.2158   -1.0724    0.0128 C.3       1 GTP         0.0706
     20 O2'         1.5141   -1.2448   -0.5513 O.3       1 GTP        -0.6294
     21 C1'        -0.7897   -1.9176   -0.7583 C.3       1 GTP         0.3895
     22 N9         -2.1040   -1.3333   -0.7704 N.pl3     1 GTP        -0.4733
     23 C8         -3.0774   -1.4939    0.1205 C.ar      1 GTP         0.2958
     24 N7         -4.1709   -0.8031   -0.1972 N.pl3     1 GTP        -0.4933
     25 C5         -3.8606   -0.1662   -1.3678 C.ar      1 GTP        -0.1494
     26 C6         -4.6738    0.7391   -2.1934 C.ar      1 GTP         0.7954
     27 O6         -5.8186    1.0214   -1.8562 O.2       1 GTP        -0.5729
     28 N1         -4.0520    1.2260   -3.3448 N.2       1 GTP        -0.7443
     29 C2         -2.8155    0.8734   -3.6351 C.ar      1 GTP         0.8831
     30 N2         -2.1637    1.3257   -4.7536 N.pl3     1 GTP        -0.9204
     31 N3         -2.0511    0.0205   -2.8541 N.pl3     1 GTP        -0.7173
     32 C4         -2.6117   -0.4790   -1.7258 C.ar      1 GTP         0.2626
     33 HOG3       -6.1699   -3.1385    0.1851 H         1 GTP         0.4102
     34 H5'        -1.7618   -3.4448    2.4164 H         1 GTP         0.0289
     35 H5''       -0.1874   -3.8744    3.1341 H         1 GTP         0.0289
     36 H4'         0.8874   -3.6466    0.8805 H         1 GTP         0.2056
     37 H3'        -0.7376   -1.2333    1.9867 H         1 GTP         0.1140
     38 HO3'        1.3408   -0.4870    2.3219 H         1 GTP         0.4287
     39 H2'        -0.0384   -0.0310    0.0096 H         1 GTP         0.0809
     40 HO2'        2.1463   -0.7958    0.0370 H         1 GTP         0.4385
     41 H1'        -0.4769   -2.1002   -1.8093 H         1 GTP         0.0794
     42 H8         -3.0010   -2.1083    1.0004 H         1 GTP         0.3821
     43 HN21       -2.6485    1.9422   -5.3633 H         1 GTP         0.4411
     44 HN22       -1.2319    1.0195   -4.9110 H         1 GTP         0.4411
     45 H45        -1.1018   -0.2391   -3.0927 H         1 GTP         0.4819
     46 H46        -5.0365   -0.7653    0.3226 H         1 GTP         0.5182
@<TRIPOS>BOND
     1    1    2 2
     2    1    3 1
     3    1    4 1
     4    1    5 1
     5    4   33 1
     6    5    6 1
     7    6    7 2
     8    6    8 1
     9    6    9 1
    10    9   10 1
    11   10   11 2
    12   10   12 1
    13   10   13 1
    14   13   14 1
    15   14   15 1
    16   14   34 1
    17   14   35 1
    18   15   16 1
    19   15   17 1
    20   15   36 1
    21   16   21 1
    22   17   18 1
    23   17   19 1
    24   17   37 1
    25   18   38 1
    26   19   20 1
    27   19   21 1
    28   19   39 1
    29   20   40 1
    30   21   22 1
    31   21   41 1
    32   22   23 ar
    33   22   32 ar
    34   23   24 ar
    35   23   42 1
    36   24   25 ar
    37   24   46 1
    38   25   26 ar
    39   25   32 ar
    40   26   27 2
    41   26   28 ar
    42   28   29 ar
    43   29   30 1
    44   29   31 ar
    45   30   43 1
    46   30   44 1
    47   31   32 ar
    48   31   45 1
@<TRIPOS>SUBSTRUCTURE
     1 GTP         1 GROUP 0 A     ****
@<TRIPOS>MOLECULE
[[[5-(2-amino-6-oxo-7,8-dihydro-3~{H}-purin-8-ylium-9-yl)-3,4-dihydroxy-tetrahydrofuran-2-yl]methoxy-oxido-phosphoryl]oxy-oxido-phosphoryl] hydrogen phosphate
   46    48     1     0     0
SMALL
USER_CHARGES

@<TRIPOS>ATOM
      1 PG         -2.0927    0.3203   -4.3783 P.3       1 GTP         1.5447
      2 O1G        -1.2686   -0.5405   -3.4470 O.co2     1 GTP        -0.8705
      3 O2G        -3.4297    0.8773   -3.9427 O.co2     1 GTP        -0.8705
      4 O3G        -2.2998   -0.4863   -5.7827 O.3       1 GTP        -0.7914
      5 O3B        -1.1647    1.5438   -4.9312 O.3       1 GTP        -0.8116
      6 PB          0.2960    1.5021   -5.6594 P.3       1 GTP         1.6738
      7 O1B         0.2147    0.5817   -6.8568 O.co2     1 GTP        -0.8763
      8 O2B         0.8275    2.9130   -5.7799 O.co2     1 GTP        -0.8763
      9 O3A         1.1584    0.7817   -4.4753 O.3       1 GTP        -0.8005
     10 PA          2.7407    0.3769   -4.4297 P.3       1 GTP         1.5754
     11 O1A         2.8866   -1.0655   -4.8640 O.co2     1 GTP        -0.8771
     12 O2A         3.5415    1.4776   -5.0906 O.co2     1 GTP        -0.8771
     13 O5'         3.0213    0.5153   -2.8245 O.3       1 GTP        -0.5809
     14 C5'         2.2816   -0.2918   -1.9206 C.3       1 GTP         0.1986
     15 C4'         2.7248    0.0226   -0.4980 C.3       1 GTP         0.0418
     16 O4'         2.4697    1.4219   -0.2462 O.3       1 GTP        -0.3505
     17 C3'         1.9404   -0.7419    0.5596 C.3       1 GTP         0.0909
     18 O3'         2.7418   -0.8086    1.7389 O.3       1 GTP        -0.6187
     19 C2'         0.7477    0.1630    0.7858 C.3       1 GTP         0.0706
     20 O2'         0.1373   -0.0577    2.0407 O.3       1 GTP        -0.6294
     21 C1'         1.3733    1.5427    0.6747 C.3       1 GTP         0.3895
     22 N9          0.4520    2.5240    0.1767 N.pl3     1 GTP        -0.4733
     23 C8         -0.2136    2.5096   -0.9739 C.ar      1 GTP         0.2958
     24 N7         -0.9896    3.5820   -1.1212 N.pl3     1 GTP        -0.4933
     25 C5         -0.7962    4.3186    0.0156 C.ar      1 GTP        -0.1494
     26 C6         -1.3875    5.6031    0.4192 C.ar      1 GTP         0.7954
     27 O6         -2.1869    6.1731   -0.3158 O.2       1 GTP        -0.5729
     28 N1         -0.9745    6.0930    1.6597 N.2       1 GTP        -0.7443
     29 C2         -0.1105    5.4166    2.3900 C.ar      1 GTP         0.8831
     30 N2          0.3241    5.8571    3.6138 N.pl3     1 GTP        -0.9204
     31 N3          0.4444    4.2053    2.0072 N.pl3     1 GTP        -0.7173
     32 C4          0.0746    3.6889    0.8098 C.ar      1 GTP         0.2626
     33 HOG3       -2.8181   -0.0564   -6.4960 H         1 GTP         0.4102
     34 H5'         1.2163   -0.0770   -2.0471 H         1 GTP         0.0289
     35 H5''        2.4655   -1.3443   -2.1563 H         1 GTP         0.0289
     36 H4'         3.8044   -0.1397   -0.4040 H         1 GTP         0.2056
     37 H3'         1.6764   -1.7639    0.2728 H         1 GTP         0.1140
     38 HO3'        2.2232   -1.2979    2.3953 H         1 GTP         0.4287
     39 H2'        -0.0011    0.0027    0.0003 H         1 GTP         0.0809
     40 HO2'       -0.6141    0.5574    2.1082 H         1 GTP         0.4385
     41 H1'         1.7826    1.9024    1.6451 H         1 GTP         0.0794
     42 H8         -0.1415    1.7265   -1.7082 H         1 GTP         0.3821
     43 HN21       -0.0303    6.7197    3.9559 H         1 GTP         0.4411
     44 HN22        0.9765    5.2967    4.1108 H         1 GTP         0.4411
     45 H45         1.1068    3.6990    2.5819 H         1 GTP         0.4819
     46 H46        -1.5877    3.7943   -1.9074 H         1 GTP         0.5182
@<TRIPOS>BOND
     1    1    2 2
     2    1    3 1
     3    1    4 1
     4    1    5 1
     5    4   33 1
     6    5    6 1
     7    6    7 2
     8    6    8 1
     9    6    9 1
    10    9   10 1
    11   10   11 2
    12   10   12 1
    13   10   13 1
    14   13   14 1
    15   14   15 1
    16   14   34 1
    17   14   35 1
    18   15   16 1
    19   15   17 1
    20   15   36 1
    21   16   21 1
    22   17   18 1
    23   17   19 1
    24   17   37 1
    25   18   38 1
    26   19   20 1
    27   19   21 1
    28   19   39 1
    29   20   40 1
    30   21   22 1
    31   21   41 1
    32   22   23 ar
    33   22   32 ar
    34   23   24 ar
    35   23   42 1
    36   24   25 ar
    37   24   46 1
    38   25   26 ar
    39   25   32 ar
    40   26   27 2
    41   26   28 ar
    42   28   29 ar
    43   29   30 1
    44   29   31 ar
    45   30   43 1
    46   30   44 1
    47   31   32 ar
    48   31   45 1
@<TRIPOS>SUBSTRUCTURE
     1 GTP         1 GROUP 0 A     ****
@<TRIPOS>MOLECULE
[[[5-(2-amino-6-oxo-7,8-dihydro-3~{H}-purin-8-ylium-9-yl)-3,4-dihydroxy-tetrahydrofuran-2-yl]methoxy-oxido-phosphoryl]oxy-oxido-phosphoryl] hydrogen phosphate
   46    48     1     0     0
SMALL
USER_CHARGES

@<TRIPOS>ATOM
      1 PG         -0.6672    2.9682   -6.6477 P.3       1 GTP         1.5447
      2 O1G        -1.4713    4.0975   -6.0431 O.co2     1 GTP        -0.8705
      3 O2G        -0.0215    3.1150   -8.0076 O.co2     1 GTP        -0.8705
      4 O3G        -1.5891    1.6206   -6.6544 O.3       1 GTP        -0.7914
      5 O3B         0.4642    2.4876   -5.5741 O.3       1 GTP        -0.8116
      6 PB          1.7726    3.2827   -5.0069 P.3       1 GTP         1.6738
      7 O1B         2.7412    3.4986   -6.1483 O.co2     1 GTP        -0.8763
      8 O2B         1.3131    4.4270   -4.1312 O.co2     1 GTP        -0.8763
      9 O3A         2.3599    2.1376   -4.0025 O.3       1 GTP        -0.8005
     10 PA          2.8621    0.6170   -4.3270 P.3       1 GTP         1.5754
     11 O1A         1.6809   -0.1909   -4.8193 O.co2     1 GTP        -0.8771
     12 O2A         4.1462    0.6908   -5.1241 O.co2     1 GTP        -0.8771
     13 O5'         3.2903    0.1346   -2.8241 O.3       1 GTP        -0.5809
     14 C5'         2.2816   -0.2918   -1.9206 C.3       1 GTP         0.1986
     15 C4'         2.7248    0.0226   -0.4980 C.3       1 GTP         0.0418
     16 O4'         2.4697    1.4219   -0.2462 O.3       1 GTP        -0.3505
     17 C3'         1.9404   -0.7419    0.5596 C.3       1 GTP         0.0909
     18 O3'         2.7418   -0.8086    1.7389 O.3       1 GTP        -0.6187
     19 C2'         0.7477    0.1630    0.7858 C.3       1 GTP         0.0706
     20 O2'         0.1373   -0.0577    2.0407 O.3       1 GTP        -0.6294
     21 C1'         1.3733    1.5427    0.6747 C.3       1 GTP         0.3895
     22 N9          0.4520    2.5240    0.1767 N.pl3     1 GTP        -0.4733
     23 C8          0.5427    3.2356   -0.9425 C.ar      1 GTP         0.2958
     24 N7         -0.4919    4.0590   -1.1018 N.pl3     1 GTP        -0.4933
     25 C5         -1.2850    3.8484   -0.0069 C.ar      1 GTP        -0.1494
     26 C6         -2.5644    4.4707    0.3650 C.ar      1 GTP         0.7954
     27 O6         -3.0718    5.3200   -0.3599 O.2       1 GTP        -0.5729
     28 N1         -3.1239    4.0269    1.5647 N.2       1 GTP        -0.7443
     29 C2         -2.5133    3.1079    2.2858 C.ar      1 GTP         0.8831
     30 N2         -3.0239    2.6409    3.4697 N.pl3     1 GTP        -0.9204
     31 N3         -1.3076    2.5223    1.9320 N.pl3     1 GTP        -0.7173
     32 C4         -0.7246    2.9211    0.7753 C.ar      1 GTP         0.2626
     33 HOG3       -1.2059    0.7945   -7.0188 H         1 GTP         0.4102
     34 H5'         1.3514    0.2330   -2.1577 H         1 GTP         0.0289
     35 H5''        2.1280   -1.3678   -2.0460 H         1 GTP         0.0289
     36 H4'         3.8044   -0.1397   -0.4040 H         1 GTP         0.2056
     37 H3'         1.6764   -1.7639    0.2728 H         1 GTP         0.1140
     38 HO3'        3.5554   -1.2733    1.4914 H         1 GTP         0.4287
     39 H2'        -0.0011    0.0027    0.0003 H         1 GTP         0.0809
     40 HO2'       -0.1563   -0.9855    2.0596 H         1 GTP         0.4385
     41 H1'         1.7826    1.9024    1.6451 H         1 GTP         0.0794
     42 H8          1.3539    3.1622   -1.6455 H         1 GTP         0.3821
     43 HN21       -3.8871    3.0143    3.7893 H         1 GTP         0.4411
     44 HN22       -2.5108    1.9472    3.9621 H         1 GTP         0.4411
     45 H45        -0.8530    1.8168    2.4986 H         1 GTP         0.4819
     46 H46        -0.6466    4.6966   -1.8702 H         1 GTP         0.5182
@<TRIPOS>BOND
     1    1    2 2
     2    1    3 1
     3    1    4 1
     4    1    5 1
     5    4   33 1
     6    5    6 1
     7    6    7 2
     8    6    8 1
     9    6    9 1
    10    9   10 1
    11   10   11 2
    12   10   12 1
    13   10   13 1
    14   13   14 1
    15   14   15 1
    16   14   34 1
    17   14   35 1
    18   15   16 1
    19   15   17 1
    20   15   36 1
    21   16   21 1
    22   17   18 1
    23   17   19 1
    24   17   37 1
    25   18   38 1
    26   19   20 1
    27   19   21 1
    28   19   39 1
    29   20   40 1
    30   21   22 1
    31   21   41 1
    32   22   23 ar
    33   22   32 ar
    34   23   24 ar
    35   23   42 1
    36   24   25 ar
    37   24   46 1
    38   25   26 ar
    39   25   32 ar
    40   26   27 2
    41   26   28 ar
    42   28   29 ar
    43   29   30 1
    44   29   31 ar
    45   30   43 1
    46   30   44 1
    47   31   32 ar
    48   31   45 1
@<TRIPOS>SUBSTRUCTURE
     1 GTP         1 GROUP 0 A     ****
@<TRIPOS>MOLECULE
[[[5-(2-amino-6-oxo-7,8-dihydro-3~{H}-purin-8-ylium-9-yl)-3,4-dihydroxy-tetrahydrofuran-2-yl]methoxy-oxido-phosphoryl]oxy-oxido-phosphoryl] hydrogen phosphate
   46    48     1     0     0
SMALL
USER_CHARGES

@<TRIPOS>ATOM
      1 PG         -2.5939   -1.6366   -2.8937 P.3       1 GTP         1.5447
      2 O1G        -2.7853   -1.1282   -1.4822 O.co2     1 GTP        -0.8705
      3 O2G        -1.9566   -0.7660   -3.9538 O.co2     1 GTP        -0.8705
      4 O3G        -4.0333   -2.1658   -3.4540 O.3       1 GTP        -0.7914
      5 O3B        -1.8087   -3.0665   -2.8414 O.3       1 GTP        -0.8116
      6 PB         -0.2798   -3.4039   -2.3788 P.3       1 GTP         1.6738
      7 O1B        -0.0627   -2.8564   -0.9857 O.co2     1 GTP        -0.8763
      8 O2B         0.0330   -4.8434   -2.7214 O.co2     1 GTP        -0.8763
      9 O3A         0.5293   -2.4845   -3.4582 O.3       1 GTP        -0.8005
     10 PA          2.1372   -2.2718   -3.6563 P.3       1 GTP         1.5754
     11 O1A         2.7866   -3.6248   -3.8512 O.co2     1 GTP        -0.8771
     12 O2A         2.3589   -1.1479   -4.6449 O.co2     1 GTP        -0.8771
     13 O5'         2.5245   -1.6648   -2.1878 O.3       1 GTP        -0.5809
     14 C5'         2.2816   -0.2918   -1.9206 C.3       1 GTP         0.1986
     15 C4'         2.7248    0.0226   -0.4980 C.3       1 GTP         0.0418
     16 O4'         2.4697    1.4219   -0.2462 O.3       1 GTP        -0.3505
     17 C3'         1.9404   -0.7419    0.5596 C.3       1 GTP         0.0909
     18 O3'         2.7418   -0.8086    1.7389 O.3       1 GTP        -0.6187
     19 C2'         0.7477    0.1630    0.7858 C.3       1 GTP         0.0706
     20 O2'         0.1373   -0.0577    2.0407 O.3       1 GTP        -0.6294
     21 C1'         1.3733    1.5427    0.6747 C.3       1 GTP         0.3895
     22 N9          0.4520    2.5240    0.1767 N.pl3     1 GTP        -0.4733
     23 C8          0.2012    2.8401   -1.0899 C.ar      1 GTP         0.2958
     24 N7         -0.7168    3.7990   -1.1981 N.pl3     1 GTP        -0.4933
     25 C5         -1.0645    4.1043    0.0896 C.ar      1 GTP        -0.1494
     26 C6         -2.0336    5.0870    0.5973 C.ar      1 GTP         0.7954
     27 O6         -2.6730    5.7839   -0.1834 O.2       1 GTP        -0.5729
     28 N1         -2.1539    5.1517    1.9868 N.2       1 GTP        -0.7443
     29 C2         -1.4288    4.3650    2.7566 C.ar      1 GTP         0.8831
     30 N2         -1.5126    4.3922    4.1250 N.pl3     1 GTP        -0.9204
     31 N3         -0.5167    3.4388    2.2748 N.pl3     1 GTP        -0.7173
     32 C4         -0.3638    3.3392    0.9318 C.ar      1 GTP         0.2626
     33 HOG3       -4.0749   -2.5294   -4.3642 H         1 GTP         0.4102
     34 H5'         2.8432    0.3119   -2.6398 H         1 GTP         0.0289
     35 H5''        1.2128   -0.0927   -2.0428 H         1 GTP         0.0289
     36 H4'         3.8044   -0.1397   -0.4040 H         1 GTP         0.2056
     37 H3'         1.6764   -1.7639    0.2728 H         1 GTP         0.1140
     38 HO3'        2.2232   -1.2979    2.3953 H         1 GTP         0.4287
     39 H2'        -0.0011    0.0027    0.0003 H         1 GTP         0.0809
     40 HO2'       -0.6141    0.5574    2.1082 H         1 GTP         0.4385
     41 H1'         1.7826    1.9024    1.6451 H         1 GTP         0.0794
     42 H8          0.6787    2.3803   -1.9373 H         1 GTP         0.3821
     43 HN21       -2.1462    5.0320    4.5446 H         1 GTP         0.4411
     44 HN22       -0.9365    3.7712    4.6440 H         1 GTP         0.4411
     45 H45         0.0318    2.8419    2.8816 H         1 GTP         0.4819
     46 H46        -1.0718    4.2049   -2.0526 H         1 GTP         0.5182
@<TRIPOS>BOND
     1    1    2 2
     2    1    3 1
     3    1    4 1
     4    1    5 1
     5    4   33 1
     6    5    6 1
     7    6    7 2
     8    6    8 1
     9    6    9 1
    10    9   10 1
    11   10   11 2
    12   10   12 1
    13   10   13 1
    14   13   14 1
    15   14   15 1
    16   14   34 1
    17   14   35 1
    18   15   16 1
    19   15   17 1
    20   15   36 1
    21   16   21 1
    22   17   18 1
    23   17   19 1
    24   17   37 1
    25   18   38 1
    26   19   20 1
    27   19   21 1
    28   19   39 1
    29   20   40 1
    30   21   22 1
    31   21   41 1
    32   22   23 ar
    33   22   32 ar
    34   23   24 ar
    35   23   42 1
    36   24   25 ar
    37   24   46 1
    38   25   26 ar
    39   25   32 ar
    40   26   27 2
    41   26   28 ar
    42   28   29 ar
    43   29   30 1
    44   29   31 ar
    45   30   43 1
    46   30   44 1
    47   31   32 ar
    48   31   45 1
@<TRIPOS>SUBSTRUCTURE
     1 GTP         1 GROUP 0 A     ****
@<TRIPOS>MOLECULE
[[[5-(2-amino-6-oxo-7,8-dihydro-3~{H}-purin-8-ylium-9-yl)-3,4-dihydroxy-tetrahydrofuran-2-yl]methoxy-oxido-phosphoryl]oxy-oxido-phosphoryl] hydrogen phosphate
   46    48     1     0     0
SMALL
USER_CHARGES

@<TRIPOS>ATOM
      1 PG          6.9297   -1.9413   -6.9477 P.3       1 GTP         1.5447
      2 O1G         7.5247   -0.6666   -7.5033 O.co2     1 GTP        -0.8705
      3 O2G         7.8167   -3.0718   -6.4756 O.co2     1 GTP        -0.8705
      4 O3G         5.8677   -2.5355   -8.0362 O.3       1 GTP        -0.7914
      5 O3B         5.8780   -1.5623   -5.7586 O.3       1 GTP        -0.8116
      6 PB          4.8510   -2.5203   -4.9260 P.3       1 GTP         1.6738
      7 O1B         3.8038   -3.0521   -5.8790 O.co2     1 GTP        -0.8763
      8 O2B         5.6509   -3.4429   -4.0336 O.co2     1 GTP        -0.8763
      9 O3A         4.1796   -1.3979   -3.9491 O.3       1 GTP        -0.8005
     10 PA          3.3343   -0.0514   -4.3264 P.3       1 GTP         1.5754
     11 O1A         4.2455    0.9036   -5.0666 O.co2     1 GTP        -0.8771
     12 O2A         1.9982   -0.4643   -4.9043 O.co2     1 GTP        -0.8771
     13 O5'         3.0213    0.5153   -2.8245 O.3       1 GTP        -0.5809
     14 C5'         2.2816   -0.2918   -1.9206 C.3       1 GTP         0.1986
     15 C4'         2.7248    0.0226   -0.4980 C.3       1 GTP         0.0418
     16 O4'         2.4697    1.4219   -0.2462 O.3       1 GTP        -0.3505
     17 C3'         1.9404   -0.7419    0.5596 C.3       1 GTP         0.0909
     18 O3'         2.7418   -0.8086    1.7389 O.3       1 GTP        -0.6187
     19 C2'         0.7477    0.1630    0.7858 C.3       1 GTP         0.0706
     20 O2'         0.1373   -0.0577    2.0407 O.3       1 GTP        -0.6294
     21 C1'         1.3733    1.5427    0.6747 C.3       1 GTP         0.3895
     22 N9          0.4520    2.5240    0.1767 N.pl3     1 GTP        -0.4733
     23 C8          0.2012    2.8401   -1.0899 C.ar      1 GTP         0.2958
     24 N7         -0.7168    3.7990   -1.1981 N.pl3     1 GTP        -0.4933
     25 C5         -1.0645    4.1043    0.0896 C.ar      1 GTP        -0.1494
     26 C6         -2.0336    5.0870    0.5973 C.ar      1 GTP         0.7954
     27 O6         -2.6730    5.7839   -0.1834 O.2       1 GTP        -0.5729
     28 N1         -2.1539    5.1517    1.9868 N.2       1 GTP        -0.7443
     29 C2         -1.4288    4.3650    2.7566 C.ar      1 GTP         0.8831
     30 N2         -1.5126    4.3922    4.1250 N.pl3     1 GTP        -0.9204
     31 N3         -0.5167    3.4388    2.2748 N.pl3     1 GTP        -0.7173
     32 C4         -0.3638    3.3392    0.9318 C.ar      1 GTP         0.2626
     33 HOG3        5.3941   -3.3670   -7.8206 H         1 GTP         0.4102
     34 H5'         1.2163   -0.0770   -2.0471 H         1 GTP         0.0289
     35 H5''        2.4655   -1.3443   -2.1563 H         1 GTP         0.0289
     36 H4'         3.8044   -0.1397   -0.4040 H         1 GTP         0.2056
     37 H3'         1.6764   -1.7639    0.2728 H         1 GTP         0.1140
     38 HO3'        2.2232   -1.2979    2.3953 H         1 GTP         0.4287
     39 H2'        -0.0011    0.0027    0.0003 H         1 GTP         0.0809
     40 HO2'       -0.6141    0.5574    2.1082 H         1 GTP         0.4385
     41 H1'         1.7826    1.9024    1.6451 H         1 GTP         0.0794
     42 H8          0.6787    2.3803   -1.9373 H         1 GTP         0.3821
     43 HN21       -2.1462    5.0320    4.5446 H         1 GTP         0.4411
     44 HN22       -0.9365    3.7712    4.6440 H         1 GTP         0.4411
     45 H45         0.0318    2.8419    2.8816 H         1 GTP         0.4819
     46 H46        -1.0718    4.2049   -2.0526 H         1 GTP         0.5182
@<TRIPOS>BOND
     1    1    2 2
     2    1    3 1
     3    1    4 1
     4    1    5 1
     5    4   33 1
     6    5    6 1
     7    6    7 2
     8    6    8 1
     9    6    9 1
    10    9   10 1
    11   10   11 2
    12   10   12 1
    13   10   13 1
    14   13   14 1
    15   14   15 1
    16   14   34 1
    17   14   35 1
    18   15   16 1
    19   15   17 1
    20   15   36 1
    21   16   21 1
    22   17   18 1
    23   17   19 1
    24   17   37 1
    25   18   38 1
    26   19   20 1
    27   19   21 1
    28   19   39 1
    29   20   40 1
    30   21   22 1
    31   21   41 1
    32   22   23 ar
    33   22   32 ar
    34   23   24 ar
    35   23   42 1
    36   24   25 ar
    37   24   46 1
    38   25   26 ar
    39   25   32 ar
    40   26   27 2
    41   26   28 ar
    42   28   29 ar
    43   29   30 1
    44   29   31 ar
    45   30   43 1
    46   30   44 1
    47   31   32 ar
    48   31   45 1
@<TRIPOS>SUBSTRUCTURE
     1 GTP         1 GROUP 0 A     ****
@<TRIPOS>MOLECULE
[[[5-(2-amino-6-oxo-7,8-dihydro-3~{H}-purin-8-ylium-9-yl)-3,4-dihydroxy-tetrahydrofuran-2-yl]methoxy-oxido-phosphoryl]oxy-oxido-phosphoryl] hydrogen phosphate
   46    48     1     0     0
SMALL
USER_CHARGES

@<TRIPOS>ATOM
      1 PG         -1.2563    0.5848   -5.7007 P.3       1 GTP         1.5447
      2 O1G        -0.8888    1.0855   -4.3217 O.co2     1 GTP        -0.8705
      3 O2G        -1.2726    1.5207   -6.8887 O.co2     1 GTP        -0.8705
      4 O3G        -2.7041   -0.1650   -5.6115 O.3       1 GTP        -0.7914
      5 O3B        -0.3299   -0.7100   -6.0600 O.3       1 GTP        -0.8116
      6 PB          1.2796   -0.8054   -6.3174 P.3       1 GTP         1.6738
      7 O1B         1.6595   -2.2605   -6.4776 O.co2     1 GTP        -0.8763
      8 O2B         1.6778    0.2342   -7.3413 O.co2     1 GTP        -0.8763
      9 O3A         1.8086   -0.2594   -4.8729 O.3       1 GTP        -0.8005
     10 PA          3.3343   -0.0514   -4.3264 P.3       1 GTP         1.5754
     11 O1A         4.0106   -1.4028   -4.2454 O.co2     1 GTP        -0.8771
     12 O2A         3.9675    1.0961   -5.0826 O.co2     1 GTP        -0.8771
     13 O5'         3.0213    0.5153   -2.8245 O.3       1 GTP        -0.5809
     14 C5'         2.2816   -0.2918   -1.9206 C.3       1 GTP         0.1986
     15 C4'         2.7248    0.0226   -0.4980 C.3       1 GTP         0.0418
     16 O4'         2.4697    1.4219   -0.2462 O.3       1 GTP        -0.3505
     17 C3'         1.9404   -0.7419    0.5596 C.3       1 GTP         0.0909
     18 O3'         2.7418   -0.8086    1.7389 O.3       1 GTP        -0.6187
     19 C2'         0.7477    0.1630    0.7858 C.3       1 GTP         0.0706
     20 O2'         0.1373   -0.0577    2.0407 O.3       1 GTP        -0.6294
     21 C1'         1.3733    1.5427    0.6747 C.3       1 GTP         0.3895
     22 N9          0.4520    2.5240    0.1767 N.pl3     1 GTP        -0.4733
     23 C8         -0.2136    2.5096   -0.9739 C.ar      1 GTP         0.2958
     24 N7         -0.9896    3.5820   -1.1212 N.pl3     1 GTP        -0.4933
     25 C5         -0.7962    4.3186    0.0156 C.ar      1 GTP        -0.1494
     26 C6         -1.3875    5.6031    0.4192 C.ar      1 GTP         0.7954
     27 O6         -2.1869    6.1731   -0.3158 O.2       1 GTP        -0.5729
     28 N1         -0.9745    6.0930    1.6597 N.2       1 GTP        -0.7443
     29 C2         -0.1105    5.4166    2.3900 C.ar      1 GTP         0.8831
     30 N2          0.3241    5.8571    3.6138 N.pl3     1 GTP        -0.9204
     31 N3          0.4444    4.2053    2.0072 N.pl3     1 GTP        -0.7173
     32 C4          0.0746    3.6889    0.8098 C.ar      1 GTP         0.2626
     33 HOG3       -3.0829   -0.5479   -6.4313 H         1 GTP         0.4102
     34 H5'         1.2163   -0.0770   -2.0471 H         1 GTP         0.0289
     35 H5''        2.4655   -1.3443   -2.1563 H         1 GTP         0.0289
     36 H4'         3.8044   -0.1397   -0.4040 H         1 GTP         0.2056
     37 H3'         1.6764   -1.7639    0.2728 H         1 GTP         0.1140
     38 HO3'        3.5554   -1.2733    1.4914 H         1 GTP         0.4287
     39 H2'        -0.0011    0.0027    0.0003 H         1 GTP         0.0809
     40 HO2'       -0.1563   -0.9855    2.0596 H         1 GTP         0.4385
     41 H1'         1.7826    1.9024    1.6451 H         1 GTP         0.0794
     42 H8         -0.1415    1.7265   -1.7082 H         1 GTP         0.3821
     43 HN21       -0.0303    6.7197    3.9559 H         1 GTP         0.4411
     44 HN22        0.9765    5.2967    4.1108 H         1 GTP         0.4411
     45 H45         1.1068    3.6990    2.5819 H         1 GTP         0.4819
     46 H46        -1.5877    3.7943   -1.9074 H         1 GTP         0.5182
@<TRIPOS>BOND
     1    1    2 2
     2    1    3 1
     3    1    4 1
     4    1    5 1
     5    4   33 1
     6    5    6 1
     7    6    7 2
     8    6    8 1
     9    6    9 1
    10    9   10 1
    11   10   11 2
    12   10   12 1
    13   10   13 1
    14   13   14 1
    15   14   15 1
    16   14   34 1
    17   14   35 1
    18   15   16 1
    19   15   17 1
    20   15   36 1
    21   16   21 1
    22   17   18 1
    23   17   19 1
    24   17   37 1
    25   18   38 1
    26   19   20 1
    27   19   21 1
    28   19   39 1
    29   20   40 1
    30   21   22 1
    31   21   41 1
    32   22   23 ar
    33   22   32 ar
    34   23   24 ar
    35   23   42 1
    36   24   25 ar
    37   24   46 1
    38   25   26 ar
    39   25   32 ar
    40   26   27 2
    41   26   28 ar
    42   28   29 ar
    43   29   30 1
    44   29   31 ar
    45   30   43 1
    46   30   44 1
    47   31   32 ar
    48   31   45 1
@<TRIPOS>SUBSTRUCTURE
     1 GTP         1 GROUP 0 A     ****
@<TRIPOS>MOLECULE
[[[5-(2-amino-6-oxo-7,8-dihydro-3~{H}-purin-8-ylium-9-yl)-3,4-dihydroxy-tetrahydrofuran-2-yl]methoxy-oxido-phosphoryl]oxy-oxido-phosphoryl] hydrogen phosphate
   46    48     1     0     0
SMALL
USER_CHARGES

@<TRIPOS>ATOM
      1 PG         -1.7103    2.2071   -3.9757 P.3       1 GTP         1.5447
      2 O1G        -0.9501    1.6401   -2.7975 O.co2     1 GTP        -0.8705
      3 O2G        -2.6654    3.3666   -3.7992 O.co2     1 GTP        -0.8705
      4 O3G        -2.5060    0.9879   -4.7148 O.3       1 GTP        -0.7914
      5 O3B        -0.6534    2.5688   -5.1655 O.3       1 GTP        -0.8116
      6 PB          0.4851    1.6362   -5.8724 P.3       1 GTP         1.6738
      7 O1B        -0.1721    0.3747   -6.3864 O.co2     1 GTP        -0.8763
      8 O2B         1.3461    2.5010   -6.7660 O.co2     1 GTP        -0.8763
      9 O3A         1.3881    1.2844   -4.5588 O.3       1 GTP        -0.8005
     10 PA          2.7407    0.3769   -4.4297 P.3       1 GTP         1.5754
     11 O1A         2.4007   -1.0556   -4.7799 O.co2     1 GTP        -0.8771
     12 O2A         3.8776    1.1015   -5.1169 O.co2     1 GTP        -0.8771
     13 O5'         3.0213    0.5153   -2.8245 O.3       1 GTP        -0.5809
     14 C5'         2.2816   -0.2918   -1.9206 C.3       1 GTP         0.1986
     15 C4'         2.7248    0.0226   -0.4980 C.3       1 GTP         0.0418
     16 O4'         2.4697    1.4219   -0.2462 O.3       1 GTP        -0.3505
     17 C3'         1.9404   -0.7419    0.5596 C.3       1 GTP         0.0909
     18 O3'         2.7418   -0.8086    1.7389 O.3       1 GTP        -0.6187
     19 C2'         0.7477    0.1630    0.7858 C.3       1 GTP         0.0706
     20 O2'         0.1373   -0.0577    2.0407 O.3       1 GTP        -0.6294
     21 C1'         1.3733    1.5427    0.6747 C.3       1 GTP         0.3895
     22 N9          0.4520    2.5240    0.1767 N.pl3     1 GTP        -0.4733
     23 C8          0.5427    3.2356   -0.9425 C.ar      1 GTP         0.2958
     24 N7         -0.4919    4.0590   -1.1018 N.pl3     1 GTP        -0.4933
     25 C5         -1.2850    3.8484   -0.0069 C.ar      1 GTP        -0.1494
     26 C6         -2.5644    4.4707    0.3650 C.ar      1 GTP         0.7954
     27 O6         -3.0718    5.3200   -0.3599 O.2       1 GTP        -0.5729
     28 N1         -3.1239    4.0269    1.5647 N.2       1 GTP        -0.7443
     29 C2         -2.5133    3.1079    2.2858 C.ar      1 GTP         0.8831
     30 N2         -3.0239    2.6409    3.4697 N.pl3     1 GTP        -0.9204
     31 N3         -1.3076    2.5223    1.9320 N.pl3     1 GTP        -0.7173
     32 C4         -0.7246    2.9211    0.7753 C.ar      1 GTP         0.2626
     33 HOG3       -3.0500    1.1961   -5.5041 H         1 GTP         0.4102
     34 H5'         1.2163   -0.0770   -2.0471 H         1 GTP         0.0289
     35 H5''        2.4655   -1.3443   -2.1563 H         1 GTP         0.0289
     36 H4'         3.8044   -0.1397   -0.4040 H         1 GTP         0.2056
     37 H3'         1.6764   -1.7639    0.2728 H         1 GTP         0.1140
     38 HO3'        3.5554   -1.2733    1.4914 H         1 GTP         0.4287
     39 H2'        -0.0011    0.0027    0.0003 H         1 GTP         0.0809
     40 HO2'       -0.1563   -0.9855    2.0596 H         1 GTP         0.4385
     41 H1'         1.7826    1.9024    1.6451 H         1 GTP         0.0794
     42 H8          1.3539    3.1622   -1.6455 H         1 GTP         0.3821
     43 HN21       -3.8871    3.0143    3.7893 H         1 GTP         0.4411
     44 HN22       -2.5108    1.9472    3.9621 H         1 GTP         0.4411
     45 H45        -0.8530    1.8168    2.4986 H         1 GTP         0.4819
     46 H46        -0.6466    4.6966   -1.8702 H         1 GTP         0.5182
@<TRIPOS>BOND
     1    1    2 2
     2    1    3 1
     3    1    4 1
     4    1    5 1
     5    4   33 1
     6    5    6 1
     7    6    7 2
     8    6    8 1
     9    6    9 1
    10    9   10 1
    11   10   11 2
    12   10   12 1
    13   10   13 1
    14   13   14 1
    15   14   15 1
    16   14   34 1
    17   14   35 1
    18   15   16 1
    19   15   17 1
    20   15   36 1
    21   16   21 1
    22   17   18 1
    23   17   19 1
    24   17   37 1
    25   18   38 1
    26   19   20 1
    27   19   21 1
    28   19   39 1
    29   20   40 1
    30   21   22 1
    31   21   41 1
    32   22   23 ar
    33   22   32 ar
    34   23   24 ar
    35   23   42 1
    36   24   25 ar
    37   24   46 1
    38   25   26 ar
    39   25   32 ar
    40   26   27 2
    41   26   28 ar
    42   28   29 ar
    43   29   30 1
    44   29   31 ar
    45   30   43 1
    46   30   44 1
    47   31   32 ar
    48   31   45 1
@<TRIPOS>SUBSTRUCTURE
     1 GTP         1 GROUP 0 A     ****
@<TRIPOS>MOLECULE
[[[5-(2-amino-6-oxo-7,8-dihydro-3~{H}-purin-8-ylium-9-yl)-3,4-dihydroxy-tetrahydrofuran-2-yl]methoxy-oxido-phosphoryl]oxy-oxido-phosphoryl] hydrogen phosphate
   46    48     1     0     0
SMALL
USER_CHARGES

@<TRIPOS>ATOM
      1 PG          1.1666    4.3297   -4.9374 P.3       1 GTP         1.5447
      2 O1G         2.2631    4.9194   -5.7962 O.co2     1 GTP        -0.8705
      3 O2G        -0.0107    5.1699   -4.4949 O.co2     1 GTP        -0.8705
      4 O3G         1.8486    3.6560   -3.6158 O.3       1 GTP        -0.7914
      5 O3B         0.6090    2.9701   -5.6474 O.3       1 GTP        -0.8116
      6 PB          1.4216    1.6531   -6.1679 P.3       1 GTP         1.6738
      7 O1B         0.4209    0.6149   -6.6242 O.co2     1 GTP        -0.8763
      8 O2B         2.5629    2.0966   -7.0557 O.co2     1 GTP        -0.8763
      9 O3A         2.0898    1.1823   -4.7548 O.3       1 GTP        -0.8005
     10 PA          3.0675   -0.0857   -4.4293 P.3       1 GTP         1.5754
     11 O1A         2.3024   -1.3670   -4.6805 O.co2     1 GTP        -0.8771
     12 O2A         4.4130    0.1616   -5.0759 O.co2     1 GTP        -0.8771
     13 O5'         3.2903    0.1346   -2.8241 O.3       1 GTP        -0.5809
     14 C5'         2.2816   -0.2918   -1.9206 C.3       1 GTP         0.1986
     15 C4'         2.7248    0.0226   -0.4980 C.3       1 GTP         0.0418
     16 O4'         2.4697    1.4219   -0.2462 O.3       1 GTP        -0.3505
     17 C3'         1.9404   -0.7419    0.5596 C.3       1 GTP         0.0909
     18 O3'         2.7418   -0.8086    1.7389 O.3       1 GTP        -0.6187
     19 C2'         0.7477    0.1630    0.7858 C.3       1 GTP         0.0706
     20 O2'         0.1373   -0.0577    2.0407 O.3       1 GTP        -0.6294
     21 C1'         1.3733    1.5427    0.6747 C.3       1 GTP         0.3895
     22 N9          0.4520    2.5240    0.1767 N.pl3     1 GTP        -0.4733
     23 C8         -0.2136    2.5096   -0.9739 C.ar      1 GTP         0.2958
     24 N7         -0.9896    3.5820   -1.1212 N.pl3     1 GTP        -0.4933
     25 C5         -0.7962    4.3186    0.0156 C.ar      1 GTP        -0.1494
     26 C6         -1.3875    5.6031    0.4192 C.ar      1 GTP         0.7954
     27 O6         -2.1869    6.1731   -0.3158 O.2       1 GTP        -0.5729
     28 N1         -0.9745    6.0930    1.6597 N.2       1 GTP        -0.7443
     29 C2         -0.1105    5.4166    2.3900 C.ar      1 GTP         0.8831
     30 N2          0.3241    5.8571    3.6138 N.pl3     1 GTP        -0.9204
     31 N3          0.4444    4.2053    2.0072 N.pl3     1 GTP        -0.7173
     32 C4          0.0746    3.6889    0.8098 C.ar      1 GTP         0.2626
     33 HOG3        1.2633    3.2279   -2.9551 H         1 GTP         0.4102
     34 H5'         1.3514    0.2330   -2.1577 H         1 GTP         0.0289
     35 H5''        2.1280   -1.3678   -2.0460 H         1 GTP         0.0289
     36 H4'         3.8044   -0.1397   -0.4040 H         1 GTP         0.2056
     37 H3'         1.6764   -1.7639    0.2728 H         1 GTP         0.1140
     38 HO3'        2.2232   -1.2979    2.3953 H         1 GTP         0.4287
     39 H2'        -0.0011    0.0027    0.0003 H         1 GTP         0.0809
     40 HO2'       -0.6141    0.5574    2.1082 H         1 GTP         0.4385
     41 H1'         1.7826    1.9024    1.6451 H         1 GTP         0.0794
     42 H8         -0.1415    1.7265   -1.7082 H         1 GTP         0.3821
     43 HN21       -0.0303    6.7197    3.9559 H         1 GTP         0.4411
     44 HN22        0.9765    5.2967    4.1108 H         1 GTP         0.4411
     45 H45         1.1068    3.6990    2.5819 H         1 GTP         0.4819
     46 H46        -1.5877    3.7943   -1.9074 H         1 GTP         0.5182
@<TRIPOS>BOND
     1    1    2 2
     2    1    3 1
     3    1    4 1
     4    1    5 1
     5    4   33 1
     6    5    6 1
     7    6    7 2
     8    6    8 1
     9    6    9 1
    10    9   10 1
    11   10   11 2
    12   10   12 1
    13   10   13 1
    14   13   14 1
    15   14   15 1
    16   14   34 1
    17   14   35 1
    18   15   16 1
    19   15   17 1
    20   15   36 1
    21   16   21 1
    22   17   18 1
    23   17   19 1
    24   17   37 1
    25   18   38 1
    26   19   20 1
    27   19   21 1
    28   19   39 1
    29   20   40 1
    30   21   22 1
    31   21   41 1
    32   22   23 ar
    33   22   32 ar
    34   23   24 ar
    35   23   42 1
    36   24   25 ar
    37   24   46 1
    38   25   26 ar
    39   25   32 ar
    40   26   27 2
    41   26   28 ar
    42   28   29 ar
    43   29   30 1
    44   29   31 ar
    45   30   43 1
    46   30   44 1
    47   31   32 ar
    48   31   45 1
@<TRIPOS>SUBSTRUCTURE
     1 GTP         1 GROUP 0 A     ****
@<TRIPOS>MOLECULE
[[[5-(2-amino-6-oxo-7,8-dihydro-3~{H}-purin-8-ylium-9-yl)-3,4-dihydroxy-tetrahydrofuran-2-yl]methoxy-oxido-phosphoryl]oxy-oxido-phosphoryl] hydrogen phosphate
   46    48     1     0     0
SMALL
USER_CHARGES

@<TRIPOS>ATOM
      1 PG          2.5416   -0.2210   -8.9580 P.3       1 GTP         1.5447
      2 O1G         2.9001   -1.6152   -9.4220 O.co2     1 GTP        -0.8705
      3 O2G         1.3311    0.4958   -9.5133 O.co2     1 GTP        -0.8705
      4 O3G         3.8469    0.7410   -9.1495 O.3       1 GTP        -0.7914
      5 O3B         2.4626   -0.2077   -7.3278 O.3       1 GTP        -0.8116
      6 PB          1.4074   -0.9480   -6.3257 P.3       1 GTP         1.6738
      7 O1B         0.0345   -0.3508   -6.5403 O.co2     1 GTP        -0.8763
      8 O2B         1.6386   -2.4416   -6.3819 O.co2     1 GTP        -0.8763
      9 O3A         2.0053   -0.4400   -4.8942 O.3       1 GTP        -0.8005
     10 PA          3.4844   -0.6652   -4.2374 P.3       1 GTP         1.5754
     11 O1A         3.6822   -2.1433   -3.9794 O.co2     1 GTP        -0.8771
     12 O2A         4.4944    0.1320   -5.0337 O.co2     1 GTP        -0.8771
     13 O5'         3.2903    0.1346   -2.8241 O.3       1 GTP        -0.5809
     14 C5'         2.2816   -0.2918   -1.9206 C.3       1 GTP         0.1986
     15 C4'         2.7248    0.0226   -0.4980 C.3       1 GTP         0.0418
     16 O4'         2.4697    1.4219   -0.2462 O.3       1 GTP        -0.3505
     17 C3'         1.9404   -0.7419    0.5596 C.3       1 GTP         0.0909
     18 O3'         2.7418   -0.8086    1.7389 O.3       1 GTP        -0.6187
     19 C2'         0.7477    0.1630    0.7858 C.3       1 GTP         0.0706
     20 O2'         0.1373   -0.0577    2.0407 O.3       1 GTP        -0.6294
     21 C1'         1.3733    1.5427    0.6747 C.3       1 GTP         0.3895
     22 N9          0.4520    2.5240    0.1767 N.pl3     1 GTP        -0.4733
     23 C8          0.2012    2.8401   -1.0899 C.ar      1 GTP         0.2958
     24 N7         -0.7168    3.7990   -1.1981 N.pl3     1 GTP        -0.4933
     25 C5         -1.0645    4.1043    0.0896 C.ar      1 GTP        -0.1494
     26 C6         -2.0336    5.0870    0.5973 C.ar      1 GTP         0.7954
     27 O6         -2.6730    5.7839   -0.1834 O.2       1 GTP        -0.5729
     28 N1         -2.1539    5.1517    1.9868 N.2       1 GTP        -0.7443
     29 C2         -1.4288    4.3650    2.7566 C.ar      1 GTP         0.8831
     30 N2         -1.5126    4.3922    4.1250 N.pl3     1 GTP        -0.9204
     31 N3         -0.5167    3.4388    2.2748 N.pl3     1 GTP        -0.7173
     32 C4         -0.3638    3.3392    0.9318 C.ar      1 GTP         0.2626
     33 HOG3        3.7735    1.6845   -8.8912 H         1 GTP         0.4102
     34 H5'         1.3514    0.2330   -2.1577 H         1 GTP         0.0289
     35 H5''        2.1280   -1.3678   -2.0460 H         1 GTP         0.0289
     36 H4'         3.8044   -0.1397   -0.4040 H         1 GTP         0.2056
     37 H3'         1.6764   -1.7639    0.2728 H         1 GTP         0.1140
     38 HO3'        3.5554   -1.2733    1.4914 H         1 GTP         0.4287
     39 H2'        -0.0011    0.0027    0.0003 H         1 GTP         0.0809
     40 HO2'       -0.1563   -0.9855    2.0596 H         1 GTP         0.4385
     41 H1'         1.7826    1.9024    1.6451 H         1 GTP         0.0794
     42 H8          0.6787    2.3803   -1.9373 H         1 GTP         0.3821
     43 HN21       -2.1462    5.0320    4.5446 H         1 GTP         0.4411
     44 HN22       -0.9365    3.7712    4.6440 H         1 GTP         0.4411
     45 H45         0.0318    2.8419    2.8816 H         1 GTP         0.4819
     46 H46        -1.0718    4.2049   -2.0526 H         1 GTP         0.5182
@<TRIPOS>BOND
     1    1    2 2
     2    1    3 1
     3    1    4 1
     4    1    5 1
     5    4   33 1
     6    5    6 1
     7    6    7 2
     8    6    8 1
     9    6    9 1
    10    9   10 1
    11   10   11 2
    12   10   12 1
    13   10   13 1
    14   13   14 1
    15   14   15 1
    16   14   34 1
    17   14   35 1
    18   15   16 1
    19   15   17 1
    20   15   36 1
    21   16   21 1
    22   17   18 1
    23   17   19 1
    24   17   37 1
    25   18   38 1
    26   19   20 1
    27   19   21 1
    28   19   39 1
    29   20   40 1
    30   21   22 1
    31   21   41 1
    32   22   23 ar
    33   22   32 ar
    34   23   24 ar
    35   23   42 1
    36   24   25 ar
    37   24   46 1
    38   25   26 ar
    39   25   32 ar
    40   26   27 2
    41   26   28 ar
    42   28   29 ar
    43   29   30 1
    44   29   31 ar
    45   30   43 1
    46   30   44 1
    47   31   32 ar
    48   31   45 1
@<TRIPOS>SUBSTRUCTURE
     1 GTP         1 GROUP 0 A     ****
@<TRIPOS>MOLECULE
[[[5-(2-amino-6-oxo-7,8-dihydro-3~{H}-purin-8-ylium-9-yl)-3,4-dihydroxy-tetrahydrofuran-2-yl]methoxy-oxido-phosphoryl]oxy-oxido-phosphoryl] hydrogen phosphate
   46    48     1     0     0
SMALL
USER_CHARGES

@<TRIPOS>ATOM
      1 PG          3.3359   -4.1714   -6.8553 P.3       1 GTP         1.5447
      2 O1G         3.9713   -5.4583   -6.3783 O.co2     1 GTP        -0.8705
      3 O2G         1.9096   -4.1485   -7.3582 O.co2     1 GTP        -0.8705
      4 O3G         4.2985   -3.5092   -7.9959 O.3       1 GTP        -0.7914
      5 O3B         3.5068   -3.0337   -5.6976 O.3       1 GTP        -0.8116
      6 PB          4.8510   -2.5203   -4.9260 P.3       1 GTP         1.6738
      7 O1B         5.3944   -3.6576   -4.0902 O.co2     1 GTP        -0.8763
      8 O2B         5.7254   -1.7692   -5.9053 O.co2     1 GTP        -0.8763
      9 O3A         4.1796   -1.3979   -3.9491 O.3       1 GTP        -0.8005
     10 PA          3.3343   -0.0514   -4.3264 P.3       1 GTP         1.5754
     11 O1A         4.2455    0.9036   -5.0666 O.co2     1 GTP        -0.8771
     12 O2A         1.9982   -0.4643   -4.9043 O.co2     1 GTP        -0.8771
     13 O5'         3.0213    0.5153   -2.8245 O.3       1 GTP        -0.5809
     14 C5'         2.2816   -0.2918   -1.9206 C.3       1 GTP         0.1986
     15 C4'         2.7248    0.0226   -0.4980 C.3       1 GTP         0.0418
     16 O4'         2.4697    1.4219   -0.2462 O.3       1 GTP        -0.3505
     17 C3'         1.9404   -0.7419    0.5596 C.3       1 GTP         0.0909
     18 O3'         2.7418   -0.8086    1.7389 O.3       1 GTP        -0.6187
     19 C2'         0.7477    0.1630    0.7858 C.3       1 GTP         0.0706
     20 O2'         0.1373   -0.0577    2.0407 O.3       1 GTP        -0.6294
     21 C1'         1.3733    1.5427    0.6747 C.3       1 GTP         0.3895
     22 N9          0.4520    2.5240    0.1767 N.pl3     1 GTP        -0.4733
     23 C8          0.2012    2.8401   -1.0899 C.ar      1 GTP         0.2958
     24 N7         -0.7168    3.7990   -1.1981 N.pl3     1 GTP        -0.4933
     25 C5         -1.0645    4.1043    0.0896 C.ar      1 GTP        -0.1494
     26 C6         -2.0336    5.0870    0.5973 C.ar      1 GTP         0.7954
     27 O6         -2.6730    5.7839   -0.1834 O.2       1 GTP        -0.5729
     28 N1         -2.1539    5.1517    1.9868 N.2       1 GTP        -0.7443
     29 C2         -1.4288    4.3650    2.7566 C.ar      1 GTP         0.8831
     30 N2         -1.5126    4.3922    4.1250 N.pl3     1 GTP        -0.9204
     31 N3         -0.5167    3.4388    2.2748 N.pl3     1 GTP        -0.7173
     32 C4         -0.3638    3.3392    0.9318 C.ar      1 GTP         0.2626
     33 HOG3        4.0210   -2.6629   -8.4071 H         1 GTP         0.4102
     34 H5'         1.2163   -0.0770   -2.0471 H         1 GTP         0.0289
     35 H5''        2.4655   -1.3443   -2.1563 H         1 GTP         0.0289
     36 H4'         3.8044   -0.1397   -0.4040 H         1 GTP         0.2056
     37 H3'         1.6764   -1.7639    0.2728 H         1 GTP         0.1140
     38 HO3'        2.2232   -1.2979    2.3953 H         1 GTP         0.4287
     39 H2'        -0.0011    0.0027    0.0003 H         1 GTP         0.0809
     40 HO2'       -0.6141    0.5574    2.1082 H         1 GTP         0.4385
     41 H1'         1.7826    1.9024    1.6451 H         1 GTP         0.0794
     42 H8          0.6787    2.3803   -1.9373 H         1 GTP         0.3821
     43 HN21       -2.1462    5.0320    4.5446 H         1 GTP         0.4411
     44 HN22       -0.9365    3.7712    4.6440 H         1 GTP         0.4411
     45 H45         0.0318    2.8419    2.8816 H         1 GTP         0.4819
     46 H46        -1.0718    4.2049   -2.0526 H         1 GTP         0.5182
@<TRIPOS>BOND
     1    1    2 2
     2    1    3 1
     3    1    4 1
     4    1    5 1
     5    4   33 1
     6    5    6 1
     7    6    7 2
     8    6    8 1
     9    6    9 1
    10    9   10 1
    11   10   11 2
    12   10   12 1
    13   10   13 1
    14   13   14 1
    15   14   15 1
    16   14   34 1
    17   14   35 1
    18   15   16 1
    19   15   17 1
    20   15   36 1
    21   16   21 1
    22   17   18 1
    23   17   19 1
    24   17   37 1
    25   18   38 1
    26   19   20 1
    27   19   21 1
    28   19   39 1
    29   20   40 1
    30   21   22 1
    31   21   41 1
    32   22   23 ar
    33   22   32 ar
    34   23   24 ar
    35   23   42 1
    36   24   25 ar
    37   24   46 1
    38   25   26 ar
    39   25   32 ar
    40   26   27 2
    41   26   28 ar
    42   28   29 ar
    43   29   30 1
    44   29   31 ar
    45   30   43 1
    46   30   44 1
    47   31   32 ar
    48   31   45 1
@<TRIPOS>SUBSTRUCTURE
     1 GTP         1 GROUP 0 A     ****
@<TRIPOS>MOLECULE
[[[5-(2-amino-6-oxo-7,8-dihydro-3~{H}-purin-8-ylium-9-yl)-3,4-dihydroxy-tetrahydrofuran-2-yl]methoxy-oxido-phosphoryl]oxy-oxido-phosphoryl] hydrogen phosphate
   46    48     1     0     0
SMALL
USER_CHARGES

@<TRIPOS>ATOM
      1 PG          3.5239   -0.1771   -7.0214 P.3       1 GTP         1.5447
      2 O1G         4.1703   -1.3837   -7.6646 O.co2     1 GTP        -0.8705
      3 O2G         3.6936    1.2041   -7.6142 O.co2     1 GTP        -0.8705
      4 O3G         3.9689   -0.1256   -5.4513 O.3       1 GTP        -0.7914
      5 O3B         1.9319   -0.4730   -6.8170 O.3       1 GTP        -0.8116
      6 PB          1.1870   -1.7278   -6.0847 P.3       1 GTP         1.6738
      7 O1B        -0.2998   -1.4531   -6.0457 O.co2     1 GTP        -0.8763
      8 O2B         1.7388   -3.0217   -6.6406 O.co2     1 GTP        -0.8763
      9 O3A         1.8113   -1.5642   -4.5853 O.3       1 GTP        -0.8005
     10 PA          1.5544   -2.4558   -3.2404 P.3       1 GTP         1.5754
     11 O1A         0.1056   -2.3088   -2.8286 O.co2     1 GTP        -0.8771
     12 O2A         2.1769   -3.8208   -3.4380 O.co2     1 GTP        -0.8771
     13 O5'         2.5245   -1.6648   -2.1878 O.3       1 GTP        -0.5809
     14 C5'         2.2816   -0.2918   -1.9206 C.3       1 GTP         0.1986
     15 C4'         2.7248    0.0226   -0.4980 C.3       1 GTP         0.0418
     16 O4'         2.4697    1.4219   -0.2462 O.3       1 GTP        -0.3505
     17 C3'         1.9404   -0.7419    0.5596 C.3       1 GTP         0.0909
     18 O3'         2.7418   -0.8086    1.7389 O.3       1 GTP        -0.6187
     19 C2'         0.7477    0.1630    0.7858 C.3       1 GTP         0.0706
     20 O2'         0.1373   -0.0577    2.0407 O.3       1 GTP        -0.6294
     21 C1'         1.3733    1.5427    0.6747 C.3       1 GTP         0.3895
     22 N9          0.4520    2.5240    0.1767 N.pl3     1 GTP        -0.4733
     23 C8          0.2012    2.8401   -1.0899 C.ar      1 GTP         0.2958
     24 N7         -0.7168    3.7990   -1.1981 N.pl3     1 GTP        -0.4933
     25 C5         -1.0645    4.1043    0.0896 C.ar      1 GTP        -0.1494
     26 C6         -2.0336    5.0870    0.5973 C.ar      1 GTP         0.7954
     27 O6         -2.6730    5.7839   -0.1834 O.2       1 GTP        -0.5729
     28 N1         -2.1539    5.1517    1.9868 N.2       1 GTP        -0.7443
     29 C2         -1.4288    4.3650    2.7566 C.ar      1 GTP         0.8831
     30 N2         -1.5126    4.3922    4.1250 N.pl3     1 GTP        -0.9204
     31 N3         -0.5167    3.4388    2.2748 N.pl3     1 GTP        -0.7173
     32 C4         -0.3638    3.3392    0.9318 C.ar      1 GTP         0.2626
     33 HOG3        3.6285    0.6059   -4.8933 H         1 GTP         0.4102
     34 H5'         2.8432    0.3119   -2.6398 H         1 GTP         0.0289
     35 H5''        1.2128   -0.0927   -2.0428 H         1 GTP         0.0289
     36 H4'         3.8044   -0.1397   -0.4040 H         1 GTP         0.2056
     37 H3'         1.6764   -1.7639    0.2728 H         1 GTP         0.1140
     38 HO3'        2.2232   -1.2979    2.3953 H         1 GTP         0.4287
     39 H2'        -0.0011    0.0027    0.0003 H         1 GTP         0.0809
     40 HO2'       -0.1563   -0.9855    2.0596 H         1 GTP         0.4385
     41 H1'         1.7826    1.9024    1.6451 H         1 GTP         0.0794
     42 H8          0.6787    2.3803   -1.9373 H         1 GTP         0.3821
     43 HN21       -2.1462    5.0320    4.5446 H         1 GTP         0.4411
     44 HN22       -0.9365    3.7712    4.6440 H         1 GTP         0.4411
     45 H45         0.0318    2.8419    2.8816 H         1 GTP         0.4819
     46 H46        -1.0718    4.2049   -2.0526 H         1 GTP         0.5182
@<TRIPOS>BOND
     1    1    2 2
     2    1    3 1
     3    1    4 1
     4    1    5 1
     5    4   33 1
     6    5    6 1
     7    6    7 2
     8    6    8 1
     9    6    9 1
    10    9   10 1
    11   10   11 2
    12   10   12 1
    13   10   13 1
    14   13   14 1
    15   14   15 1
    16   14   34 1
    17   14   35 1
    18   15   16 1
    19   15   17 1
    20   15   36 1
    21   16   21 1
    22   17   18 1
    23   17   19 1
    24   17   37 1
    25   18   38 1
    26   19   20 1
    27   19   21 1
    28   19   39 1
    29   20   40 1
    30   21   22 1
    31   21   41 1
    32   22   23 ar
    33   22   32 ar
    34   23   24 ar
    35   23   42 1
    36   24   25 ar
    37   24   46 1
    38   25   26 ar
    39   25   32 ar
    40   26   27 2
    41   26   28 ar
    42   28   29 ar
    43   29   30 1
    44   29   31 ar
    45   30   43 1
    46   30   44 1
    47   31   32 ar
    48   31   45 1
@<TRIPOS>SUBSTRUCTURE
     1 GTP         1 GROUP 0 A     ****
@<TRIPOS>MOLECULE
[[[5-(2-amino-6-oxo-7,8-dihydro-3~{H}-purin-8-ylium-9-yl)-3,4-dihydroxy-tetrahydrofuran-2-yl]methoxy-oxido-phosphoryl]oxy-oxido-phosphoryl] hydrogen phosphate
   46    48     1     0     0
SMALL
USER_CHARGES

@<TRIPOS>ATOM
      1 PG         -3.2970   -3.9474   -0.6334 P.3       1 GTP         1.5447
      2 O1G        -3.4146   -3.7335    0.8592 O.co2     1 GTP        -0.8705
      3 O2G        -4.3598   -3.4325   -1.5785 O.co2     1 GTP        -0.8705
      4 O3G        -3.0824   -5.5415   -0.9137 O.3       1 GTP        -0.7914
      5 O3B        -1.8392   -3.4105   -1.1338 O.3       1 GTP        -0.8116
      6 PB         -1.1267   -3.5300   -2.5979 P.3       1 GTP         1.6738
      7 O1B        -0.8477   -4.9888   -2.8837 O.co2     1 GTP        -0.8763
      8 O2B        -1.8744   -2.6591   -3.5828 O.co2     1 GTP        -0.8763
      9 O3A         0.2753   -2.7606   -2.2705 O.3       1 GTP        -0.8005
     10 PA          1.5544   -2.4558   -3.2404 P.3       1 GTP         1.5754
     11 O1A         2.1833   -3.7718   -3.6442 O.co2     1 GTP        -0.8771
     12 O2A         1.1428   -1.4344   -4.2782 O.co2     1 GTP        -0.8771
     13 O5'         2.5245   -1.6648   -2.1878 O.3       1 GTP        -0.5809
     14 C5'         2.2816   -0.2918   -1.9206 C.3       1 GTP         0.1986
     15 C4'         2.7248    0.0226   -0.4980 C.3       1 GTP         0.0418
     16 O4'         2.4697    1.4219   -0.2462 O.3       1 GTP        -0.3505
     17 C3'         1.9404   -0.7419    0.5596 C.3       1 GTP         0.0909
     18 O3'         2.7418   -0.8086    1.7389 O.3       1 GTP        -0.6187
     19 C2'         0.7477    0.1630    0.7858 C.3       1 GTP         0.0706
     20 O2'         0.1373   -0.0577    2.0407 O.3       1 GTP        -0.6294
     21 C1'         1.3733    1.5427    0.6747 C.3       1 GTP         0.3895
     22 N9          0.4520    2.5240    0.1767 N.pl3     1 GTP        -0.4733
     23 C8          0.2012    2.8401   -1.0899 C.ar      1 GTP         0.2958
     24 N7         -0.7168    3.7990   -1.1981 N.pl3     1 GTP        -0.4933
     25 C5         -1.0645    4.1043    0.0896 C.ar      1 GTP        -0.1494
     26 C6         -2.0336    5.0870    0.5973 C.ar      1 GTP         0.7954
     27 O6         -2.6730    5.7839   -0.1834 O.2       1 GTP        -0.5729
     28 N1         -2.1539    5.1517    1.9868 N.2       1 GTP        -0.7443
     29 C2         -1.4288    4.3650    2.7566 C.ar      1 GTP         0.8831
     30 N2         -1.5126    4.3922    4.1250 N.pl3     1 GTP        -0.9204
     31 N3         -0.5167    3.4388    2.2748 N.pl3     1 GTP        -0.7173
     32 C4         -0.3638    3.3392    0.9318 C.ar      1 GTP         0.2626
     33 HOG3       -2.9883   -5.8438   -1.8421 H         1 GTP         0.4102
     34 H5'         2.8432    0.3119   -2.6398 H         1 GTP         0.0289
     35 H5''        1.2128   -0.0927   -2.0428 H         1 GTP         0.0289
     36 H4'         3.8044   -0.1397   -0.4040 H         1 GTP         0.2056
     37 H3'         1.6764   -1.7639    0.2728 H         1 GTP         0.1140
     38 HO3'        2.2232   -1.2979    2.3953 H         1 GTP         0.4287
     39 H2'        -0.0011    0.0027    0.0003 H         1 GTP         0.0809
     40 HO2'       -0.6141    0.5574    2.1082 H         1 GTP         0.4385
     41 H1'         1.7826    1.9024    1.6451 H         1 GTP         0.0794
     42 H8          0.6787    2.3803   -1.9373 H         1 GTP         0.3821
     43 HN21       -2.1462    5.0320    4.5446 H         1 GTP         0.4411
     44 HN22       -0.9365    3.7712    4.6440 H         1 GTP         0.4411
     45 H45         0.0318    2.8419    2.8816 H         1 GTP         0.4819
     46 H46        -1.0718    4.2049   -2.0526 H         1 GTP         0.5182
@<TRIPOS>BOND
     1    1    2 2
     2    1    3 1
     3    1    4 1
     4    1    5 1
     5    4   33 1
     6    5    6 1
     7    6    7 2
     8    6    8 1
     9    6    9 1
    10    9   10 1
    11   10   11 2
    12   10   12 1
    13   10   13 1
    14   13   14 1
    15   14   15 1
    16   14   34 1
    17   14   35 1
    18   15   16 1
    19   15   17 1
    20   15   36 1
    21   16   21 1
    22   17   18 1
    23   17   19 1
    24   17   37 1
    25   18   38 1
    26   19   20 1
    27   19   21 1
    28   19   39 1
    29   20   40 1
    30   21   22 1
    31   21   41 1
    32   22   23 ar
    33   22   32 ar
    34   23   24 ar
    35   23   42 1
    36   24   25 ar
    37   24   46 1
    38   25   26 ar
    39   25   32 ar
    40   26   27 2
    41   26   28 ar
    42   28   29 ar
    43   29   30 1
    44   29   31 ar
    45   30   43 1
    46   30   44 1
    47   31   32 ar
    48   31   45 1
@<TRIPOS>SUBSTRUCTURE
     1 GTP         1 GROUP 0 A     ****
@<TRIPOS>MOLECULE
[[[5-(2-amino-6-oxo-7,8-dihydro-3~{H}-purin-8-ylium-9-yl)-3,4-dihydroxy-tetrahydrofuran-2-yl]methoxy-oxido-phosphoryl]oxy-oxido-phosphoryl] hydrogen phosphate
   46    48     1     0     0
SMALL
USER_CHARGES

@<TRIPOS>ATOM
      1 PG          6.5930   -1.4635   -5.3473 P.3       1 GTP         1.5447
      2 O1G         7.6711   -0.5504   -5.8872 O.co2     1 GTP        -0.8705
      3 O2G         6.2906   -1.5182   -3.8664 O.co2     1 GTP        -0.8705
      4 O3G         6.8877   -2.9811   -5.8727 O.3       1 GTP        -0.7914
      5 O3B         5.2055   -1.1859   -6.1607 O.3       1 GTP        -0.8116
      6 PB          3.7805   -1.9804   -6.0996 P.3       1 GTP         1.6738
      7 O1B         2.7737   -1.2361   -6.9480 O.co2     1 GTP        -0.8763
      8 O2B         4.0323   -3.4602   -6.2852 O.co2     1 GTP        -0.8763
      9 O3A         3.4281   -1.7650   -4.5203 O.3       1 GTP        -0.8005
     10 PA          2.1372   -2.2718   -3.6563 P.3       1 GTP         1.5754
     11 O1A         0.8958   -1.5923   -4.1925 O.co2     1 GTP        -0.8771
     12 O2A         2.2074   -3.7770   -3.5183 O.co2     1 GTP        -0.8771
     13 O5'         2.5245   -1.6648   -2.1878 O.3       1 GTP        -0.5809
     14 C5'         2.2816   -0.2918   -1.9206 C.3       1 GTP         0.1986
     15 C4'         2.7248    0.0226   -0.4980 C.3       1 GTP         0.0418
     16 O4'         2.4697    1.4219   -0.2462 O.3       1 GTP        -0.3505
     17 C3'         1.9404   -0.7419    0.5596 C.3       1 GTP         0.0909
     18 O3'         2.7418   -0.8086    1.7389 O.3       1 GTP        -0.6187
     19 C2'         0.7477    0.1630    0.7858 C.3       1 GTP         0.0706
     20 O2'         0.1373   -0.0577    2.0407 O.3       1 GTP        -0.6294
     21 C1'         1.3733    1.5427    0.6747 C.3       1 GTP         0.3895
     22 N9          0.4520    2.5240    0.1767 N.pl3     1 GTP        -0.4733
     23 C8          0.2012    2.8401   -1.0899 C.ar      1 GTP         0.2958
     24 N7         -0.7168    3.7990   -1.1981 N.pl3     1 GTP        -0.4933
     25 C5         -1.0645    4.1043    0.0896 C.ar      1 GTP        -0.1494
     26 C6         -2.0336    5.0870    0.5973 C.ar      1 GTP         0.7954
     27 O6         -2.6730    5.7839   -0.1834 O.2       1 GTP        -0.5729
     28 N1         -2.1539    5.1517    1.9868 N.2       1 GTP        -0.7443
     29 C2         -1.4288    4.3650    2.7566 C.ar      1 GTP         0.8831
     30 N2         -1.5126    4.3922    4.1250 N.pl3     1 GTP        -0.9204
     31 N3         -0.5167    3.4388    2.2748 N.pl3     1 GTP        -0.7173
     32 C4         -0.3638    3.3392    0.9318 C.ar      1 GTP         0.2626
     33 HOG3        6.2712   -3.6957   -5.6052 H         1 GTP         0.4102
     34 H5'         2.8432    0.3119   -2.6398 H         1 GTP         0.0289
     35 H5''        1.2128   -0.0927   -2.0428 H         1 GTP         0.0289
     36 H4'         3.8044   -0.1397   -0.4040 H         1 GTP         0.2056
     37 H3'         1.6764   -1.7639    0.2728 H         1 GTP         0.1140
     38 HO3'        2.2232   -1.2979    2.3953 H         1 GTP         0.4287
     39 H2'        -0.0011    0.0027    0.0003 H         1 GTP         0.0809
     40 HO2'       -0.1563   -0.9855    2.0596 H         1 GTP         0.4385
     41 H1'         1.7826    1.9024    1.6451 H         1 GTP         0.0794
     42 H8          0.6787    2.3803   -1.9373 H         1 GTP         0.3821
     43 HN21       -2.1462    5.0320    4.5446 H         1 GTP         0.4411
     44 HN22       -0.9365    3.7712    4.6440 H         1 GTP         0.4411
     45 H45         0.0318    2.8419    2.8816 H         1 GTP         0.4819
     46 H46        -1.0718    4.2049   -2.0526 H         1 GTP         0.5182
@<TRIPOS>BOND
     1    1    2 2
     2    1    3 1
     3    1    4 1
     4    1    5 1
     5    4   33 1
     6    5    6 1
     7    6    7 2
     8    6    8 1
     9    6    9 1
    10    9   10 1
    11   10   11 2
    12   10   12 1
    13   10   13 1
    14   13   14 1
    15   14   15 1
    16   14   34 1
    17   14   35 1
    18   15   16 1
    19   15   17 1
    20   15   36 1
    21   16   21 1
    22   17   18 1
    23   17   19 1
    24   17   37 1
    25   18   38 1
    26   19   20 1
    27   19   21 1
    28   19   39 1
    29   20   40 1
    30   21   22 1
    31   21   41 1
    32   22   23 ar
    33   22   32 ar
    34   23   24 ar
    35   23   42 1
    36   24   25 ar
    37   24   46 1
    38   25   26 ar
    39   25   32 ar
    40   26   27 2
    41   26   28 ar
    42   28   29 ar
    43   29   30 1
    44   29   31 ar
    45   30   43 1
    46   30   44 1
    47   31   32 ar
    48   31   45 1
@<TRIPOS>SUBSTRUCTURE
     1 GTP         1 GROUP 0 A     ****
@<TRIPOS>MOLECULE
[[[5-(2-amino-6-oxo-7,8-dihydro-3~{H}-purin-8-ylium-9-yl)-3,4-dihydroxy-tetrahydrofuran-2-yl]methoxy-oxido-phosphoryl]oxy-oxido-phosphoryl] hydrogen phosphate
   46    48     1     0     0
SMALL
USER_CHARGES

@<TRIPOS>ATOM
      1 PG          6.2130   -3.5432   -2.6268 P.3       1 GTP         1.5447
      2 O1G         6.3384   -3.3710   -1.1294 O.co2     1 GTP        -0.8705
      3 O2G         4.9088   -3.9860   -3.2518 O.co2     1 GTP        -0.8705
      4 O3G         7.3979   -4.5452   -3.1347 O.3       1 GTP        -0.7914
      5 O3B         6.7145   -2.1754   -3.3626 O.3       1 GTP        -0.8116
      6 PB          6.0567   -0.6811   -3.3532 P.3       1 GTP         1.6738
      7 O1B         5.8794   -0.2384   -1.9179 O.co2     1 GTP        -0.8763
      8 O2B         6.7781    0.1818   -4.3645 O.co2     1 GTP        -0.8763
      9 O3A         4.5995   -1.0324   -3.9995 O.3       1 GTP        -0.8005
     10 PA          3.3343   -0.0514   -4.3264 P.3       1 GTP         1.5754
     11 O1A         3.8090    1.0728   -5.2215 O.co2     1 GTP        -0.8771
     12 O2A         2.1448   -0.9056   -4.7073 O.co2     1 GTP        -0.8771
     13 O5'         3.0213    0.5153   -2.8245 O.3       1 GTP        -0.5809
     14 C5'         2.2816   -0.2918   -1.9206 C.3       1 GTP         0.1986
     15 C4'         2.7248    0.0226   -0.4980 C.3       1 GTP         0.0418
     16 O4'         2.4697    1.4219   -0.2462 O.3       1 GTP        -0.3505
     17 C3'         1.9404   -0.7419    0.5596 C.3       1 GTP         0.0909
     18 O3'         2.7418   -0.8086    1.7389 O.3       1 GTP        -0.6187
     19 C2'         0.7477    0.1630    0.7858 C.3       1 GTP         0.0706
     20 O2'         0.1373   -0.0577    2.0407 O.3       1 GTP        -0.6294
     21 C1'         1.3733    1.5427    0.6747 C.3       1 GTP         0.3895
     22 N9          0.4520    2.5240    0.1767 N.pl3     1 GTP        -0.4733
     23 C8          0.2012    2.8401   -1.0899 C.ar      1 GTP         0.2958
     24 N7         -0.7168    3.7990   -1.1981 N.pl3     1 GTP        -0.4933
     25 C5         -1.0645    4.1043    0.0896 C.ar      1 GTP        -0.1494
     26 C6         -2.0336    5.0870    0.5973 C.ar      1 GTP         0.7954
     27 O6         -2.6730    5.7839   -0.1834 O.2       1 GTP        -0.5729
     28 N1         -2.1539    5.1517    1.9868 N.2       1 GTP        -0.7443
     29 C2         -1.4288    4.3650    2.7566 C.ar      1 GTP         0.8831
     30 N2         -1.5126    4.3922    4.1250 N.pl3     1 GTP        -0.9204
     31 N3         -0.5167    3.4388    2.2748 N.pl3     1 GTP        -0.7173
     32 C4         -0.3638    3.3392    0.9318 C.ar      1 GTP         0.2626
     33 HOG3        7.4515   -4.7579   -4.0908 H         1 GTP         0.4102
     34 H5'         1.2163   -0.0770   -2.0471 H         1 GTP         0.0289
     35 H5''        2.4655   -1.3443   -2.1563 H         1 GTP         0.0289
     36 H4'         3.8044   -0.1397   -0.4040 H         1 GTP         0.2056
     37 H3'         1.6764   -1.7639    0.2728 H         1 GTP         0.1140
     38 HO3'        2.2232   -1.2979    2.3953 H         1 GTP         0.4287
     39 H2'        -0.0011    0.0027    0.0003 H         1 GTP         0.0809
     40 HO2'       -0.1563   -0.9855    2.0596 H         1 GTP         0.4385
     41 H1'         1.7826    1.9024    1.6451 H         1 GTP         0.0794
     42 H8          0.6787    2.3803   -1.9373 H         1 GTP         0.3821
     43 HN21       -2.1462    5.0320    4.5446 H         1 GTP         0.4411
     44 HN22       -0.9365    3.7712    4.6440 H         1 GTP         0.4411
     45 H45         0.0318    2.8419    2.8816 H         1 GTP         0.4819
     46 H46        -1.0718    4.2049   -2.0526 H         1 GTP         0.5182
@<TRIPOS>BOND
     1    1    2 2
     2    1    3 1
     3    1    4 1
     4    1    5 1
     5    4   33 1
     6    5    6 1
     7    6    7 2
     8    6    8 1
     9    6    9 1
    10    9   10 1
    11   10   11 2
    12   10   12 1
    13   10   13 1
    14   13   14 1
    15   14   15 1
    16   14   34 1
    17   14   35 1
    18   15   16 1
    19   15   17 1
    20   15   36 1
    21   16   21 1
    22   17   18 1
    23   17   19 1
    24   17   37 1
    25   18   38 1
    26   19   20 1
    27   19   21 1
    28   19   39 1
    29   20   40 1
    30   21   22 1
    31   21   41 1
    32   22   23 ar
    33   22   32 ar
    34   23   24 ar
    35   23   42 1
    36   24   25 ar
    37   24   46 1
    38   25   26 ar
    39   25   32 ar
    40   26   27 2
    41   26   28 ar
    42   28   29 ar
    43   29   30 1
    44   29   31 ar
    45   30   43 1
    46   30   44 1
    47   31   32 ar
    48   31   45 1
@<TRIPOS>SUBSTRUCTURE
     1 GTP         1 GROUP 0 A     ****
@<TRIPOS>MOLECULE
[[[5-(2-amino-6-oxo-7,8-dihydro-3~{H}-purin-8-ylium-9-yl)-3,4-dihydroxy-tetrahydrofuran-2-yl]methoxy-oxido-phosphoryl]oxy-oxido-phosphoryl] hydrogen phosphate
   46    48     1     0     0
SMALL
USER_CHARGES

@<TRIPOS>ATOM
      1 PG         -2.7097    1.6454   -5.5439 P.3       1 GTP         1.5447
      2 O1G        -2.6527    2.8871   -6.4055 O.co2     1 GTP        -0.8705
      3 O2G        -3.3070    0.3599   -6.0717 O.co2     1 GTP        -0.8705
      4 O3G        -3.4504    2.0226   -4.1386 O.3       1 GTP        -0.7914
      5 O3B        -1.2174    1.3347   -4.9605 O.3       1 GTP        -0.8116
      6 PB          0.1391    0.8790   -5.7466 P.3       1 GTP         1.6738
      7 O1B        -0.0774   -0.5006   -6.3274 O.co2     1 GTP        -0.8763
      8 O2B         0.6251    2.0297   -6.5994 O.co2     1 GTP        -0.8763
      9 O3A         1.1584    0.7817   -4.4753 O.3       1 GTP        -0.8005
     10 PA          2.7407    0.3769   -4.4297 P.3       1 GTP         1.5754
     11 O1A         2.8866   -1.0655   -4.8640 O.co2     1 GTP        -0.8771
     12 O2A         3.5415    1.4776   -5.0906 O.co2     1 GTP        -0.8771
     13 O5'         3.0213    0.5153   -2.8245 O.3       1 GTP        -0.5809
     14 C5'         2.2816   -0.2918   -1.9206 C.3       1 GTP         0.1986
     15 C4'         2.7248    0.0226   -0.4980 C.3       1 GTP         0.0418
     16 O4'         2.4697    1.4219   -0.2462 O.3       1 GTP        -0.3505
     17 C3'         1.9404   -0.7419    0.5596 C.3       1 GTP         0.0909
     18 O3'         2.7418   -0.8086    1.7389 O.3       1 GTP        -0.6187
     19 C2'         0.7477    0.1630    0.7858 C.3       1 GTP         0.0706
     20 O2'         0.1373   -0.0577    2.0407 O.3       1 GTP        -0.6294
     21 C1'         1.3733    1.5427    0.6747 C.3       1 GTP         0.3895
     22 N9          0.4520    2.5240    0.1767 N.pl3     1 GTP        -0.4733
     23 C8         -0.8640    2.5747    0.3578 C.ar      1 GTP         0.2958
     24 N7         -1.4158    3.6263   -0.2452 N.pl3     1 GTP        -0.4933
     25 C5         -0.3734    4.2789   -0.8450 C.ar      1 GTP        -0.1494
     26 C6         -0.3693    5.5074   -1.6532 C.ar      1 GTP         0.7954
     27 O6         -1.4174    6.1047   -1.8742 O.2       1 GTP        -0.5729
     28 N1          0.8803    5.9138   -2.1250 N.2       1 GTP        -0.7443
     29 C2          1.9606    5.2142   -1.8406 C.ar      1 GTP         0.8831
     30 N2          3.2085    5.5738   -2.2809 N.pl3     1 GTP        -0.9204
     31 N3          1.9536    4.0567   -1.0776 N.pl3     1 GTP        -0.7173
     32 C4          0.7633    3.6215   -0.5973 C.ar      1 GTP         0.2626
     33 HOG3       -3.5654    1.3167   -3.4673 H         1 GTP         0.4102
     34 H5'         1.2163   -0.0770   -2.0471 H         1 GTP         0.0289
     35 H5''        2.4655   -1.3443   -2.1563 H         1 GTP         0.0289
     36 H4'         3.8044   -0.1397   -0.4040 H         1 GTP         0.2056
     37 H3'         1.6764   -1.7639    0.2728 H         1 GTP         0.1140
     38 HO3'        2.2232   -1.2979    2.3953 H         1 GTP         0.4287
     39 H2'        -0.0011    0.0027    0.0003 H         1 GTP         0.0809
     40 HO2'       -0.1563   -0.9855    2.0596 H         1 GTP         0.4385
     41 H1'         1.7826    1.9024    1.6451 H         1 GTP         0.0794
     42 H8         -1.4279    1.8548    0.9245 H         1 GTP         0.3821
     43 HN21        3.2933    6.3940   -2.8348 H         1 GTP         0.4411
     44 HN22        3.9794    5.0002   -2.0291 H         1 GTP         0.4411
     45 H45         2.7941    3.5321   -0.8687 H         1 GTP         0.4819
     46 H46        -2.3945    3.8775   -0.2507 H         1 GTP         0.5182
@<TRIPOS>BOND
     1    1    2 2
     2    1    3 1
     3    1    4 1
     4    1    5 1
     5    4   33 1
     6    5    6 1
     7    6    7 2
     8    6    8 1
     9    6    9 1
    10    9   10 1
    11   10   11 2
    12   10   12 1
    13   10   13 1
    14   13   14 1
    15   14   15 1
    16   14   34 1
    17   14   35 1
    18   15   16 1
    19   15   17 1
    20   15   36 1
    21   16   21 1
    22   17   18 1
    23   17   19 1
    24   17   37 1
    25   18   38 1
    26   19   20 1
    27   19   21 1
    28   19   39 1
    29   20   40 1
    30   21   22 1
    31   21   41 1
    32   22   23 ar
    33   22   32 ar
    34   23   24 ar
    35   23   42 1
    36   24   25 ar
    37   24   46 1
    38   25   26 ar
    39   25   32 ar
    40   26   27 2
    41   26   28 ar
    42   28   29 ar
    43   29   30 1
    44   29   31 ar
    45   30   43 1
    46   30   44 1
    47   31   32 ar
    48   31   45 1
@<TRIPOS>SUBSTRUCTURE
     1 GTP         1 GROUP 0 A     ****
@<TRIPOS>MOLECULE
[[[5-(2-amino-6-oxo-7,8-dihydro-3~{H}-purin-8-ylium-9-yl)-3,4-dihydroxy-tetrahydrofuran-2-yl]methoxy-oxido-phosphoryl]oxy-oxido-phosphoryl] hydrogen phosphate
   46    48     1     0     0
SMALL
USER_CHARGES

@<TRIPOS>ATOM
      1 PG          4.9159   -4.8806   -4.8606 P.3       1 GTP         1.5447
      2 O1G         3.9879   -6.0242   -5.2046 O.co2     1 GTP        -0.8705
      3 O2G         6.1926   -4.6545   -5.6394 O.co2     1 GTP        -0.8705
      4 O3G         5.2863   -4.9726   -3.2731 O.3       1 GTP        -0.7914
      5 O3B         4.0596   -3.4914   -4.8339 O.3       1 GTP        -0.8116
      6 PB          4.5143   -1.9910   -4.3782 P.3       1 GTP         1.6738
      7 O1B         4.8121   -2.0040   -2.8954 O.co2     1 GTP        -0.8763
      8 O2B         5.5098   -1.4514   -5.3810 O.co2     1 GTP        -0.8763
      9 O3A         3.1119   -1.1996   -4.6459 O.3       1 GTP        -0.8005
     10 PA          2.7407    0.3769   -4.4297 P.3       1 GTP         1.5754
     11 O1A         3.7274    1.2201   -5.2081 O.co2     1 GTP        -0.8771
     12 O2A         1.2486    0.5523   -4.6100 O.co2     1 GTP        -0.8771
     13 O5'         3.0213    0.5153   -2.8245 O.3       1 GTP        -0.5809
     14 C5'         2.2816   -0.2918   -1.9206 C.3       1 GTP         0.1986
     15 C4'         2.7248    0.0226   -0.4980 C.3       1 GTP         0.0418
     16 O4'         2.4697    1.4219   -0.2462 O.3       1 GTP        -0.3505
     17 C3'         1.9404   -0.7419    0.5596 C.3       1 GTP         0.0909
     18 O3'         2.7418   -0.8086    1.7389 O.3       1 GTP        -0.6187
     19 C2'         0.7477    0.1630    0.7858 C.3       1 GTP         0.0706
     20 O2'         0.1373   -0.0577    2.0407 O.3       1 GTP        -0.6294
     21 C1'         1.3733    1.5427    0.6747 C.3       1 GTP         0.3895
     22 N9          0.4520    2.5240    0.1767 N.pl3     1 GTP        -0.4733
     23 C8          0.2012    2.8401   -1.0899 C.ar      1 GTP         0.2958
     24 N7         -0.7168    3.7990   -1.1981 N.pl3     1 GTP        -0.4933
     25 C5         -1.0645    4.1043    0.0896 C.ar      1 GTP        -0.1494
     26 C6         -2.0336    5.0870    0.5973 C.ar      1 GTP         0.7954
     27 O6         -2.6730    5.7839   -0.1834 O.2       1 GTP        -0.5729
     28 N1         -2.1539    5.1517    1.9868 N.2       1 GTP        -0.7443
     29 C2         -1.4288    4.3650    2.7566 C.ar      1 GTP         0.8831
     30 N2         -1.5126    4.3922    4.1250 N.pl3     1 GTP        -0.9204
     31 N3         -0.5167    3.4388    2.2748 N.pl3     1 GTP        -0.7173
     32 C4         -0.3638    3.3392    0.9318 C.ar      1 GTP         0.2626
     33 HOG3        5.8849   -4.2946   -2.8933 H         1 GTP         0.4102
     34 H5'         1.2163   -0.0770   -2.0471 H         1 GTP         0.0289
     35 H5''        2.4655   -1.3443   -2.1563 H         1 GTP         0.0289
     36 H4'         3.8044   -0.1397   -0.4040 H         1 GTP         0.2056
     37 H3'         1.6764   -1.7639    0.2728 H         1 GTP         0.1140
     38 HO3'        3.5554   -1.2733    1.4914 H         1 GTP         0.4287
     39 H2'        -0.0011    0.0027    0.0003 H         1 GTP         0.0809
     40 HO2'       -0.1563   -0.9855    2.0596 H         1 GTP         0.4385
     41 H1'         1.7826    1.9024    1.6451 H         1 GTP         0.0794
     42 H8          0.6787    2.3803   -1.9373 H         1 GTP         0.3821
     43 HN21       -2.1462    5.0320    4.5446 H         1 GTP         0.4411
     44 HN22       -0.9365    3.7712    4.6440 H         1 GTP         0.4411
     45 H45         0.0318    2.8419    2.8816 H         1 GTP         0.4819
     46 H46        -1.0718    4.2049   -2.0526 H         1 GTP         0.5182
@<TRIPOS>BOND
     1    1    2 2
     2    1    3 1
     3    1    4 1
     4    1    5 1
     5    4   33 1
     6    5    6 1
     7    6    7 2
     8    6    8 1
     9    6    9 1
    10    9   10 1
    11   10   11 2
    12   10   12 1
    13   10   13 1
    14   13   14 1
    15   14   15 1
    16   14   34 1
    17   14   35 1
    18   15   16 1
    19   15   17 1
    20   15   36 1
    21   16   21 1
    22   17   18 1
    23   17   19 1
    24   17   37 1
    25   18   38 1
    26   19   20 1
    27   19   21 1
    28   19   39 1
    29   20   40 1
    30   21   22 1
    31   21   41 1
    32   22   23 ar
    33   22   32 ar
    34   23   24 ar
    35   23   42 1
    36   24   25 ar
    37   24   46 1
    38   25   26 ar
    39   25   32 ar
    40   26   27 2
    41   26   28 ar
    42   28   29 ar
    43   29   30 1
    44   29   31 ar
    45   30   43 1
    46   30   44 1
    47   31   32 ar
    48   31   45 1
@<TRIPOS>SUBSTRUCTURE
     1 GTP         1 GROUP 0 A     ****
@<TRIPOS>MOLECULE
[[[5-(2-amino-6-oxo-7,8-dihydro-3~{H}-purin-8-ylium-9-yl)-3,4-dihydroxy-tetrahydrofuran-2-yl]methoxy-oxido-phosphoryl]oxy-oxido-phosphoryl] hydrogen phosphate
   46    48     1     0     0
SMALL
USER_CHARGES

@<TRIPOS>ATOM
      1 PG          8.7119    0.1140   -2.4510 P.3       1 GTP         1.5447
      2 O1G         8.8949    1.0640   -1.2885 O.co2     1 GTP        -0.8705
      3 O2G         9.6207   -1.0820   -2.6279 O.co2     1 GTP        -0.8705
      4 O3G         8.7197    0.9803   -3.8350 O.3       1 GTP        -0.7914
      5 O3B         7.1603   -0.3911   -2.4850 O.3       1 GTP        -0.8116
      6 PB          6.3781   -1.2932   -3.5986 P.3       1 GTP         1.6738
      7 O1B         6.3019   -0.5101   -4.8902 O.co2     1 GTP        -0.8763
      8 O2B         6.9203   -2.7046   -3.5593 O.co2     1 GTP        -0.8763
      9 O3A         4.9017   -1.3446   -2.9040 O.3       1 GTP        -0.8005
     10 PA          3.5300   -2.0730   -3.4114 P.3       1 GTP         1.5754
     11 O1A         3.0794   -1.4186   -4.6995 O.co2     1 GTP        -0.8771
     12 O2A         3.7147   -3.5720   -3.3184 O.co2     1 GTP        -0.8771
     13 O5'         2.5245   -1.6648   -2.1878 O.3       1 GTP        -0.5809
     14 C5'         2.2816   -0.2918   -1.9206 C.3       1 GTP         0.1986
     15 C4'         2.7248    0.0226   -0.4980 C.3       1 GTP         0.0418
     16 O4'         2.4697    1.4219   -0.2462 O.3       1 GTP        -0.3505
     17 C3'         1.9404   -0.7419    0.5596 C.3       1 GTP         0.0909
     18 O3'         2.7418   -0.8086    1.7389 O.3       1 GTP        -0.6187
     19 C2'         0.7477    0.1630    0.7858 C.3       1 GTP         0.0706
     20 O2'         0.1373   -0.0577    2.0407 O.3       1 GTP        -0.6294
     21 C1'         1.3733    1.5427    0.6747 C.3       1 GTP         0.3895
     22 N9          0.4520    2.5240    0.1767 N.pl3     1 GTP        -0.4733
     23 C8          0.2012    2.8401   -1.0899 C.ar      1 GTP         0.2958
     24 N7         -0.7168    3.7990   -1.1981 N.pl3     1 GTP        -0.4933
     25 C5         -1.0645    4.1043    0.0896 C.ar      1 GTP        -0.1494
     26 C6         -2.0336    5.0870    0.5973 C.ar      1 GTP         0.7954
     27 O6         -2.6730    5.7839   -0.1834 O.2       1 GTP        -0.5729
     28 N1         -2.1539    5.1517    1.9868 N.2       1 GTP        -0.7443
     29 C2         -1.4288    4.3650    2.7566 C.ar      1 GTP         0.8831
     30 N2         -1.5126    4.3922    4.1250 N.pl3     1 GTP        -0.9204
     31 N3         -0.5167    3.4388    2.2748 N.pl3     1 GTP        -0.7173
     32 C4         -0.3638    3.3392    0.9318 C.ar      1 GTP         0.2626
     33 HOG3        8.6104    0.5031   -4.6851 H         1 GTP         0.4102
     34 H5'         2.8432    0.3119   -2.6398 H         1 GTP         0.0289
     35 H5''        1.2128   -0.0927   -2.0428 H         1 GTP         0.0289
     36 H4'         3.8044   -0.1397   -0.4040 H         1 GTP         0.2056
     37 H3'         1.6764   -1.7639    0.2728 H         1 GTP         0.1140
     38 HO3'        2.2232   -1.2979    2.3953 H         1 GTP         0.4287
     39 H2'        -0.0011    0.0027    0.0003 H         1 GTP         0.0809
     40 HO2'       -0.6141    0.5574    2.1082 H         1 GTP         0.4385
     41 H1'         1.7826    1.9024    1.6451 H         1 GTP         0.0794
     42 H8          0.6787    2.3803   -1.9373 H         1 GTP         0.3821
     43 HN21       -2.1462    5.0320    4.5446 H         1 GTP         0.4411
     44 HN22       -0.9365    3.7712    4.6440 H         1 GTP         0.4411
     45 H45         0.0318    2.8419    2.8816 H         1 GTP         0.4819
     46 H46        -1.0718    4.2049   -2.0526 H         1 GTP         0.5182
@<TRIPOS>BOND
     1    1    2 2
     2    1    3 1
     3    1    4 1
     4    1    5 1
     5    4   33 1
     6    5    6 1
     7    6    7 2
     8    6    8 1
     9    6    9 1
    10    9   10 1
    11   10   11 2
    12   10   12 1
    13   10   13 1
    14   13   14 1
    15   14   15 1
    16   14   34 1
    17   14   35 1
    18   15   16 1
    19   15   17 1
    20   15   36 1
    21   16   21 1
    22   17   18 1
    23   17   19 1
    24   17   37 1
    25   18   38 1
    26   19   20 1
    27   19   21 1
    28   19   39 1
    29   20   40 1
    30   21   22 1
    31   21   41 1
    32   22   23 ar
    33   22   32 ar
    34   23   24 ar
    35   23   42 1
    36   24   25 ar
    37   24   46 1
    38   25   26 ar
    39   25   32 ar
    40   26   27 2
    41   26   28 ar
    42   28   29 ar
    43   29   30 1
    44   29   31 ar
    45   30   43 1
    46   30   44 1
    47   31   32 ar
    48   31   45 1
@<TRIPOS>SUBSTRUCTURE
     1 GTP         1 GROUP 0 A     ****
@<TRIPOS>MOLECULE
[[[5-(2-amino-6-oxo-7,8-dihydro-3~{H}-purin-8-ylium-9-yl)-3,4-dihydroxy-tetrahydrofuran-2-yl]methoxy-oxido-phosphoryl]oxy-oxido-phosphoryl] hydrogen phosphate
   46    48     1     0     0
SMALL
USER_CHARGES

@<TRIPOS>ATOM
      1 PG          2.2843    4.6339   -6.9539 P.3       1 GTP         1.5447
      2 O1G         3.7117    5.0177   -7.2745 O.co2     1 GTP        -0.8705
      3 O2G         1.3369    4.1842   -8.0438 O.co2     1 GTP        -0.8705
      4 O3G         1.5877    5.8635   -6.1363 O.3       1 GTP        -0.7914
      5 O3B         2.2891    3.5174   -5.7634 O.3       1 GTP        -0.8116
      6 PB          1.0423    2.8705   -4.9312 P.3       1 GTP         1.6738
      7 O1B         0.3949    3.9588   -4.1041 O.co2     1 GTP        -0.8763
      8 O2B         0.2319    1.9935   -5.8593 O.co2     1 GTP        -0.8763
      9 O3A         1.8750    1.8640   -3.9522 O.3       1 GTP        -0.8005
     10 PA          2.8621    0.6170   -4.3270 P.3       1 GTP         1.5754
     11 O1A         2.0475   -0.4600   -5.0101 O.co2     1 GTP        -0.8771
     12 O2A         4.1194    1.1687   -4.9631 O.co2     1 GTP        -0.8771
     13 O5'         3.2903    0.1346   -2.8241 O.3       1 GTP        -0.5809
     14 C5'         2.2816   -0.2918   -1.9206 C.3       1 GTP         0.1986
     15 C4'         2.7248    0.0226   -0.4980 C.3       1 GTP         0.0418
     16 O4'         2.4697    1.4219   -0.2462 O.3       1 GTP        -0.3505
     17 C3'         1.9404   -0.7419    0.5596 C.3       1 GTP         0.0909
     18 O3'         2.7418   -0.8086    1.7389 O.3       1 GTP        -0.6187
     19 C2'         0.7477    0.1630    0.7858 C.3       1 GTP         0.0706
     20 O2'         0.1373   -0.0577    2.0407 O.3       1 GTP        -0.6294
     21 C1'         1.3733    1.5427    0.6747 C.3       1 GTP         0.3895
     22 N9          0.4520    2.5240    0.1767 N.pl3     1 GTP        -0.4733
     23 C8         -0.2136    2.5096   -0.9739 C.ar      1 GTP         0.2958
     24 N7         -0.9896    3.5820   -1.1212 N.pl3     1 GTP        -0.4933
     25 C5         -0.7962    4.3186    0.0156 C.ar      1 GTP        -0.1494
     26 C6         -1.3875    5.6031    0.4192 C.ar      1 GTP         0.7954
     27 O6         -2.1869    6.1731   -0.3158 O.2       1 GTP        -0.5729
     28 N1         -0.9745    6.0930    1.6597 N.2       1 GTP        -0.7443
     29 C2         -0.1105    5.4166    2.3900 C.ar      1 GTP         0.8831
     30 N2          0.3241    5.8571    3.6138 N.pl3     1 GTP        -0.9204
     31 N3          0.4444    4.2053    2.0072 N.pl3     1 GTP        -0.7173
     32 C4          0.0746    3.6889    0.8098 C.ar      1 GTP         0.2626
     33 HOG3        0.6531    5.7665   -5.8544 H         1 GTP         0.4102
     34 H5'         1.3514    0.2330   -2.1577 H         1 GTP         0.0289
     35 H5''        2.1280   -1.3678   -2.0460 H         1 GTP         0.0289
     36 H4'         3.8044   -0.1397   -0.4040 H         1 GTP         0.2056
     37 H3'         1.6764   -1.7639    0.2728 H         1 GTP         0.1140
     38 HO3'        3.5554   -1.2733    1.4914 H         1 GTP         0.4287
     39 H2'        -0.0011    0.0027    0.0003 H         1 GTP         0.0809
     40 HO2'       -0.1563   -0.9855    2.0596 H         1 GTP         0.4385
     41 H1'         1.7826    1.9024    1.6451 H         1 GTP         0.0794
     42 H8         -0.1415    1.7265   -1.7082 H         1 GTP         0.3821
     43 HN21       -0.0303    6.7197    3.9559 H         1 GTP         0.4411
     44 HN22        0.9765    5.2967    4.1108 H         1 GTP         0.4411
     45 H45         1.1068    3.6990    2.5819 H         1 GTP         0.4819
     46 H46        -1.5877    3.7943   -1.9074 H         1 GTP         0.5182
@<TRIPOS>BOND
     1    1    2 2
     2    1    3 1
     3    1    4 1
     4    1    5 1
     5    4   33 1
     6    5    6 1
     7    6    7 2
     8    6    8 1
     9    6    9 1
    10    9   10 1
    11   10   11 2
    12   10   12 1
    13   10   13 1
    14   13   14 1
    15   14   15 1
    16   14   34 1
    17   14   35 1
    18   15   16 1
    19   15   17 1
    20   15   36 1
    21   16   21 1
    22   17   18 1
    23   17   19 1
    24   17   37 1
    25   18   38 1
    26   19   20 1
    27   19   21 1
    28   19   39 1
    29   20   40 1
    30   21   22 1
    31   21   41 1
    32   22   23 ar
    33   22   32 ar
    34   23   24 ar
    35   23   42 1
    36   24   25 ar
    37   24   46 1
    38   25   26 ar
    39   25   32 ar
    40   26   27 2
    41   26   28 ar
    42   28   29 ar
    43   29   30 1
    44   29   31 ar
    45   30   43 1
    46   30   44 1
    47   31   32 ar
    48   31   45 1
@<TRIPOS>SUBSTRUCTURE
     1 GTP         1 GROUP 0 A     ****
@<TRIPOS>MOLECULE
[[[5-(2-amino-6-oxo-7,8-dihydro-3~{H}-purin-8-ylium-9-yl)-3,4-dihydroxy-tetrahydrofuran-2-yl]methoxy-oxido-phosphoryl]oxy-oxido-phosphoryl] hydrogen phosphate
   46    48     1     0     0
SMALL
USER_CHARGES

@<TRIPOS>ATOM
      1 PG          5.3871    3.8614   -2.3653 P.3       1 GTP         1.5447
      2 O1G         5.2073    2.4321   -1.9047 O.co2     1 GTP        -0.8705
      3 O2G         6.7047    4.3333   -2.9388 O.co2     1 GTP        -0.8705
      4 O3G         4.9681    4.8575   -1.1413 O.3       1 GTP        -0.7914
      5 O3B         4.1906    4.2374   -3.4098 O.3       1 GTP        -0.8116
      6 PB          2.5725    4.1033   -3.2388 P.3       1 GTP         1.6738
      7 O1B         2.1556    4.8337   -1.9818 O.co2     1 GTP        -0.8763
      8 O2B         1.9112    4.3788   -4.5709 O.co2     1 GTP        -0.8763
      9 O3A         2.4676    2.4927   -2.9940 O.3       1 GTP        -0.8005
     10 PA          2.9232    1.2546   -3.9579 P.3       1 GTP         1.5754
     11 O1A         1.7279    0.8049   -4.7699 O.co2     1 GTP        -0.8771
     12 O2A         4.2314    1.6172   -4.6264 O.co2     1 GTP        -0.8771
     13 O5'         3.2903    0.1346   -2.8241 O.3       1 GTP        -0.5809
     14 C5'         2.2816   -0.2918   -1.9206 C.3       1 GTP         0.1986
     15 C4'         2.7248    0.0226   -0.4980 C.3       1 GTP         0.0418
     16 O4'         2.4697    1.4219   -0.2462 O.3       1 GTP        -0.3505
     17 C3'         1.9404   -0.7419    0.5596 C.3       1 GTP         0.0909
     18 O3'         2.7418   -0.8086    1.7389 O.3       1 GTP        -0.6187
     19 C2'         0.7477    0.1630    0.7858 C.3       1 GTP         0.0706
     20 O2'         0.1373   -0.0577    2.0407 O.3       1 GTP        -0.6294
     21 C1'         1.3733    1.5427    0.6747 C.3       1 GTP         0.3895
     22 N9          0.4520    2.5240    0.1767 N.pl3     1 GTP        -0.4733
     23 C8         -0.2136    2.5096   -0.9739 C.ar      1 GTP         0.2958
     24 N7         -0.9896    3.5820   -1.1212 N.pl3     1 GTP        -0.4933
     25 C5         -0.7962    4.3186    0.0156 C.ar      1 GTP        -0.1494
     26 C6         -1.3875    5.6031    0.4192 C.ar      1 GTP         0.7954
     27 O6         -2.1869    6.1731   -0.3158 O.2       1 GTP        -0.5729
     28 N1         -0.9745    6.0930    1.6597 N.2       1 GTP        -0.7443
     29 C2         -0.1105    5.4166    2.3900 C.ar      1 GTP         0.8831
     30 N2          0.3241    5.8571    3.6138 N.pl3     1 GTP        -0.9204
     31 N3          0.4444    4.2053    2.0072 N.pl3     1 GTP        -0.7173
     32 C4          0.0746    3.6889    0.8098 C.ar      1 GTP         0.2626
     33 HOG3        5.0306    5.8258   -1.2850 H         1 GTP         0.4102
     34 H5'         1.3514    0.2330   -2.1577 H         1 GTP         0.0289
     35 H5''        2.1280   -1.3678   -2.0460 H         1 GTP         0.0289
     36 H4'         3.8044   -0.1397   -0.4040 H         1 GTP         0.2056
     37 H3'         1.6764   -1.7639    0.2728 H         1 GTP         0.1140
     38 HO3'        2.2232   -1.2979    2.3953 H         1 GTP         0.4287
     39 H2'        -0.0011    0.0027    0.0003 H         1 GTP         0.0809
     40 HO2'       -0.6141    0.5574    2.1082 H         1 GTP         0.4385
     41 H1'         1.7826    1.9024    1.6451 H         1 GTP         0.0794
     42 H8         -0.1415    1.7265   -1.7082 H         1 GTP         0.3821
     43 HN21       -0.0303    6.7197    3.9559 H         1 GTP         0.4411
     44 HN22        0.9765    5.2967    4.1108 H         1 GTP         0.4411
     45 H45         1.1068    3.6990    2.5819 H         1 GTP         0.4819
     46 H46        -1.5877    3.7943   -1.9074 H         1 GTP         0.5182
@<TRIPOS>BOND
     1    1    2 2
     2    1    3 1
     3    1    4 1
     4    1    5 1
     5    4   33 1
     6    5    6 1
     7    6    7 2
     8    6    8 1
     9    6    9 1
    10    9   10 1
    11   10   11 2
    12   10   12 1
    13   10   13 1
    14   13   14 1
    15   14   15 1
    16   14   34 1
    17   14   35 1
    18   15   16 1
    19   15   17 1
    20   15   36 1
    21   16   21 1
    22   17   18 1
    23   17   19 1
    24   17   37 1
    25   18   38 1
    26   19   20 1
    27   19   21 1
    28   19   39 1
    29   20   40 1
    30   21   22 1
    31   21   41 1
    32   22   23 ar
    33   22   32 ar
    34   23   24 ar
    35   23   42 1
    36   24   25 ar
    37   24   46 1
    38   25   26 ar
    39   25   32 ar
    40   26   27 2
    41   26   28 ar
    42   28   29 ar
    43   29   30 1
    44   29   31 ar
    45   30   43 1
    46   30   44 1
    47   31   32 ar
    48   31   45 1
@<TRIPOS>SUBSTRUCTURE
     1 GTP         1 GROUP 0 A     ****
@<TRIPOS>MOLECULE
[[[5-(2-amino-6-oxo-7,8-dihydro-3~{H}-purin-8-ylium-9-yl)-3,4-dihydroxy-tetrahydrofuran-2-yl]methoxy-oxido-phosphoryl]oxy-oxido-phosphoryl] hydrogen phosphate
   46    48     1     0     0
SMALL
USER_CHARGES

@<TRIPOS>ATOM
      1 PG         -4.9263   -4.8823   -1.4662 P.3       1 GTP         1.5447
      2 O1G        -5.0701   -6.2733   -2.0423 O.co2     1 GTP        -0.8705
      3 O2G        -5.5138   -3.6827   -2.1756 O.co2     1 GTP        -0.8705
      4 O3G        -3.3427   -4.5968   -1.1894 O.3       1 GTP        -0.7914
      5 O3B        -5.4491   -4.8910    0.0799 O.3       1 GTP        -0.8116
      6 PB         -5.0169   -5.8549    1.3248 P.3       1 GTP         1.6738
      7 O1B        -5.6963   -5.3578    2.5813 O.co2     1 GTP        -0.8763
      8 O2B        -5.1183   -7.2995    0.8884 O.co2     1 GTP        -0.8763
      9 O3A        -3.4246   -5.5011    1.3893 O.3       1 GTP        -0.8005
     10 PA         -2.2652   -6.0681    2.3913 P.3       1 GTP         1.5754
     11 O1A        -2.5853   -5.6288    3.8037 O.co2     1 GTP        -0.8771
     12 O2A        -2.0109   -7.5233    2.0634 O.co2     1 GTP        -0.8771
     13 O5'        -0.9724   -5.2440    1.8220 O.3       1 GTP        -0.5809
     14 C5'        -0.7840   -3.8935    2.2172 C.3       1 GTP         0.1986
     15 C4'        -0.0724   -3.1466    1.1027 C.3       1 GTP         0.0418
     16 O4'        -0.8674   -3.1929   -0.0945 O.3       1 GTP        -0.3505
     17 C3'         0.1338   -1.6715    1.4027 C.3       1 GTP         0.0909
     18 O3'         1.2893   -1.4445    2.1808 O.3       1 GTP        -0.6187
     19 C2'         0.2158   -1.0724    0.0128 C.3       1 GTP         0.0706
     20 O2'         1.5141   -1.2448   -0.5513 O.3       1 GTP        -0.6294
     21 C1'        -0.7897   -1.9176   -0.7583 C.3       1 GTP         0.3895
     22 N9         -2.1040   -1.3333   -0.7704 N.pl3     1 GTP        -0.4733
     23 C8         -3.0774   -1.4939    0.1205 C.ar      1 GTP         0.2958
     24 N7         -4.1709   -0.8031   -0.1972 N.pl3     1 GTP        -0.4933
     25 C5         -3.8606   -0.1662   -1.3678 C.ar      1 GTP        -0.1494
     26 C6         -4.6738    0.7391   -2.1934 C.ar      1 GTP         0.7954
     27 O6         -5.8186    1.0214   -1.8562 O.2       1 GTP        -0.5729
     28 N1         -4.0520    1.2260   -3.3448 N.2       1 GTP        -0.7443
     29 C2         -2.8155    0.8734   -3.6351 C.ar      1 GTP         0.8831
     30 N2         -2.1637    1.3257   -4.7536 N.pl3     1 GTP        -0.9204
     31 N3         -2.0511    0.0205   -2.8541 N.pl3     1 GTP        -0.7173
     32 C4         -2.6117   -0.4790   -1.7258 C.ar      1 GTP         0.2626
     33 HOG3       -3.0836   -3.7288   -0.8127 H         1 GTP         0.4102
     34 H5'        -1.7618   -3.4448    2.4164 H         1 GTP         0.0289
     35 H5''       -0.1874   -3.8744    3.1341 H         1 GTP         0.0289
     36 H4'         0.8874   -3.6466    0.8805 H         1 GTP         0.2056
     37 H3'        -0.7376   -1.2333    1.9867 H         1 GTP         0.1140
     38 HO3'        1.3408   -0.4870    2.3219 H         1 GTP         0.4287
     39 H2'        -0.0384   -0.0310    0.0096 H         1 GTP         0.0809
     40 HO2'        2.1463   -0.7958    0.0370 H         1 GTP         0.4385
     41 H1'        -0.4769   -2.1002   -1.8093 H         1 GTP         0.0794
     42 H8         -3.0010   -2.1083    1.0004 H         1 GTP         0.3821
     43 HN21       -2.6485    1.9422   -5.3633 H         1 GTP         0.4411
     44 HN22       -1.2319    1.0195   -4.9110 H         1 GTP         0.4411
     45 H45        -1.1018   -0.2391   -3.0927 H         1 GTP         0.4819
     46 H46        -5.0365   -0.7653    0.3226 H         1 GTP         0.5182
@<TRIPOS>BOND
     1    1    2 2
     2    1    3 1
     3    1    4 1
     4    1    5 1
     5    4   33 1
     6    5    6 1
     7    6    7 2
     8    6    8 1
     9    6    9 1
    10    9   10 1
    11   10   11 2
    12   10   12 1
    13   10   13 1
    14   13   14 1
    15   14   15 1
    16   14   34 1
    17   14   35 1
    18   15   16 1
    19   15   17 1
    20   15   36 1
    21   16   21 1
    22   17   18 1
    23   17   19 1
    24   17   37 1
    25   18   38 1
    26   19   20 1
    27   19   21 1
    28   19   39 1
    29   20   40 1
    30   21   22 1
    31   21   41 1
    32   22   23 ar
    33   22   32 ar
    34   23   24 ar
    35   23   42 1
    36   24   25 ar
    37   24   46 1
    38   25   26 ar
    39   25   32 ar
    40   26   27 2
    41   26   28 ar
    42   28   29 ar
    43   29   30 1
    44   29   31 ar
    45   30   43 1
    46   30   44 1
    47   31   32 ar
    48   31   45 1
@<TRIPOS>SUBSTRUCTURE
     1 GTP         1 GROUP 0 A     ****
@<TRIPOS>MOLECULE
[[[5-(2-amino-6-oxo-7,8-dihydro-3~{H}-purin-8-ylium-9-yl)-3,4-dihydroxy-tetrahydrofuran-2-yl]methoxy-oxido-phosphoryl]oxy-oxido-phosphoryl] hydrogen phosphate
   46    48     1     0     0
SMALL
USER_CHARGES

@<TRIPOS>ATOM
      1 PG          5.0555    0.4901   -7.7075 P.3       1 GTP         1.5447
      2 O1G         5.9535   -0.5587   -8.3247 O.co2     1 GTP        -0.8705
      3 O2G         4.0017    1.1944   -8.5329 O.co2     1 GTP        -0.8705
      4 O3G         5.9927    1.6189   -6.9910 O.3       1 GTP        -0.7914
      5 O3B         4.3532   -0.1313   -6.3718 O.3       1 GTP        -0.8116
      6 PB          3.2576   -1.3334   -6.2291 P.3       1 GTP         1.6738
      7 O1B         1.9649   -0.8906   -6.8774 O.co2     1 GTP        -0.8763
      8 O2B         3.9157   -2.6462   -6.5909 O.co2     1 GTP        -0.8763
      9 O3A         3.0809   -1.3355   -4.6062 O.3       1 GTP        -0.8005
     10 PA          2.1372   -2.2718   -3.6563 P.3       1 GTP         1.5754
     11 O1A         0.6864   -1.9828   -3.9759 O.co2     1 GTP        -0.8771
     12 O2A         2.6769   -3.6852   -3.6801 O.co2     1 GTP        -0.8771
     13 O5'         2.5245   -1.6648   -2.1878 O.3       1 GTP        -0.5809
     14 C5'         2.2816   -0.2918   -1.9206 C.3       1 GTP         0.1986
     15 C4'         2.7248    0.0226   -0.4980 C.3       1 GTP         0.0418
     16 O4'         2.4697    1.4219   -0.2462 O.3       1 GTP        -0.3505
     17 C3'         1.9404   -0.7419    0.5596 C.3       1 GTP         0.0909
     18 O3'         2.7418   -0.8086    1.7389 O.3       1 GTP        -0.6187
     19 C2'         0.7477    0.1630    0.7858 C.3       1 GTP         0.0706
     20 O2'         0.1373   -0.0577    2.0407 O.3       1 GTP        -0.6294
     21 C1'         1.3733    1.5427    0.6747 C.3       1 GTP         0.3895
     22 N9          0.4520    2.5240    0.1767 N.pl3     1 GTP        -0.4733
     23 C8         -0.2136    2.5096   -0.9739 C.ar      1 GTP         0.2958
     24 N7         -0.9896    3.5820   -1.1212 N.pl3     1 GTP        -0.4933
     25 C5         -0.7962    4.3186    0.0156 C.ar      1 GTP        -0.1494
     26 C6         -1.3875    5.6031    0.4192 C.ar      1 GTP         0.7954
     27 O6         -2.1869    6.1731   -0.3158 O.2       1 GTP        -0.5729
     28 N1         -0.9745    6.0930    1.6597 N.2       1 GTP        -0.7443
     29 C2         -0.1105    5.4166    2.3900 C.ar      1 GTP         0.8831
     30 N2          0.3241    5.8571    3.6138 N.pl3     1 GTP        -0.9204
     31 N3          0.4444    4.2053    2.0072 N.pl3     1 GTP        -0.7173
     32 C4          0.0746    3.6889    0.8098 C.ar      1 GTP         0.2626
     33 HOG3        5.5546    2.3728   -6.5417 H         1 GTP         0.4102
     34 H5'         2.8432    0.3119   -2.6398 H         1 GTP         0.0289
     35 H5''        1.2128   -0.0927   -2.0428 H         1 GTP         0.0289
     36 H4'         3.8044   -0.1397   -0.4040 H         1 GTP         0.2056
     37 H3'         1.6764   -1.7639    0.2728 H         1 GTP         0.1140
     38 HO3'        2.2232   -1.2979    2.3953 H         1 GTP         0.4287
     39 H2'        -0.0011    0.0027    0.0003 H         1 GTP         0.0809
     40 HO2'       -0.6141    0.5574    2.1082 H         1 GTP         0.4385
     41 H1'         1.7826    1.9024    1.6451 H         1 GTP         0.0794
     42 H8         -0.1415    1.7265   -1.7082 H         1 GTP         0.3821
     43 HN21       -0.0303    6.7197    3.9559 H         1 GTP         0.4411
     44 HN22        0.9765    5.2967    4.1108 H         1 GTP         0.4411
     45 H45         1.1068    3.6990    2.5819 H         1 GTP         0.4819
     46 H46        -1.5877    3.7943   -1.9074 H         1 GTP         0.5182
@<TRIPOS>BOND
     1    1    2 2
     2    1    3 1
     3    1    4 1
     4    1    5 1
     5    4   33 1
     6    5    6 1
     7    6    7 2
     8    6    8 1
     9    6    9 1
    10    9   10 1
    11   10   11 2
    12   10   12 1
    13   10   13 1
    14   13   14 1
    15   14   15 1
    16   14   34 1
    17   14   35 1
    18   15   16 1
    19   15   17 1
    20   15   36 1
    21   16   21 1
    22   17   18 1
    23   17   19 1
    24   17   37 1
    25   18   38 1
    26   19   20 1
    27   19   21 1
    28   19   39 1
    29   20   40 1
    30   21   22 1
    31   21   41 1
    32   22   23 ar
    33   22   32 ar
    34   23   24 ar
    35   23   42 1
    36   24   25 ar
    37   24   46 1
    38   25   26 ar
    39   25   32 ar
    40   26   27 2
    41   26   28 ar
    42   28   29 ar
    43   29   30 1
    44   29   31 ar
    45   30   43 1
    46   30   44 1
    47   31   32 ar
    48   31   45 1
@<TRIPOS>SUBSTRUCTURE
     1 GTP         1 GROUP 0 A     ****
@<TRIPOS>MOLECULE
[[[5-(2-amino-6-oxo-7,8-dihydro-3~{H}-purin-8-ylium-9-yl)-3,4-dihydroxy-tetrahydrofuran-2-yl]methoxy-oxido-phosphoryl]oxy-oxido-phosphoryl] hydrogen phosphate
   46    48     1     0     0
SMALL
USER_CHARGES

@<TRIPOS>ATOM
      1 PG          6.6257   -1.1194   -1.9725 P.3       1 GTP         1.5447
      2 O1G         7.7290   -0.2479   -2.5298 O.co2     1 GTP        -0.8705
      3 O2G         6.1720   -0.9758   -0.5368 O.co2     1 GTP        -0.8705
      4 O3G         7.0146   -2.6825   -2.2395 O.3       1 GTP        -0.7914
      5 O3B         5.3236   -1.0186   -2.9513 O.3       1 GTP        -0.8116
      6 PB          5.2054   -1.2550   -4.5625 P.3       1 GTP         1.6738
      7 O1B         5.9995   -0.1796   -5.2698 O.co2     1 GTP        -0.8763
      8 O2B         5.4170   -2.7222   -4.8626 O.co2     1 GTP        -0.8763
      9 O3A         3.6096   -0.9687   -4.7528 O.3       1 GTP        -0.8005
     10 PA          2.7407    0.3769   -4.4297 P.3       1 GTP         1.5754
     11 O1A         3.3568    1.5435   -5.1712 O.co2     1 GTP        -0.8771
     12 O2A         1.2702    0.0493   -4.5704 O.co2     1 GTP        -0.8771
     13 O5'         3.0213    0.5153   -2.8245 O.3       1 GTP        -0.5809
     14 C5'         2.2816   -0.2918   -1.9206 C.3       1 GTP         0.1986
     15 C4'         2.7248    0.0226   -0.4980 C.3       1 GTP         0.0418
     16 O4'         2.4697    1.4219   -0.2462 O.3       1 GTP        -0.3505
     17 C3'         1.9404   -0.7419    0.5596 C.3       1 GTP         0.0909
     18 O3'         2.7418   -0.8086    1.7389 O.3       1 GTP        -0.6187
     19 C2'         0.7477    0.1630    0.7858 C.3       1 GTP         0.0706
     20 O2'         0.1373   -0.0577    2.0407 O.3       1 GTP        -0.6294
     21 C1'         1.3733    1.5427    0.6747 C.3       1 GTP         0.3895
     22 N9          0.4520    2.5240    0.1767 N.pl3     1 GTP        -0.4733
     23 C8          0.2012    2.8401   -1.0899 C.ar      1 GTP         0.2958
     24 N7         -0.7168    3.7990   -1.1981 N.pl3     1 GTP        -0.4933
     25 C5         -1.0645    4.1043    0.0896 C.ar      1 GTP        -0.1494
     26 C6         -2.0336    5.0870    0.5973 C.ar      1 GTP         0.7954
     27 O6         -2.6730    5.7839   -0.1834 O.2       1 GTP        -0.5729
     28 N1         -2.1539    5.1517    1.9868 N.2       1 GTP        -0.7443
     29 C2         -1.4288    4.3650    2.7566 C.ar      1 GTP         0.8831
     30 N2         -1.5126    4.3922    4.1250 N.pl3     1 GTP        -0.9204
     31 N3         -0.5167    3.4388    2.2748 N.pl3     1 GTP        -0.7173
     32 C4         -0.3638    3.3392    0.9318 C.ar      1 GTP         0.2626
     33 HOG3        6.3932   -3.3771   -1.9333 H         1 GTP         0.4102
     34 H5'         1.2163   -0.0770   -2.0471 H         1 GTP         0.0289
     35 H5''        2.4655   -1.3443   -2.1563 H         1 GTP         0.0289
     36 H4'         3.8044   -0.1397   -0.4040 H         1 GTP         0.2056
     37 H3'         1.6764   -1.7639    0.2728 H         1 GTP         0.1140
     38 HO3'        2.2232   -1.2979    2.3953 H         1 GTP         0.4287
     39 H2'        -0.0011    0.0027    0.0003 H         1 GTP         0.0809
     40 HO2'       -0.6141    0.5574    2.1082 H         1 GTP         0.4385
     41 H1'         1.7826    1.9024    1.6451 H         1 GTP         0.0794
     42 H8          0.6787    2.3803   -1.9373 H         1 GTP         0.3821
     43 HN21       -2.1462    5.0320    4.5446 H         1 GTP         0.4411
     44 HN22       -0.9365    3.7712    4.6440 H         1 GTP         0.4411
     45 H45         0.0318    2.8419    2.8816 H         1 GTP         0.4819
     46 H46        -1.0718    4.2049   -2.0526 H         1 GTP         0.5182
@<TRIPOS>BOND
     1    1    2 2
     2    1    3 1
     3    1    4 1
     4    1    5 1
     5    4   33 1
     6    5    6 1
     7    6    7 2
     8    6    8 1
     9    6    9 1
    10    9   10 1
    11   10   11 2
    12   10   12 1
    13   10   13 1
    14   13   14 1
    15   14   15 1
    16   14   34 1
    17   14   35 1
    18   15   16 1
    19   15   17 1
    20   15   36 1
    21   16   21 1
    22   17   18 1
    23   17   19 1
    24   17   37 1
    25   18   38 1
    26   19   20 1
    27   19   21 1
    28   19   39 1
    29   20   40 1
    30   21   22 1
    31   21   41 1
    32   22   23 ar
    33   22   32 ar
    34   23   24 ar
    35   23   42 1
    36   24   25 ar
    37   24   46 1
    38   25   26 ar
    39   25   32 ar
    40   26   27 2
    41   26   28 ar
    42   28   29 ar
    43   29   30 1
    44   29   31 ar
    45   30   43 1
    46   30   44 1
    47   31   32 ar
    48   31   45 1
@<TRIPOS>SUBSTRUCTURE
     1 GTP         1 GROUP 0 A     ****
@<TRIPOS>MOLECULE
[[[5-(2-amino-6-oxo-7,8-dihydro-3~{H}-purin-8-ylium-9-yl)-3,4-dihydroxy-tetrahydrofuran-2-yl]methoxy-oxido-phosphoryl]oxy-oxido-phosphoryl] hydrogen phosphate
   46    48     1     0     0
SMALL
USER_CHARGES

@<TRIPOS>ATOM
      1 PG          6.2678   -2.8906   -4.9306 P.3       1 GTP         1.5447
      2 O1G         6.1901   -1.9684   -3.7344 O.co2     1 GTP        -0.8705
      3 O2G         6.8170   -4.2935   -4.7961 O.co2     1 GTP        -0.8705
      4 O3G         7.0823   -2.1271   -6.1221 O.3       1 GTP        -0.7914
      5 O3B         4.8006   -2.9629   -5.6418 O.3       1 GTP        -0.8116
      6 PB          3.8313   -1.7576   -6.1646 P.3       1 GTP         1.6738
      7 O1B         4.6166   -0.8815   -7.1150 O.co2     1 GTP        -0.8763
      8 O2B         2.4877   -2.3365   -6.5484 O.co2     1 GTP        -0.8763
      9 O3A         3.6096   -0.9687   -4.7528 O.3       1 GTP        -0.8005
     10 PA          2.7407    0.3769   -4.4297 P.3       1 GTP         1.5754
     11 O1A         3.3568    1.5435   -5.1712 O.co2     1 GTP        -0.8771
     12 O2A         1.2702    0.0493   -4.5704 O.co2     1 GTP        -0.8771
     13 O5'         3.0213    0.5153   -2.8245 O.3       1 GTP        -0.5809
     14 C5'         2.2816   -0.2918   -1.9206 C.3       1 GTP         0.1986
     15 C4'         2.7248    0.0226   -0.4980 C.3       1 GTP         0.0418
     16 O4'         2.4697    1.4219   -0.2462 O.3       1 GTP        -0.3505
     17 C3'         1.9404   -0.7419    0.5596 C.3       1 GTP         0.0909
     18 O3'         2.7418   -0.8086    1.7389 O.3       1 GTP        -0.6187
     19 C2'         0.7477    0.1630    0.7858 C.3       1 GTP         0.0706
     20 O2'         0.1373   -0.0577    2.0407 O.3       1 GTP        -0.6294
     21 C1'         1.3733    1.5427    0.6747 C.3       1 GTP         0.3895
     22 N9          0.4520    2.5240    0.1767 N.pl3     1 GTP        -0.4733
     23 C8          0.2012    2.8401   -1.0899 C.ar      1 GTP         0.2958
     24 N7         -0.7168    3.7990   -1.1981 N.pl3     1 GTP        -0.4933
     25 C5         -1.0645    4.1043    0.0896 C.ar      1 GTP        -0.1494
     26 C6         -2.0336    5.0870    0.5973 C.ar      1 GTP         0.7954
     27 O6         -2.6730    5.7839   -0.1834 O.2       1 GTP        -0.5729
     28 N1         -2.1539    5.1517    1.9868 N.2       1 GTP        -0.7443
     29 C2         -1.4288    4.3650    2.7566 C.ar      1 GTP         0.8831
     30 N2         -1.5126    4.3922    4.1250 N.pl3     1 GTP        -0.9204
     31 N3         -0.5167    3.4388    2.2748 N.pl3     1 GTP        -0.7173
     32 C4         -0.3638    3.3392    0.9318 C.ar      1 GTP         0.2626
     33 HOG3        7.2177   -2.5988   -6.9715 H         1 GTP         0.4102
     34 H5'         1.2163   -0.0770   -2.0471 H         1 GTP         0.0289
     35 H5''        2.4655   -1.3443   -2.1563 H         1 GTP         0.0289
     36 H4'         3.8044   -0.1397   -0.4040 H         1 GTP         0.2056
     37 H3'         1.6764   -1.7639    0.2728 H         1 GTP         0.1140
     38 HO3'        2.2232   -1.2979    2.3953 H         1 GTP         0.4287
     39 H2'        -0.0011    0.0027    0.0003 H         1 GTP         0.0809
     40 HO2'       -0.6141    0.5574    2.1082 H         1 GTP         0.4385
     41 H1'         1.7826    1.9024    1.6451 H         1 GTP         0.0794
     42 H8          0.6787    2.3803   -1.9373 H         1 GTP         0.3821
     43 HN21       -2.1462    5.0320    4.5446 H         1 GTP         0.4411
     44 HN22       -0.9365    3.7712    4.6440 H         1 GTP         0.4411
     45 H45         0.0318    2.8419    2.8816 H         1 GTP         0.4819
     46 H46        -1.0718    4.2049   -2.0526 H         1 GTP         0.5182
@<TRIPOS>BOND
     1    1    2 2
     2    1    3 1
     3    1    4 1
     4    1    5 1
     5    4   33 1
     6    5    6 1
     7    6    7 2
     8    6    8 1
     9    6    9 1
    10    9   10 1
    11   10   11 2
    12   10   12 1
    13   10   13 1
    14   13   14 1
    15   14   15 1
    16   14   34 1
    17   14   35 1
    18   15   16 1
    19   15   17 1
    20   15   36 1
    21   16   21 1
    22   17   18 1
    23   17   19 1
    24   17   37 1
    25   18   38 1
    26   19   20 1
    27   19   21 1
    28   19   39 1
    29   20   40 1
    30   21   22 1
    31   21   41 1
    32   22   23 ar
    33   22   32 ar
    34   23   24 ar
    35   23   42 1
    36   24   25 ar
    37   24   46 1
    38   25   26 ar
    39   25   32 ar
    40   26   27 2
    41   26   28 ar
    42   28   29 ar
    43   29   30 1
    44   29   31 ar
    45   30   43 1
    46   30   44 1
    47   31   32 ar
    48   31   45 1
@<TRIPOS>SUBSTRUCTURE
     1 GTP         1 GROUP 0 A     ****
@<TRIPOS>MOLECULE
[[[5-(2-amino-6-oxo-7,8-dihydro-3~{H}-purin-8-ylium-9-yl)-3,4-dihydroxy-tetrahydrofuran-2-yl]methoxy-oxido-phosphoryl]oxy-oxido-phosphoryl] hydrogen phosphate
   46    48     1     0     0
SMALL
USER_CHARGES

@<TRIPOS>ATOM
      1 PG          1.6288   -4.6584   -3.8061 P.3       1 GTP         1.5447
      2 O1G         0.6453   -3.5229   -3.9815 O.co2     1 GTP        -0.8705
      3 O2G         1.3185   -6.0433   -4.3290 O.co2     1 GTP        -0.8705
      4 O3G         2.0089   -4.7753   -2.2225 O.3       1 GTP        -0.7914
      5 O3B         3.0855   -4.1921   -4.3756 O.3       1 GTP        -0.8116
      6 PB          3.9753   -2.8714   -4.0157 P.3       1 GTP         1.6738
      7 O1B         4.1720   -2.8128   -2.5173 O.co2     1 GTP        -0.8763
      8 O2B         5.1445   -2.7889   -4.9716 O.co2     1 GTP        -0.8763
      9 O3A         2.9205   -1.7124   -4.4729 O.3       1 GTP        -0.8005
     10 PA          3.0675   -0.0857   -4.4293 P.3       1 GTP         1.5754
     11 O1A         4.3144    0.3107   -5.1899 O.co2     1 GTP        -0.8771
     12 O2A         1.7243    0.5309   -4.7535 O.co2     1 GTP        -0.8771
     13 O5'         3.2903    0.1346   -2.8241 O.3       1 GTP        -0.5809
     14 C5'         2.2816   -0.2918   -1.9206 C.3       1 GTP         0.1986
     15 C4'         2.7248    0.0226   -0.4980 C.3       1 GTP         0.0418
     16 O4'         2.4697    1.4219   -0.2462 O.3       1 GTP        -0.3505
     17 C3'         1.9404   -0.7419    0.5596 C.3       1 GTP         0.0909
     18 O3'         2.7418   -0.8086    1.7389 O.3       1 GTP        -0.6187
     19 C2'         0.7477    0.1630    0.7858 C.3       1 GTP         0.0706
     20 O2'         0.1373   -0.0577    2.0407 O.3       1 GTP        -0.6294
     21 C1'         1.3733    1.5427    0.6747 C.3       1 GTP         0.3895
     22 N9          0.4520    2.5240    0.1767 N.pl3     1 GTP        -0.4733
     23 C8          0.2012    2.8401   -1.0899 C.ar      1 GTP         0.2958
     24 N7         -0.7168    3.7990   -1.1981 N.pl3     1 GTP        -0.4933
     25 C5         -1.0645    4.1043    0.0896 C.ar      1 GTP        -0.1494
     26 C6         -2.0336    5.0870    0.5973 C.ar      1 GTP         0.7954
     27 O6         -2.6730    5.7839   -0.1834 O.2       1 GTP        -0.5729
     28 N1         -2.1539    5.1517    1.9868 N.2       1 GTP        -0.7443
     29 C2         -1.4288    4.3650    2.7566 C.ar      1 GTP         0.8831
     30 N2         -1.5126    4.3922    4.1250 N.pl3     1 GTP        -0.9204
     31 N3         -0.5167    3.4388    2.2748 N.pl3     1 GTP        -0.7173
     32 C4         -0.3638    3.3392    0.9318 C.ar      1 GTP         0.2626
     33 HOG3        2.6420   -5.4711   -1.9444 H         1 GTP         0.4102
     34 H5'         1.3514    0.2330   -2.1577 H         1 GTP         0.0289
     35 H5''        2.1280   -1.3678   -2.0460 H         1 GTP         0.0289
     36 H4'         3.8044   -0.1397   -0.4040 H         1 GTP         0.2056
     37 H3'         1.6764   -1.7639    0.2728 H         1 GTP         0.1140
     38 HO3'        2.2232   -1.2979    2.3953 H         1 GTP         0.4287
     39 H2'        -0.0011    0.0027    0.0003 H         1 GTP         0.0809
     40 HO2'       -0.1563   -0.9855    2.0596 H         1 GTP         0.4385
     41 H1'         1.7826    1.9024    1.6451 H         1 GTP         0.0794
     42 H8          0.6787    2.3803   -1.9373 H         1 GTP         0.3821
     43 HN21       -2.1462    5.0320    4.5446 H         1 GTP         0.4411
     44 HN22       -0.9365    3.7712    4.6440 H         1 GTP         0.4411
     45 H45         0.0318    2.8419    2.8816 H         1 GTP         0.4819
     46 H46        -1.0718    4.2049   -2.0526 H         1 GTP         0.5182
@<TRIPOS>BOND
     1    1    2 2
     2    1    3 1
     3    1    4 1
     4    1    5 1
     5    4   33 1
     6    5    6 1
     7    6    7 2
     8    6    8 1
     9    6    9 1
    10    9   10 1
    11   10   11 2
    12   10   12 1
    13   10   13 1
    14   13   14 1
    15   14   15 1
    16   14   34 1
    17   14   35 1
    18   15   16 1
    19   15   17 1
    20   15   36 1
    21   16   21 1
    22   17   18 1
    23   17   19 1
    24   17   37 1
    25   18   38 1
    26   19   20 1
    27   19   21 1
    28   19   39 1
    29   20   40 1
    30   21   22 1
    31   21   41 1
    32   22   23 ar
    33   22   32 ar
    34   23   24 ar
    35   23   42 1
    36   24   25 ar
    37   24   46 1
    38   25   26 ar
    39   25   32 ar
    40   26   27 2
    41   26   28 ar
    42   28   29 ar
    43   29   30 1
    44   29   31 ar
    45   30   43 1
    46   30   44 1
    47   31   32 ar
    48   31   45 1
@<TRIPOS>SUBSTRUCTURE
     1 GTP         1 GROUP 0 A     ****
@<TRIPOS>MOLECULE
[[[5-(2-amino-6-oxo-7,8-dihydro-3~{H}-purin-8-ylium-9-yl)-3,4-dihydroxy-tetrahydrofuran-2-yl]methoxy-oxido-phosphoryl]oxy-oxido-phosphoryl] hydrogen phosphate
   46    48     1     0     0
SMALL
USER_CHARGES

@<TRIPOS>ATOM
      1 PG          7.0743   -1.3422   -5.7084 P.3       1 GTP         1.5447
      2 O1G         7.3361   -2.7824   -6.0889 O.co2     1 GTP        -0.8705
      3 O2G         7.5333   -0.2077   -6.5972 O.co2     1 GTP        -0.8705
      4 O3G         7.6551   -1.0894   -4.2035 O.3       1 GTP        -0.7914
      5 O3B         5.4836   -1.1568   -5.3932 O.3       1 GTP        -0.8116
      6 PB          4.5143   -1.9910   -4.3782 P.3       1 GTP         1.6738
      7 O1B         4.3959   -3.4128   -4.8800 O.co2     1 GTP        -0.8763
      8 O2B         4.9141   -1.6855   -2.9519 O.co2     1 GTP        -0.8763
      9 O3A         3.1119   -1.1996   -4.6459 O.3       1 GTP        -0.8005
     10 PA          2.7407    0.3769   -4.4297 P.3       1 GTP         1.5754
     11 O1A         3.7274    1.2201   -5.2081 O.co2     1 GTP        -0.8771
     12 O2A         1.2486    0.5523   -4.6100 O.co2     1 GTP        -0.8771
     13 O5'         3.0213    0.5153   -2.8245 O.3       1 GTP        -0.5809
     14 C5'         2.2816   -0.2918   -1.9206 C.3       1 GTP         0.1986
     15 C4'         2.7248    0.0226   -0.4980 C.3       1 GTP         0.0418
     16 O4'         2.4697    1.4219   -0.2462 O.3       1 GTP        -0.3505
     17 C3'         1.9404   -0.7419    0.5596 C.3       1 GTP         0.0909
     18 O3'         2.7418   -0.8086    1.7389 O.3       1 GTP        -0.6187
     19 C2'         0.7477    0.1630    0.7858 C.3       1 GTP         0.0706
     20 O2'         0.1373   -0.0577    2.0407 O.3       1 GTP        -0.6294
     21 C1'         1.3733    1.5427    0.6747 C.3       1 GTP         0.3895
     22 N9          0.4520    2.5240    0.1767 N.pl3     1 GTP        -0.4733
     23 C8          0.2012    2.8401   -1.0899 C.ar      1 GTP         0.2958
     24 N7         -0.7168    3.7990   -1.1981 N.pl3     1 GTP        -0.4933
     25 C5         -1.0645    4.1043    0.0896 C.ar      1 GTP        -0.1494
     26 C6         -2.0336    5.0870    0.5973 C.ar      1 GTP         0.7954
     27 O6         -2.6730    5.7839   -0.1834 O.2       1 GTP        -0.5729
     28 N1         -2.1539    5.1517    1.9868 N.2       1 GTP        -0.7443
     29 C2         -1.4288    4.3650    2.7566 C.ar      1 GTP         0.8831
     30 N2         -1.5126    4.3922    4.1250 N.pl3     1 GTP        -0.9204
     31 N3         -0.5167    3.4388    2.2748 N.pl3     1 GTP        -0.7173
     32 C4         -0.3638    3.3392    0.9318 C.ar      1 GTP         0.2626
     33 HOG3        7.5608   -0.1955   -3.8107 H         1 GTP         0.4102
     34 H5'         1.2163   -0.0770   -2.0471 H         1 GTP         0.0289
     35 H5''        2.4655   -1.3443   -2.1563 H         1 GTP         0.0289
     36 H4'         3.8044   -0.1397   -0.4040 H         1 GTP         0.2056
     37 H3'         1.6764   -1.7639    0.2728 H         1 GTP         0.1140
     38 HO3'        2.2232   -1.2979    2.3953 H         1 GTP         0.4287
     39 H2'        -0.0011    0.0027    0.0003 H         1 GTP         0.0809
     40 HO2'       -0.6141    0.5574    2.1082 H         1 GTP         0.4385
     41 H1'         1.7826    1.9024    1.6451 H         1 GTP         0.0794
     42 H8          0.6787    2.3803   -1.9373 H         1 GTP         0.3821
     43 HN21       -2.1462    5.0320    4.5446 H         1 GTP         0.4411
     44 HN22       -0.9365    3.7712    4.6440 H         1 GTP         0.4411
     45 H45         0.0318    2.8419    2.8816 H         1 GTP         0.4819
     46 H46        -1.0718    4.2049   -2.0526 H         1 GTP         0.5182
@<TRIPOS>BOND
     1    1    2 2
     2    1    3 1
     3    1    4 1
     4    1    5 1
     5    4   33 1
     6    5    6 1
     7    6    7 2
     8    6    8 1
     9    6    9 1
    10    9   10 1
    11   10   11 2
    12   10   12 1
    13   10   13 1
    14   13   14 1
    15   14   15 1
    16   14   34 1
    17   14   35 1
    18   15   16 1
    19   15   17 1
    20   15   36 1
    21   16   21 1
    22   17   18 1
    23   17   19 1
    24   17   37 1
    25   18   38 1
    26   19   20 1
    27   19   21 1
    28   19   39 1
    29   20   40 1
    30   21   22 1
    31   21   41 1
    32   22   23 ar
    33   22   32 ar
    34   23   24 ar
    35   23   42 1
    36   24   25 ar
    37   24   46 1
    38   25   26 ar
    39   25   32 ar
    40   26   27 2
    41   26   28 ar
    42   28   29 ar
    43   29   30 1
    44   29   31 ar
    45   30   43 1
    46   30   44 1
    47   31   32 ar
    48   31   45 1
@<TRIPOS>SUBSTRUCTURE
     1 GTP         1 GROUP 0 A     ****
@<TRIPOS>MOLECULE
[[[5-(2-amino-6-oxo-7,8-dihydro-3~{H}-purin-8-ylium-9-yl)-3,4-dihydroxy-tetrahydrofuran-2-yl]methoxy-oxido-phosphoryl]oxy-oxido-phosphoryl] hydrogen phosphate
   46    48     1     0     0
SMALL
USER_CHARGES

@<TRIPOS>ATOM
      1 PG         -4.6560   -8.3775   -0.3703 P.3       1 GTP         1.5447
      2 O1G        -6.1644   -8.3836   -0.2612 O.co2     1 GTP        -0.8705
      3 O2G        -3.9710   -7.9556   -1.6512 O.co2     1 GTP        -0.8705
      4 O3G        -4.0993   -9.8527    0.0537 O.3       1 GTP        -0.7914
      5 O3B        -4.0373   -7.5148    0.8693 O.3       1 GTP        -0.8116
      6 PB         -4.1458   -5.9174    1.1889 P.3       1 GTP         1.6738
      7 O1B        -3.4151   -5.1555    0.1058 O.co2     1 GTP        -0.8763
      8 O2B        -5.5726   -5.5855    1.5654 O.co2     1 GTP        -0.8763
      9 O3A        -3.2784   -5.8672    2.5709 O.3       1 GTP        -0.8005
     10 PA         -1.7207   -6.2770    2.8455 P.3       1 GTP         1.5754
     11 O1A        -1.3736   -5.9369    4.2788 O.co2     1 GTP        -0.8771
     12 O2A        -1.4795   -7.6638    2.2902 O.co2     1 GTP        -0.8771
     13 O5'        -0.9724   -5.2440    1.8220 O.3       1 GTP        -0.5809
     14 C5'        -0.7840   -3.8935    2.2172 C.3       1 GTP         0.1986
     15 C4'        -0.0724   -3.1466    1.1027 C.3       1 GTP         0.0418
     16 O4'        -0.8674   -3.1929   -0.0945 O.3       1 GTP        -0.3505
     17 C3'         0.1338   -1.6715    1.4027 C.3       1 GTP         0.0909
     18 O3'         1.2893   -1.4445    2.1808 O.3       1 GTP        -0.6187
     19 C2'         0.2158   -1.0724    0.0128 C.3       1 GTP         0.0706
     20 O2'         1.5141   -1.2448   -0.5513 O.3       1 GTP        -0.6294
     21 C1'        -0.7897   -1.9176   -0.7583 C.3       1 GTP         0.3895
     22 N9         -2.1040   -1.3333   -0.7704 N.pl3     1 GTP        -0.4733
     23 C8         -3.0774   -1.4939    0.1205 C.ar      1 GTP         0.2958
     24 N7         -4.1709   -0.8031   -0.1972 N.pl3     1 GTP        -0.4933
     25 C5         -3.8606   -0.1662   -1.3678 C.ar      1 GTP        -0.1494
     26 C6         -4.6738    0.7391   -2.1934 C.ar      1 GTP         0.7954
     27 O6         -5.8186    1.0214   -1.8562 O.2       1 GTP        -0.5729
     28 N1         -4.0520    1.2260   -3.3448 N.2       1 GTP        -0.7443
     29 C2         -2.8155    0.8734   -3.6351 C.ar      1 GTP         0.8831
     30 N2         -2.1637    1.3257   -4.7536 N.pl3     1 GTP        -0.9204
     31 N3         -2.0511    0.0205   -2.8541 N.pl3     1 GTP        -0.7173
     32 C4         -2.6117   -0.4790   -1.7258 C.ar      1 GTP         0.2626
     33 HOG3       -3.1311  -10.0097    0.0343 H         1 GTP         0.4102
     34 H5'        -1.7618   -3.4448    2.4164 H         1 GTP         0.0289
     35 H5''       -0.1874   -3.8744    3.1341 H         1 GTP         0.0289
     36 H4'         0.8874   -3.6466    0.8805 H         1 GTP         0.2056
     37 H3'        -0.7376   -1.2333    1.9867 H         1 GTP         0.1140
     38 HO3'        1.3408   -0.4870    2.3219 H         1 GTP         0.4287
     39 H2'        -0.0384   -0.0310    0.0096 H         1 GTP         0.0809
     40 HO2'        2.1463   -0.7958    0.0370 H         1 GTP         0.4385
     41 H1'        -0.4769   -2.1002   -1.8093 H         1 GTP         0.0794
     42 H8         -3.0010   -2.1083    1.0004 H         1 GTP         0.3821
     43 HN21       -2.6485    1.9422   -5.3633 H         1 GTP         0.4411
     44 HN22       -1.2319    1.0195   -4.9110 H         1 GTP         0.4411
     45 H45        -1.1018   -0.2391   -3.0927 H         1 GTP         0.4819
     46 H46        -5.0365   -0.7653    0.3226 H         1 GTP         0.5182
@<TRIPOS>BOND
     1    1    2 2
     2    1    3 1
     3    1    4 1
     4    1    5 1
     5    4   33 1
     6    5    6 1
     7    6    7 2
     8    6    8 1
     9    6    9 1
    10    9   10 1
    11   10   11 2
    12   10   12 1
    13   10   13 1
    14   13   14 1
    15   14   15 1
    16   14   34 1
    17   14   35 1
    18   15   16 1
    19   15   17 1
    20   15   36 1
    21   16   21 1
    22   17   18 1
    23   17   19 1
    24   17   37 1
    25   18   38 1
    26   19   20 1
    27   19   21 1
    28   19   39 1
    29   20   40 1
    30   21   22 1
    31   21   41 1
    32   22   23 ar
    33   22   32 ar
    34   23   24 ar
    35   23   42 1
    36   24   25 ar
    37   24   46 1
    38   25   26 ar
    39   25   32 ar
    40   26   27 2
    41   26   28 ar
    42   28   29 ar
    43   29   30 1
    44   29   31 ar
    45   30   43 1
    46   30   44 1
    47   31   32 ar
    48   31   45 1
@<TRIPOS>SUBSTRUCTURE
     1 GTP         1 GROUP 0 A     ****
@<TRIPOS>MOLECULE
[[[5-(2-amino-6-oxo-7,8-dihydro-3~{H}-purin-8-ylium-9-yl)-3,4-dihydroxy-tetrahydrofuran-2-yl]methoxy-oxido-phosphoryl]oxy-oxido-phosphoryl] hydrogen phosphate
   46    48     1     0     0
SMALL
USER_CHARGES

@<TRIPOS>ATOM
      1 PG          0.8018   -4.3092   -7.5123 P.3       1 GTP         1.5447
      2 O1G        -0.6676   -4.2025   -7.8544 O.co2     1 GTP        -0.8705
      3 O2G         1.8639   -4.0527   -8.5582 O.co2     1 GTP        -0.8705
      4 O3G         1.0740   -5.7746   -6.8456 O.3       1 GTP        -0.7914
      5 O3B         1.1116   -3.3822   -6.2053 O.3       1 GTP        -0.8116
      6 PB          1.0623   -1.7587   -6.0390 P.3       1 GTP         1.6738
      7 O1B         2.1420   -1.1496   -6.9055 O.co2     1 GTP        -0.8763
      8 O2B        -0.3756   -1.2975   -6.1245 O.co2     1 GTP        -0.8763
      9 O3A         1.4933   -1.6431   -4.4688 O.3       1 GTP        -0.8005
     10 PA          2.8603   -2.1317   -3.7189 P.3       1 GTP         1.5754
     11 O1A         2.9465   -3.6405   -3.7989 O.co2     1 GTP        -0.8771
     12 O2A         4.0054   -1.2571   -4.1810 O.co2     1 GTP        -0.8771
     13 O5'         2.5245   -1.6648   -2.1878 O.3       1 GTP        -0.5809
     14 C5'         2.2816   -0.2918   -1.9206 C.3       1 GTP         0.1986
     15 C4'         2.7248    0.0226   -0.4980 C.3       1 GTP         0.0418
     16 O4'         2.4697    1.4219   -0.2462 O.3       1 GTP        -0.3505
     17 C3'         1.9404   -0.7419    0.5596 C.3       1 GTP         0.0909
     18 O3'         2.7418   -0.8086    1.7389 O.3       1 GTP        -0.6187
     19 C2'         0.7477    0.1630    0.7858 C.3       1 GTP         0.0706
     20 O2'         0.1373   -0.0577    2.0407 O.3       1 GTP        -0.6294
     21 C1'         1.3733    1.5427    0.6747 C.3       1 GTP         0.3895
     22 N9          0.4520    2.5240    0.1767 N.pl3     1 GTP        -0.4733
     23 C8          0.2012    2.8401   -1.0899 C.ar      1 GTP         0.2958
     24 N7         -0.7168    3.7990   -1.1981 N.pl3     1 GTP        -0.4933
     25 C5         -1.0645    4.1043    0.0896 C.ar      1 GTP        -0.1494
     26 C6         -2.0336    5.0870    0.5973 C.ar      1 GTP         0.7954
     27 O6         -2.6730    5.7839   -0.1834 O.2       1 GTP        -0.5729
     28 N1         -2.1539    5.1517    1.9868 N.2       1 GTP        -0.7443
     29 C2         -1.4288    4.3650    2.7566 C.ar      1 GTP         0.8831
     30 N2         -1.5126    4.3922    4.1250 N.pl3     1 GTP        -0.9204
     31 N3         -0.5167    3.4388    2.2748 N.pl3     1 GTP        -0.7173
     32 C4         -0.3638    3.3392    0.9318 C.ar      1 GTP         0.2626
     33 HOG3        1.9876   -5.9984   -6.5672 H         1 GTP         0.4102
     34 H5'         2.8432    0.3119   -2.6398 H         1 GTP         0.0289
     35 H5''        1.2128   -0.0927   -2.0428 H         1 GTP         0.0289
     36 H4'         3.8044   -0.1397   -0.4040 H         1 GTP         0.2056
     37 H3'         1.6764   -1.7639    0.2728 H         1 GTP         0.1140
     38 HO3'        2.2232   -1.2979    2.3953 H         1 GTP         0.4287
     39 H2'        -0.0011    0.0027    0.0003 H         1 GTP         0.0809
     40 HO2'       -0.1563   -0.9855    2.0596 H         1 GTP         0.4385
     41 H1'         1.7826    1.9024    1.6451 H         1 GTP         0.0794
     42 H8          0.6787    2.3803   -1.9373 H         1 GTP         0.3821
     43 HN21       -2.1462    5.0320    4.5446 H         1 GTP         0.4411
     44 HN22       -0.9365    3.7712    4.6440 H         1 GTP         0.4411
     45 H45         0.0318    2.8419    2.8816 H         1 GTP         0.4819
     46 H46        -1.0718    4.2049   -2.0526 H         1 GTP         0.5182
@<TRIPOS>BOND
     1    1    2 2
     2    1    3 1
     3    1    4 1
     4    1    5 1
     5    4   33 1
     6    5    6 1
     7    6    7 2
     8    6    8 1
     9    6    9 1
    10    9   10 1
    11   10   11 2
    12   10   12 1
    13   10   13 1
    14   13   14 1
    15   14   15 1
    16   14   34 1
    17   14   35 1
    18   15   16 1
    19   15   17 1
    20   15   36 1
    21   16   21 1
    22   17   18 1
    23   17   19 1
    24   17   37 1
    25   18   38 1
    26   19   20 1
    27   19   21 1
    28   19   39 1
    29   20   40 1
    30   21   22 1
    31   21   41 1
    32   22   23 ar
    33   22   32 ar
    34   23   24 ar
    35   23   42 1
    36   24   25 ar
    37   24   46 1
    38   25   26 ar
    39   25   32 ar
    40   26   27 2
    41   26   28 ar
    42   28   29 ar
    43   29   30 1
    44   29   31 ar
    45   30   43 1
    46   30   44 1
    47   31   32 ar
    48   31   45 1
@<TRIPOS>SUBSTRUCTURE
     1 GTP         1 GROUP 0 A     ****
@<TRIPOS>MOLECULE
[[[5-(2-amino-6-oxo-7,8-dihydro-3~{H}-purin-8-ylium-9-yl)-3,4-dihydroxy-tetrahydrofuran-2-yl]methoxy-oxido-phosphoryl]oxy-oxido-phosphoryl] hydrogen phosphate
   46    48     1     0     0
SMALL
USER_CHARGES

@<TRIPOS>ATOM
      1 PG          0.2462    0.4727   -5.7717 P.3       1 GTP         1.5447
      2 O1G         0.5340    1.7512   -6.5267 O.co2     1 GTP        -0.8705
      3 O2G        -0.4998   -0.6670   -6.4292 O.co2     1 GTP        -0.8705
      4 O3G        -0.5133    0.8535   -4.3774 O.3       1 GTP        -0.7914
      5 O3B         1.6403   -0.0994   -5.1449 O.3       1 GTP        -0.8116
      6 PB          2.9599   -0.6946   -5.8997 P.3       1 GTP         1.6738
      7 O1B         2.5796   -1.9804   -6.5994 O.co2     1 GTP        -0.8763
      8 O2B         3.6578    0.4292   -6.6328 O.co2     1 GTP        -0.8763
      9 O3A         3.8774   -1.0356   -4.5933 O.3       1 GTP        -0.8005
     10 PA          4.4374   -0.0466   -3.4193 P.3       1 GTP         1.5754
     11 O1A         5.1480   -0.8824   -2.3769 O.co2     1 GTP        -0.8771
     12 O2A         5.1179    1.1389   -4.0684 O.co2     1 GTP        -0.8771
     13 O5'         3.0213    0.5153   -2.8245 O.3       1 GTP        -0.5809
     14 C5'         2.2816   -0.2918   -1.9206 C.3       1 GTP         0.1986
     15 C4'         2.7248    0.0226   -0.4980 C.3       1 GTP         0.0418
     16 O4'         2.4697    1.4219   -0.2462 O.3       1 GTP        -0.3505
     17 C3'         1.9404   -0.7419    0.5596 C.3       1 GTP         0.0909
     18 O3'         2.7418   -0.8086    1.7389 O.3       1 GTP        -0.6187
     19 C2'         0.7477    0.1630    0.7858 C.3       1 GTP         0.0706
     20 O2'         0.1373   -0.0577    2.0407 O.3       1 GTP        -0.6294
     21 C1'         1.3733    1.5427    0.6747 C.3       1 GTP         0.3895
     22 N9          0.4520    2.5240    0.1767 N.pl3     1 GTP        -0.4733
     23 C8          0.2012    2.8401   -1.0899 C.ar      1 GTP         0.2958
     24 N7         -0.7168    3.7990   -1.1981 N.pl3     1 GTP        -0.4933
     25 C5         -1.0645    4.1043    0.0896 C.ar      1 GTP        -0.1494
     26 C6         -2.0336    5.0870    0.5973 C.ar      1 GTP         0.7954
     27 O6         -2.6730    5.7839   -0.1834 O.2       1 GTP        -0.5729
     28 N1         -2.1539    5.1517    1.9868 N.2       1 GTP        -0.7443
     29 C2         -1.4288    4.3650    2.7566 C.ar      1 GTP         0.8831
     30 N2         -1.5126    4.3922    4.1250 N.pl3     1 GTP        -0.9204
     31 N3         -0.5167    3.4388    2.2748 N.pl3     1 GTP        -0.7173
     32 C4         -0.3638    3.3392    0.9318 C.ar      1 GTP         0.2626
     33 HOG3       -0.7693    0.1259   -3.7714 H         1 GTP         0.4102
     34 H5'         1.2163   -0.0770   -2.0471 H         1 GTP         0.0289
     35 H5''        2.4655   -1.3443   -2.1563 H         1 GTP         0.0289
     36 H4'         3.8044   -0.1397   -0.4040 H         1 GTP         0.2056
     37 H3'         1.6764   -1.7639    0.2728 H         1 GTP         0.1140
     38 HO3'        3.5554   -1.2733    1.4914 H         1 GTP         0.4287
     39 H2'        -0.0011    0.0027    0.0003 H         1 GTP         0.0809
     40 HO2'       -0.1563   -0.9855    2.0596 H         1 GTP         0.4385
     41 H1'         1.7826    1.9024    1.6451 H         1 GTP         0.0794
     42 H8          0.6787    2.3803   -1.9373 H         1 GTP         0.3821
     43 HN21       -2.1462    5.0320    4.5446 H         1 GTP         0.4411
     44 HN22       -0.9365    3.7712    4.6440 H         1 GTP         0.4411
     45 H45         0.0318    2.8419    2.8816 H         1 GTP         0.4819
     46 H46        -1.0718    4.2049   -2.0526 H         1 GTP         0.5182
@<TRIPOS>BOND
     1    1    2 2
     2    1    3 1
     3    1    4 1
     4    1    5 1
     5    4   33 1
     6    5    6 1
     7    6    7 2
     8    6    8 1
     9    6    9 1
    10    9   10 1
    11   10   11 2
    12   10   12 1
    13   10   13 1
    14   13   14 1
    15   14   15 1
    16   14   34 1
    17   14   35 1
    18   15   16 1
    19   15   17 1
    20   15   36 1
    21   16   21 1
    22   17   18 1
    23   17   19 1
    24   17   37 1
    25   18   38 1
    26   19   20 1
    27   19   21 1
    28   19   39 1
    29   20   40 1
    30   21   22 1
    31   21   41 1
    32   22   23 ar
    33   22   32 ar
    34   23   24 ar
    35   23   42 1
    36   24   25 ar
    37   24   46 1
    38   25   26 ar
    39   25   32 ar
    40   26   27 2
    41   26   28 ar
    42   28   29 ar
    43   29   30 1
    44   29   31 ar
    45   30   43 1
    46   30   44 1
    47   31   32 ar
    48   31   45 1
@<TRIPOS>SUBSTRUCTURE
     1 GTP         1 GROUP 0 A     ****
@<TRIPOS>MOLECULE
[[[5-(2-amino-6-oxo-7,8-dihydro-3~{H}-purin-8-ylium-9-yl)-3,4-dihydroxy-tetrahydrofuran-2-yl]methoxy-oxido-phosphoryl]oxy-oxido-phosphoryl] hydrogen phosphate
   46    48     1     0     0
SMALL
USER_CHARGES

@<TRIPOS>ATOM
      1 PG          3.8003   -4.8483   -4.0436 P.3       1 GTP         1.5447
      2 O1G         3.2218   -6.0878   -3.3984 O.co2     1 GTP        -0.8705
      3 O2G         5.0846   -4.9138   -4.8398 O.co2     1 GTP        -0.8705
      4 O3G         3.9577   -3.6936   -2.9000 O.3       1 GTP        -0.7914
      5 O3B         2.6484   -4.1371   -4.9553 O.3       1 GTP        -0.8116
      6 PB          2.6728   -2.7073   -5.7432 P.3       1 GTP         1.6738
      7 O1B         3.8808   -2.6756   -6.6529 O.co2     1 GTP        -0.8763
      8 O2B         1.2840   -2.4054   -6.2605 O.co2     1 GTP        -0.8763
      9 O3A         2.9205   -1.7124   -4.4729 O.3       1 GTP        -0.8005
     10 PA          3.0675   -0.0857   -4.4293 P.3       1 GTP         1.5754
     11 O1A         4.3144    0.3107   -5.1899 O.co2     1 GTP        -0.8771
     12 O2A         1.7243    0.5309   -4.7535 O.co2     1 GTP        -0.8771
     13 O5'         3.2903    0.1346   -2.8241 O.3       1 GTP        -0.5809
     14 C5'         2.2816   -0.2918   -1.9206 C.3       1 GTP         0.1986
     15 C4'         2.7248    0.0226   -0.4980 C.3       1 GTP         0.0418
     16 O4'         2.4697    1.4219   -0.2462 O.3       1 GTP        -0.3505
     17 C3'         1.9404   -0.7419    0.5596 C.3       1 GTP         0.0909
     18 O3'         2.7418   -0.8086    1.7389 O.3       1 GTP        -0.6187
     19 C2'         0.7477    0.1630    0.7858 C.3       1 GTP         0.0706
     20 O2'         0.1373   -0.0577    2.0407 O.3       1 GTP        -0.6294
     21 C1'         1.3733    1.5427    0.6747 C.3       1 GTP         0.3895
     22 N9          0.4520    2.5240    0.1767 N.pl3     1 GTP        -0.4733
     23 C8          0.2012    2.8401   -1.0899 C.ar      1 GTP         0.2958
     24 N7         -0.7168    3.7990   -1.1981 N.pl3     1 GTP        -0.4933
     25 C5         -1.0645    4.1043    0.0896 C.ar      1 GTP        -0.1494
     26 C6         -2.0336    5.0870    0.5973 C.ar      1 GTP         0.7954
     27 O6         -2.6730    5.7839   -0.1834 O.2       1 GTP        -0.5729
     28 N1         -2.1539    5.1517    1.9868 N.2       1 GTP        -0.7443
     29 C2         -1.4288    4.3650    2.7566 C.ar      1 GTP         0.8831
     30 N2         -1.5126    4.3922    4.1250 N.pl3     1 GTP        -0.9204
     31 N3         -0.5167    3.4388    2.2748 N.pl3     1 GTP        -0.7173
     32 C4         -0.3638    3.3392    0.9318 C.ar      1 GTP         0.2626
     33 HOG3        4.3228   -2.8221   -3.1636 H         1 GTP         0.4102
     34 H5'         1.3514    0.2330   -2.1577 H         1 GTP         0.0289
     35 H5''        2.1280   -1.3678   -2.0460 H         1 GTP         0.0289
     36 H4'         3.8044   -0.1397   -0.4040 H         1 GTP         0.2056
     37 H3'         1.6764   -1.7639    0.2728 H         1 GTP         0.1140
     38 HO3'        3.5554   -1.2733    1.4914 H         1 GTP         0.4287
     39 H2'        -0.0011    0.0027    0.0003 H         1 GTP         0.0809
     40 HO2'       -0.1563   -0.9855    2.0596 H         1 GTP         0.4385
     41 H1'         1.7826    1.9024    1.6451 H         1 GTP         0.0794
     42 H8          0.6787    2.3803   -1.9373 H         1 GTP         0.3821
     43 HN21       -2.1462    5.0320    4.5446 H         1 GTP         0.4411
     44 HN22       -0.9365    3.7712    4.6440 H         1 GTP         0.4411
     45 H45         0.0318    2.8419    2.8816 H         1 GTP         0.4819
     46 H46        -1.0718    4.2049   -2.0526 H         1 GTP         0.5182
@<TRIPOS>BOND
     1    1    2 2
     2    1    3 1
     3    1    4 1
     4    1    5 1
     5    4   33 1
     6    5    6 1
     7    6    7 2
     8    6    8 1
     9    6    9 1
    10    9   10 1
    11   10   11 2
    12   10   12 1
    13   10   13 1
    14   13   14 1
    15   14   15 1
    16   14   34 1
    17   14   35 1
    18   15   16 1
    19   15   17 1
    20   15   36 1
    21   16   21 1
    22   17   18 1
    23   17   19 1
    24   17   37 1
    25   18   38 1
    26   19   20 1
    27   19   21 1
    28   19   39 1
    29   20   40 1
    30   21   22 1
    31   21   41 1
    32   22   23 ar
    33   22   32 ar
    34   23   24 ar
    35   23   42 1
    36   24   25 ar
    37   24   46 1
    38   25   26 ar
    39   25   32 ar
    40   26   27 2
    41   26   28 ar
    42   28   29 ar
    43   29   30 1
    44   29   31 ar
    45   30   43 1
    46   30   44 1
    47   31   32 ar
    48   31   45 1
@<TRIPOS>SUBSTRUCTURE
     1 GTP         1 GROUP 0 A     ****
@<TRIPOS>MOLECULE
[[[5-(2-amino-6-oxo-7,8-dihydro-3~{H}-purin-8-ylium-9-yl)-3,4-dihydroxy-tetrahydrofuran-2-yl]methoxy-oxido-phosphoryl]oxy-oxido-phosphoryl] hydrogen phosphate
   46    48     1     0     0
SMALL
USER_CHARGES

@<TRIPOS>ATOM
      1 PG          6.2381   -4.4631   -6.2732 P.3       1 GTP         1.5447
      2 O1G         7.7209   -4.1832   -6.1717 O.co2     1 GTP        -0.8705
      3 O2G         5.7033   -5.8729   -6.1539 O.co2     1 GTP        -0.8705
      4 O3G         5.6816   -3.8135   -7.6639 O.3       1 GTP        -0.7914
      5 O3B         5.4432   -3.5048   -5.2179 O.3       1 GTP        -0.8116
      6 PB          5.5029   -1.8845   -5.0268 P.3       1 GTP         1.6738
      7 O1B         6.8871   -1.5030   -4.5517 O.co2     1 GTP        -0.8763
      8 O2B         4.8681   -1.2222   -6.2294 O.co2     1 GTP        -0.8763
      9 O3A         4.4413   -1.7265   -3.7968 O.3       1 GTP        -0.8005
     10 PA          2.8603   -2.1317   -3.7189 P.3       1 GTP         1.5754
     11 O1A         2.0908   -1.2810   -4.7060 O.co2     1 GTP        -0.8771
     12 O2A         2.7458   -3.6405   -3.7305 O.co2     1 GTP        -0.8771
     13 O5'         2.5245   -1.6648   -2.1878 O.3       1 GTP        -0.5809
     14 C5'         2.2816   -0.2918   -1.9206 C.3       1 GTP         0.1986
     15 C4'         2.7248    0.0226   -0.4980 C.3       1 GTP         0.0418
     16 O4'         2.4697    1.4219   -0.2462 O.3       1 GTP        -0.3505
     17 C3'         1.9404   -0.7419    0.5596 C.3       1 GTP         0.0909
     18 O3'         2.7418   -0.8086    1.7389 O.3       1 GTP        -0.6187
     19 C2'         0.7477    0.1630    0.7858 C.3       1 GTP         0.0706
     20 O2'         0.1373   -0.0577    2.0407 O.3       1 GTP        -0.6294
     21 C1'         1.3733    1.5427    0.6747 C.3       1 GTP         0.3895
     22 N9          0.4520    2.5240    0.1767 N.pl3     1 GTP        -0.4733
     23 C8          0.2012    2.8401   -1.0899 C.ar      1 GTP         0.2958
     24 N7         -0.7168    3.7990   -1.1981 N.pl3     1 GTP        -0.4933
     25 C5         -1.0645    4.1043    0.0896 C.ar      1 GTP        -0.1494
     26 C6         -2.0336    5.0870    0.5973 C.ar      1 GTP         0.7954
     27 O6         -2.6730    5.7839   -0.1834 O.2       1 GTP        -0.5729
     28 N1         -2.1539    5.1517    1.9868 N.2       1 GTP        -0.7443
     29 C2         -1.4288    4.3650    2.7566 C.ar      1 GTP         0.8831
     30 N2         -1.5126    4.3922    4.1250 N.pl3     1 GTP        -0.9204
     31 N3         -0.5167    3.4388    2.2748 N.pl3     1 GTP        -0.7173
     32 C4         -0.3638    3.3392    0.9318 C.ar      1 GTP         0.2626
     33 HOG3        4.7290   -3.9111   -7.8765 H         1 GTP         0.4102
     34 H5'         2.8432    0.3119   -2.6398 H         1 GTP         0.0289
     35 H5''        1.2128   -0.0927   -2.0428 H         1 GTP         0.0289
     36 H4'         3.8044   -0.1397   -0.4040 H         1 GTP         0.2056
     37 H3'         1.6764   -1.7639    0.2728 H         1 GTP         0.1140
     38 HO3'        2.2232   -1.2979    2.3953 H         1 GTP         0.4287
     39 H2'        -0.0011    0.0027    0.0003 H         1 GTP         0.0809
     40 HO2'       -0.6141    0.5574    2.1082 H         1 GTP         0.4385
     41 H1'         1.7826    1.9024    1.6451 H         1 GTP         0.0794
     42 H8          0.6787    2.3803   -1.9373 H         1 GTP         0.3821
     43 HN21       -2.1462    5.0320    4.5446 H         1 GTP         0.4411
     44 HN22       -0.9365    3.7712    4.6440 H         1 GTP         0.4411
     45 H45         0.0318    2.8419    2.8816 H         1 GTP         0.4819
     46 H46        -1.0718    4.2049   -2.0526 H         1 GTP         0.5182
@<TRIPOS>BOND
     1    1    2 2
     2    1    3 1
     3    1    4 1
     4    1    5 1
     5    4   33 1
     6    5    6 1
     7    6    7 2
     8    6    8 1
     9    6    9 1
    10    9   10 1
    11   10   11 2
    12   10   12 1
    13   10   13 1
    14   13   14 1
    15   14   15 1
    16   14   34 1
    17   14   35 1
    18   15   16 1
    19   15   17 1
    20   15   36 1
    21   16   21 1
    22   17   18 1
    23   17   19 1
    24   17   37 1
    25   18   38 1
    26   19   20 1
    27   19   21 1
    28   19   39 1
    29   20   40 1
    30   21   22 1
    31   21   41 1
    32   22   23 ar
    33   22   32 ar
    34   23   24 ar
    35   23   42 1
    36   24   25 ar
    37   24   46 1
    38   25   26 ar
    39   25   32 ar
    40   26   27 2
    41   26   28 ar
    42   28   29 ar
    43   29   30 1
    44   29   31 ar
    45   30   43 1
    46   30   44 1
    47   31   32 ar
    48   31   45 1
@<TRIPOS>SUBSTRUCTURE
     1 GTP         1 GROUP 0 A     ****
@<TRIPOS>MOLECULE
[[[5-(2-amino-6-oxo-7,8-dihydro-3~{H}-purin-8-ylium-9-yl)-3,4-dihydroxy-tetrahydrofuran-2-yl]methoxy-oxido-phosphoryl]oxy-oxido-phosphoryl] hydrogen phosphate
   46    48     1     0     0
SMALL
USER_CHARGES

@<TRIPOS>ATOM
      1 PG          4.2208    1.4323   -5.9598 P.3       1 GTP         1.5447
      2 O1G         4.7767    2.0885   -7.2039 O.co2     1 GTP        -0.8705
      3 O2G         2.7299    1.3730   -5.7123 O.co2     1 GTP        -0.8705
      4 O3G         4.9366    2.1041   -4.6551 O.3       1 GTP        -0.7914
      5 O3B         4.8385   -0.0730   -5.8321 O.3       1 GTP        -0.8116
      6 PB          4.7038   -1.1596   -4.6210 P.3       1 GTP         1.6738
      7 O1B         5.3485   -2.4559   -5.0587 O.co2     1 GTP        -0.8763
      8 O2B         5.0751   -0.4919   -3.3157 O.co2     1 GTP        -0.8763
      9 O3A         3.0809   -1.3355   -4.6062 O.3       1 GTP        -0.8005
     10 PA          2.1372   -2.2718   -3.6563 P.3       1 GTP         1.5754
     11 O1A         0.6864   -1.9828   -3.9759 O.co2     1 GTP        -0.8771
     12 O2A         2.6769   -3.6852   -3.6801 O.co2     1 GTP        -0.8771
     13 O5'         2.5245   -1.6648   -2.1878 O.3       1 GTP        -0.5809
     14 C5'         2.2816   -0.2918   -1.9206 C.3       1 GTP         0.1986
     15 C4'         2.7248    0.0226   -0.4980 C.3       1 GTP         0.0418
     16 O4'         2.4697    1.4219   -0.2462 O.3       1 GTP        -0.3505
     17 C3'         1.9404   -0.7419    0.5596 C.3       1 GTP         0.0909
     18 O3'         2.7418   -0.8086    1.7389 O.3       1 GTP        -0.6187
     19 C2'         0.7477    0.1630    0.7858 C.3       1 GTP         0.0706
     20 O2'         0.1373   -0.0577    2.0407 O.3       1 GTP        -0.6294
     21 C1'         1.3733    1.5427    0.6747 C.3       1 GTP         0.3895
     22 N9          0.4520    2.5240    0.1767 N.pl3     1 GTP        -0.4733
     23 C8          0.2012    2.8401   -1.0899 C.ar      1 GTP         0.2958
     24 N7         -0.7168    3.7990   -1.1981 N.pl3     1 GTP        -0.4933
     25 C5         -1.0645    4.1043    0.0896 C.ar      1 GTP        -0.1494
     26 C6         -2.0336    5.0870    0.5973 C.ar      1 GTP         0.7954
     27 O6         -2.6730    5.7839   -0.1834 O.2       1 GTP        -0.5729
     28 N1         -2.1539    5.1517    1.9868 N.2       1 GTP        -0.7443
     29 C2         -1.4288    4.3650    2.7566 C.ar      1 GTP         0.8831
     30 N2         -1.5126    4.3922    4.1250 N.pl3     1 GTP        -0.9204
     31 N3         -0.5167    3.4388    2.2748 N.pl3     1 GTP        -0.7173
     32 C4         -0.3638    3.3392    0.9318 C.ar      1 GTP         0.2626
     33 HOG3        4.6802    1.7825   -3.7645 H         1 GTP         0.4102
     34 H5'         2.8432    0.3119   -2.6398 H         1 GTP         0.0289
     35 H5''        1.2128   -0.0927   -2.0428 H         1 GTP         0.0289
     36 H4'         3.8044   -0.1397   -0.4040 H         1 GTP         0.2056
     37 H3'         1.6764   -1.7639    0.2728 H         1 GTP         0.1140
     38 HO3'        2.2232   -1.2979    2.3953 H         1 GTP         0.4287
     39 H2'        -0.0011    0.0027    0.0003 H         1 GTP         0.0809
     40 HO2'       -0.6141    0.5574    2.1082 H         1 GTP         0.4385
     41 H1'         1.7826    1.9024    1.6451 H         1 GTP         0.0794
     42 H8          0.6787    2.3803   -1.9373 H         1 GTP         0.3821
     43 HN21       -2.1462    5.0320    4.5446 H         1 GTP         0.4411
     44 HN22       -0.9365    3.7712    4.6440 H         1 GTP         0.4411
     45 H45         0.0318    2.8419    2.8816 H         1 GTP         0.4819
     46 H46        -1.0718    4.2049   -2.0526 H         1 GTP         0.5182
@<TRIPOS>BOND
     1    1    2 2
     2    1    3 1
     3    1    4 1
     4    1    5 1
     5    4   33 1
     6    5    6 1
     7    6    7 2
     8    6    8 1
     9    6    9 1
    10    9   10 1
    11   10   11 2
    12   10   12 1
    13   10   13 1
    14   13   14 1
    15   14   15 1
    16   14   34 1
    17   14   35 1
    18   15   16 1
    19   15   17 1
    20   15   36 1
    21   16   21 1
    22   17   18 1
    23   17   19 1
    24   17   37 1
    25   18   38 1
    26   19   20 1
    27   19   21 1
    28   19   39 1
    29   20   40 1
    30   21   22 1
    31   21   41 1
    32   22   23 ar
    33   22   32 ar
    34   23   24 ar
    35   23   42 1
    36   24   25 ar
    37   24   46 1
    38   25   26 ar
    39   25   32 ar
    40   26   27 2
    41   26   28 ar
    42   28   29 ar
    43   29   30 1
    44   29   31 ar
    45   30   43 1
    46   30   44 1
    47   31   32 ar
    48   31   45 1
@<TRIPOS>SUBSTRUCTURE
     1 GTP         1 GROUP 0 A     ****
@<TRIPOS>MOLECULE
[[[5-(2-amino-6-oxo-7,8-dihydro-3~{H}-purin-8-ylium-9-yl)-3,4-dihydroxy-tetrahydrofuran-2-yl]methoxy-oxido-phosphoryl]oxy-oxido-phosphoryl] hydrogen phosphate
   46    48     1     0     0
SMALL
USER_CHARGES

@<TRIPOS>ATOM
      1 PG          4.5458   -5.7439   -4.2999 P.3       1 GTP         1.5447
      2 O1G         5.5897   -5.7692   -5.3940 O.co2     1 GTP        -0.8705
      3 O2G         4.6128   -6.7113   -3.1392 O.co2     1 GTP        -0.8705
      4 O3G         3.0700   -5.8617   -4.9884 O.3       1 GTP        -0.7914
      5 O3B         4.4249   -4.2247   -3.7160 O.3       1 GTP        -0.8116
      6 PB          5.5080   -3.3379   -2.8756 P.3       1 GTP         1.6738
      7 O1B         5.7293   -3.9912   -1.5296 O.co2     1 GTP        -0.8763
      8 O2B         6.6647   -2.9825   -3.7829 O.co2     1 GTP        -0.8763
      9 O3A         4.6346   -1.9724   -2.6820 O.3       1 GTP        -0.8005
     10 PA          4.0010   -0.9663   -3.8028 P.3       1 GTP         1.5754
     11 O1A         5.1327   -0.3254   -4.5764 O.co2     1 GTP        -0.8771
     12 O2A         2.8739   -1.6823   -4.5145 O.co2     1 GTP        -0.8771
     13 O5'         3.2903    0.1346   -2.8241 O.3       1 GTP        -0.5809
     14 C5'         2.2816   -0.2918   -1.9206 C.3       1 GTP         0.1986
     15 C4'         2.7248    0.0226   -0.4980 C.3       1 GTP         0.0418
     16 O4'         2.4697    1.4219   -0.2462 O.3       1 GTP        -0.3505
     17 C3'         1.9404   -0.7419    0.5596 C.3       1 GTP         0.0909
     18 O3'         2.7418   -0.8086    1.7389 O.3       1 GTP        -0.6187
     19 C2'         0.7477    0.1630    0.7858 C.3       1 GTP         0.0706
     20 O2'         0.1373   -0.0577    2.0407 O.3       1 GTP        -0.6294
     21 C1'         1.3733    1.5427    0.6747 C.3       1 GTP         0.3895
     22 N9          0.4520    2.5240    0.1767 N.pl3     1 GTP        -0.4733
     23 C8          0.2012    2.8401   -1.0899 C.ar      1 GTP         0.2958
     24 N7         -0.7168    3.7990   -1.1981 N.pl3     1 GTP        -0.4933
     25 C5         -1.0645    4.1043    0.0896 C.ar      1 GTP        -0.1494
     26 C6         -2.0336    5.0870    0.5973 C.ar      1 GTP         0.7954
     27 O6         -2.6730    5.7839   -0.1834 O.2       1 GTP        -0.5729
     28 N1         -2.1539    5.1517    1.9868 N.2       1 GTP        -0.7443
     29 C2         -1.4288    4.3650    2.7566 C.ar      1 GTP         0.8831
     30 N2         -1.5126    4.3922    4.1250 N.pl3     1 GTP        -0.9204
     31 N3         -0.5167    3.4388    2.2748 N.pl3     1 GTP        -0.7173
     32 C4         -0.3638    3.3392    0.9318 C.ar      1 GTP         0.2626
     33 HOG3        2.2812   -5.8594   -4.4053 H         1 GTP         0.4102
     34 H5'         1.3514    0.2330   -2.1577 H         1 GTP         0.0289
     35 H5''        2.1280   -1.3678   -2.0460 H         1 GTP         0.0289
     36 H4'         3.8044   -0.1397   -0.4040 H         1 GTP         0.2056
     37 H3'         1.6764   -1.7639    0.2728 H         1 GTP         0.1140
     38 HO3'        2.2232   -1.2979    2.3953 H         1 GTP         0.4287
     39 H2'        -0.0011    0.0027    0.0003 H         1 GTP         0.0809
     40 HO2'       -0.6141    0.5574    2.1082 H         1 GTP         0.4385
     41 H1'         1.7826    1.9024    1.6451 H         1 GTP         0.0794
     42 H8          0.6787    2.3803   -1.9373 H         1 GTP         0.3821
     43 HN21       -2.1462    5.0320    4.5446 H         1 GTP         0.4411
     44 HN22       -0.9365    3.7712    4.6440 H         1 GTP         0.4411
     45 H45         0.0318    2.8419    2.8816 H         1 GTP         0.4819
     46 H46        -1.0718    4.2049   -2.0526 H         1 GTP         0.5182
@<TRIPOS>BOND
     1    1    2 2
     2    1    3 1
     3    1    4 1
     4    1    5 1
     5    4   33 1
     6    5    6 1
     7    6    7 2
     8    6    8 1
     9    6    9 1
    10    9   10 1
    11   10   11 2
    12   10   12 1
    13   10   13 1
    14   13   14 1
    15   14   15 1
    16   14   34 1
    17   14   35 1
    18   15   16 1
    19   15   17 1
    20   15   36 1
    21   16   21 1
    22   17   18 1
    23   17   19 1
    24   17   37 1
    25   18   38 1
    26   19   20 1
    27   19   21 1
    28   19   39 1
    29   20   40 1
    30   21   22 1
    31   21   41 1
    32   22   23 ar
    33   22   32 ar
    34   23   24 ar
    35   23   42 1
    36   24   25 ar
    37   24   46 1
    38   25   26 ar
    39   25   32 ar
    40   26   27 2
    41   26   28 ar
    42   28   29 ar
    43   29   30 1
    44   29   31 ar
    45   30   43 1
    46   30   44 1
    47   31   32 ar
    48   31   45 1
@<TRIPOS>SUBSTRUCTURE
     1 GTP         1 GROUP 0 A     ****
@<TRIPOS>MOLECULE
[[[5-(2-amino-6-oxo-7,8-dihydro-3~{H}-purin-8-ylium-9-yl)-3,4-dihydroxy-tetrahydrofuran-2-yl]methoxy-oxido-phosphoryl]oxy-oxido-phosphoryl] hydrogen phosphate
   46    48     1     0     0
SMALL
USER_CHARGES

@<TRIPOS>ATOM
      1 PG          6.5681   -5.0659   -2.7129 P.3       1 GTP         1.5447
      2 O1G         5.9803   -6.3760   -3.1880 O.co2     1 GTP        -0.8705
      3 O2G         8.0162   -4.7212   -2.9808 O.co2     1 GTP        -0.8705
      4 O3G         6.2891   -4.9231   -1.1105 O.3       1 GTP        -0.7914
      5 O3B         5.6268   -3.8401   -3.2374 O.3       1 GTP        -0.8116
      6 PB          5.7003   -2.2452   -2.8964 P.3       1 GTP         1.6738
      7 O1B         5.3878   -2.0480   -1.4298 O.co2     1 GTP        -0.8763
      8 O2B         6.9465   -1.6632   -3.5256 O.co2     1 GTP        -0.8763
      9 O3A         4.4413   -1.7265   -3.7968 O.3       1 GTP        -0.8005
     10 PA          2.8603   -2.1317   -3.7189 P.3       1 GTP         1.5754
     11 O1A         2.0908   -1.2810   -4.7060 O.co2     1 GTP        -0.8771
     12 O2A         2.7458   -3.6405   -3.7305 O.co2     1 GTP        -0.8771
     13 O5'         2.5245   -1.6648   -2.1878 O.3       1 GTP        -0.5809
     14 C5'         2.2816   -0.2918   -1.9206 C.3       1 GTP         0.1986
     15 C4'         2.7248    0.0226   -0.4980 C.3       1 GTP         0.0418
     16 O4'         2.4697    1.4219   -0.2462 O.3       1 GTP        -0.3505
     17 C3'         1.9404   -0.7419    0.5596 C.3       1 GTP         0.0909
     18 O3'         2.7418   -0.8086    1.7389 O.3       1 GTP        -0.6187
     19 C2'         0.7477    0.1630    0.7858 C.3       1 GTP         0.0706
     20 O2'         0.1373   -0.0577    2.0407 O.3       1 GTP        -0.6294
     21 C1'         1.3733    1.5427    0.6747 C.3       1 GTP         0.3895
     22 N9          0.4520    2.5240    0.1767 N.pl3     1 GTP        -0.4733
     23 C8          0.2012    2.8401   -1.0899 C.ar      1 GTP         0.2958
     24 N7         -0.7168    3.7990   -1.1981 N.pl3     1 GTP        -0.4933
     25 C5         -1.0645    4.1043    0.0896 C.ar      1 GTP        -0.1494
     26 C6         -2.0336    5.0870    0.5973 C.ar      1 GTP         0.7954
     27 O6         -2.6730    5.7839   -0.1834 O.2       1 GTP        -0.5729
     28 N1         -2.1539    5.1517    1.9868 N.2       1 GTP        -0.7443
     29 C2         -1.4288    4.3650    2.7566 C.ar      1 GTP         0.8831
     30 N2         -1.5126    4.3922    4.1250 N.pl3     1 GTP        -0.9204
     31 N3         -0.5167    3.4388    2.2748 N.pl3     1 GTP        -0.7173
     32 C4         -0.3638    3.3392    0.9318 C.ar      1 GTP         0.2626
     33 HOG3        6.6123   -4.1194   -0.6501 H         1 GTP         0.4102
     34 H5'         2.8432    0.3119   -2.6398 H         1 GTP         0.0289
     35 H5''        1.2128   -0.0927   -2.0428 H         1 GTP         0.0289
     36 H4'         3.8044   -0.1397   -0.4040 H         1 GTP         0.2056
     37 H3'         1.6764   -1.7639    0.2728 H         1 GTP         0.1140
     38 HO3'        2.2232   -1.2979    2.3953 H         1 GTP         0.4287
     39 H2'        -0.0011    0.0027    0.0003 H         1 GTP         0.0809
     40 HO2'       -0.6141    0.5574    2.1082 H         1 GTP         0.4385
     41 H1'         1.7826    1.9024    1.6451 H         1 GTP         0.0794
     42 H8          0.6787    2.3803   -1.9373 H         1 GTP         0.3821
     43 HN21       -2.1462    5.0320    4.5446 H         1 GTP         0.4411
     44 HN22       -0.9365    3.7712    4.6440 H         1 GTP         0.4411
     45 H45         0.0318    2.8419    2.8816 H         1 GTP         0.4819
     46 H46        -1.0718    4.2049   -2.0526 H         1 GTP         0.5182
@<TRIPOS>BOND
     1    1    2 2
     2    1    3 1
     3    1    4 1
     4    1    5 1
     5    4   33 1
     6    5    6 1
     7    6    7 2
     8    6    8 1
     9    6    9 1
    10    9   10 1
    11   10   11 2
    12   10   12 1
    13   10   13 1
    14   13   14 1
    15   14   15 1
    16   14   34 1
    17   14   35 1
    18   15   16 1
    19   15   17 1
    20   15   36 1
    21   16   21 1
    22   17   18 1
    23   17   19 1
    24   17   37 1
    25   18   38 1
    26   19   20 1
    27   19   21 1
    28   19   39 1
    29   20   40 1
    30   21   22 1
    31   21   41 1
    32   22   23 ar
    33   22   32 ar
    34   23   24 ar
    35   23   42 1
    36   24   25 ar
    37   24   46 1
    38   25   26 ar
    39   25   32 ar
    40   26   27 2
    41   26   28 ar
    42   28   29 ar
    43   29   30 1
    44   29   31 ar
    45   30   43 1
    46   30   44 1
    47   31   32 ar
    48   31   45 1
@<TRIPOS>SUBSTRUCTURE
     1 GTP         1 GROUP 0 A     ****
@<TRIPOS>MOLECULE
[[[5-(2-amino-6-oxo-7,8-dihydro-3~{H}-purin-8-ylium-9-yl)-3,4-dihydroxy-tetrahydrofuran-2-yl]methoxy-oxido-phosphoryl]oxy-oxido-phosphoryl] hydrogen phosphate
   46    48     1     0     0
SMALL
USER_CHARGES

@<TRIPOS>ATOM
      1 PG          3.3676   -5.4560   -5.4794 P.3       1 GTP         1.5447
      2 O1G         4.1921   -5.4581   -6.7473 O.co2     1 GTP        -0.8705
      3 O2G         3.7674   -6.3016   -4.2909 O.co2     1 GTP        -0.8705
      4 O3G         1.8201   -5.8045   -5.8665 O.3       1 GTP        -0.7914
      5 O3B         3.1571   -3.9148   -4.9853 O.3       1 GTP        -0.8116
      6 PB          2.5837   -2.6233   -5.8030 P.3       1 GTP         1.6738
      7 O1B         3.5508   -2.2857   -6.9159 O.co2     1 GTP        -0.8763
      8 O2B         1.1085   -2.8234   -6.0696 O.co2     1 GTP        -0.8763
      9 O3A         2.6932   -1.4980   -4.6255 O.3       1 GTP        -0.8005
     10 PA          4.0010   -0.9663   -3.8028 P.3       1 GTP         1.5754
     11 O1A         4.5594   -2.1105   -2.9847 O.co2     1 GTP        -0.8771
     12 O2A         4.8809   -0.1785   -4.7487 O.co2     1 GTP        -0.8771
     13 O5'         3.2903    0.1346   -2.8241 O.3       1 GTP        -0.5809
     14 C5'         2.2816   -0.2918   -1.9206 C.3       1 GTP         0.1986
     15 C4'         2.7248    0.0226   -0.4980 C.3       1 GTP         0.0418
     16 O4'         2.4697    1.4219   -0.2462 O.3       1 GTP        -0.3505
     17 C3'         1.9404   -0.7419    0.5596 C.3       1 GTP         0.0909
     18 O3'         2.7418   -0.8086    1.7389 O.3       1 GTP        -0.6187
     19 C2'         0.7477    0.1630    0.7858 C.3       1 GTP         0.0706
     20 O2'         0.1373   -0.0577    2.0407 O.3       1 GTP        -0.6294
     21 C1'         1.3733    1.5427    0.6747 C.3       1 GTP         0.3895
     22 N9          0.4520    2.5240    0.1767 N.pl3     1 GTP        -0.4733
     23 C8          0.2012    2.8401   -1.0899 C.ar      1 GTP         0.2958
     24 N7         -0.7168    3.7990   -1.1981 N.pl3     1 GTP        -0.4933
     25 C5         -1.0645    4.1043    0.0896 C.ar      1 GTP        -0.1494
     26 C6         -2.0336    5.0870    0.5973 C.ar      1 GTP         0.7954
     27 O6         -2.6730    5.7839   -0.1834 O.2       1 GTP        -0.5729
     28 N1         -2.1539    5.1517    1.9868 N.2       1 GTP        -0.7443
     29 C2         -1.4288    4.3650    2.7566 C.ar      1 GTP         0.8831
     30 N2         -1.5126    4.3922    4.1250 N.pl3     1 GTP        -0.9204
     31 N3         -0.5167    3.4388    2.2748 N.pl3     1 GTP        -0.7173
     32 C4         -0.3638    3.3392    0.9318 C.ar      1 GTP         0.2626
     33 HOG3        1.1555   -5.8412   -5.1459 H         1 GTP         0.4102
     34 H5'         1.3514    0.2330   -2.1577 H         1 GTP         0.0289
     35 H5''        2.1280   -1.3678   -2.0460 H         1 GTP         0.0289
     36 H4'         3.8044   -0.1397   -0.4040 H         1 GTP         0.2056
     37 H3'         1.6764   -1.7639    0.2728 H         1 GTP         0.1140
     38 HO3'        2.2232   -1.2979    2.3953 H         1 GTP         0.4287
     39 H2'        -0.0011    0.0027    0.0003 H         1 GTP         0.0809
     40 HO2'       -0.6141    0.5574    2.1082 H         1 GTP         0.4385
     41 H1'         1.7826    1.9024    1.6451 H         1 GTP         0.0794
     42 H8          0.6787    2.3803   -1.9373 H         1 GTP         0.3821
     43 HN21       -2.1462    5.0320    4.5446 H         1 GTP         0.4411
     44 HN22       -0.9365    3.7712    4.6440 H         1 GTP         0.4411
     45 H45         0.0318    2.8419    2.8816 H         1 GTP         0.4819
     46 H46        -1.0718    4.2049   -2.0526 H         1 GTP         0.5182
@<TRIPOS>BOND
     1    1    2 2
     2    1    3 1
     3    1    4 1
     4    1    5 1
     5    4   33 1
     6    5    6 1
     7    6    7 2
     8    6    8 1
     9    6    9 1
    10    9   10 1
    11   10   11 2
    12   10   12 1
    13   10   13 1
    14   13   14 1
    15   14   15 1
    16   14   34 1
    17   14   35 1
    18   15   16 1
    19   15   17 1
    20   15   36 1
    21   16   21 1
    22   17   18 1
    23   17   19 1
    24   17   37 1
    25   18   38 1
    26   19   20 1
    27   19   21 1
    28   19   39 1
    29   20   40 1
    30   21   22 1
    31   21   41 1
    32   22   23 ar
    33   22   32 ar
    34   23   24 ar
    35   23   42 1
    36   24   25 ar
    37   24   46 1
    38   25   26 ar
    39   25   32 ar
    40   26   27 2
    41   26   28 ar
    42   28   29 ar
    43   29   30 1
    44   29   31 ar
    45   30   43 1
    46   30   44 1
    47   31   32 ar
    48   31   45 1
@<TRIPOS>SUBSTRUCTURE
     1 GTP         1 GROUP 0 A     ****
@<TRIPOS>MOLECULE
[[[5-(2-amino-6-oxo-7,8-dihydro-3~{H}-purin-8-ylium-9-yl)-3,4-dihydroxy-tetrahydrofuran-2-yl]methoxy-oxido-phosphoryl]oxy-oxido-phosphoryl] hydrogen phosphate
   46    48     1     0     0
SMALL
USER_CHARGES

@<TRIPOS>ATOM
      1 PG          1.9292   -3.9242   -5.6964 P.3       1 GTP         1.5447
      2 O1G         2.8085   -4.2549   -6.8817 O.co2     1 GTP        -0.8705
      3 O2G         2.5211   -3.7418   -4.3165 O.co2     1 GTP        -0.8705
      4 O3G         0.7389   -5.0381   -5.6068 O.3       1 GTP        -0.7914
      5 O3B         1.0187   -2.6188   -6.0582 O.3       1 GTP        -0.8116
      6 PB          1.4668   -1.0703   -6.3172 P.3       1 GTP         1.6738
      7 O1B         2.5240   -1.0459   -7.3984 O.co2     1 GTP        -0.8763
      8 O2B         0.2284   -0.2060   -6.4010 O.co2     1 GTP        -0.8763
      9 O3A         2.1568   -0.7522   -4.8724 O.3       1 GTP        -0.8005
     10 PA          2.8621    0.6170   -4.3270 P.3       1 GTP         1.5754
     11 O1A         4.0956    0.8937   -5.1591 O.co2     1 GTP        -0.8771
     12 O2A         1.7927    1.6709   -4.1390 O.co2     1 GTP        -0.8771
     13 O5'         3.2903    0.1346   -2.8241 O.3       1 GTP        -0.5809
     14 C5'         2.2816   -0.2918   -1.9206 C.3       1 GTP         0.1986
     15 C4'         2.7248    0.0226   -0.4980 C.3       1 GTP         0.0418
     16 O4'         2.4697    1.4219   -0.2462 O.3       1 GTP        -0.3505
     17 C3'         1.9404   -0.7419    0.5596 C.3       1 GTP         0.0909
     18 O3'         2.7418   -0.8086    1.7389 O.3       1 GTP        -0.6187
     19 C2'         0.7477    0.1630    0.7858 C.3       1 GTP         0.0706
     20 O2'         0.1373   -0.0577    2.0407 O.3       1 GTP        -0.6294
     21 C1'         1.3733    1.5427    0.6747 C.3       1 GTP         0.3895
     22 N9          0.4520    2.5240    0.1767 N.pl3     1 GTP        -0.4733
     23 C8          0.2012    2.8401   -1.0899 C.ar      1 GTP         0.2958
     24 N7         -0.7168    3.7990   -1.1981 N.pl3     1 GTP        -0.4933
     25 C5         -1.0645    4.1043    0.0896 C.ar      1 GTP        -0.1494
     26 C6         -2.0336    5.0870    0.5973 C.ar      1 GTP         0.7954
     27 O6         -2.6730    5.7839   -0.1834 O.2       1 GTP        -0.5729
     28 N1         -2.1539    5.1517    1.9868 N.2       1 GTP        -0.7443
     29 C2         -1.4288    4.3650    2.7566 C.ar      1 GTP         0.8831
     30 N2         -1.5126    4.3922    4.1250 N.pl3     1 GTP        -0.9204
     31 N3         -0.5167    3.4388    2.2748 N.pl3     1 GTP        -0.7173
     32 C4         -0.3638    3.3392    0.9318 C.ar      1 GTP         0.2626
     33 HOG3        0.0802   -4.9605   -4.8840 H         1 GTP         0.4102
     34 H5'         1.3514    0.2330   -2.1577 H         1 GTP         0.0289
     35 H5''        2.1280   -1.3678   -2.0460 H         1 GTP         0.0289
     36 H4'         3.8044   -0.1397   -0.4040 H         1 GTP         0.2056
     37 H3'         1.6764   -1.7639    0.2728 H         1 GTP         0.1140
     38 HO3'        3.5554   -1.2733    1.4914 H         1 GTP         0.4287
     39 H2'        -0.0011    0.0027    0.0003 H         1 GTP         0.0809
     40 HO2'       -0.1563   -0.9855    2.0596 H         1 GTP         0.4385
     41 H1'         1.7826    1.9024    1.6451 H         1 GTP         0.0794
     42 H8          0.6787    2.3803   -1.9373 H         1 GTP         0.3821
     43 HN21       -2.1462    5.0320    4.5446 H         1 GTP         0.4411
     44 HN22       -0.9365    3.7712    4.6440 H         1 GTP         0.4411
     45 H45         0.0318    2.8419    2.8816 H         1 GTP         0.4819
     46 H46        -1.0718    4.2049   -2.0526 H         1 GTP         0.5182
@<TRIPOS>BOND
     1    1    2 2
     2    1    3 1
     3    1    4 1
     4    1    5 1
     5    4   33 1
     6    5    6 1
     7    6    7 2
     8    6    8 1
     9    6    9 1
    10    9   10 1
    11   10   11 2
    12   10   12 1
    13   10   13 1
    14   13   14 1
    15   14   15 1
    16   14   34 1
    17   14   35 1
    18   15   16 1
    19   15   17 1
    20   15   36 1
    21   16   21 1
    22   17   18 1
    23   17   19 1
    24   17   37 1
    25   18   38 1
    26   19   20 1
    27   19   21 1
    28   19   39 1
    29   20   40 1
    30   21   22 1
    31   21   41 1
    32   22   23 ar
    33   22   32 ar
    34   23   24 ar
    35   23   42 1
    36   24   25 ar
    37   24   46 1
    38   25   26 ar
    39   25   32 ar
    40   26   27 2
    41   26   28 ar
    42   28   29 ar
    43   29   30 1
    44   29   31 ar
    45   30   43 1
    46   30   44 1
    47   31   32 ar
    48   31   45 1
@<TRIPOS>SUBSTRUCTURE
     1 GTP         1 GROUP 0 A     ****
@<TRIPOS>MOLECULE
[[[5-(2-amino-6-oxo-7,8-dihydro-3~{H}-purin-8-ylium-9-yl)-3,4-dihydroxy-tetrahydrofuran-2-yl]methoxy-oxido-phosphoryl]oxy-oxido-phosphoryl] hydrogen phosphate
   46    48     1     0     0
SMALL
USER_CHARGES

@<TRIPOS>ATOM
      1 PG         -3.3259   -2.4015   -4.0695 P.3       1 GTP         1.5447
      2 O1G        -3.8716   -1.3103   -4.9633 O.co2     1 GTP        -0.8705
      3 O2G        -3.5618   -3.8605   -4.3914 O.co2     1 GTP        -0.8705
      4 O3G        -3.8281   -2.1200   -2.5416 O.3       1 GTP        -0.7914
      5 O3B        -1.7266   -2.1597   -3.8519 O.3       1 GTP        -0.8116
      6 PB         -0.4993   -2.2519   -4.9247 P.3       1 GTP         1.6738
      7 O1B        -0.3656   -3.6859   -5.3864 O.co2     1 GTP        -0.8763
      8 O2B        -0.6189   -1.1107   -5.9101 O.co2     1 GTP        -0.8763
      9 O3A         0.7434   -1.8799   -3.9337 O.3       1 GTP        -0.8005
     10 PA          1.2681   -2.6345   -2.5827 P.3       1 GTP         1.5754
     11 O1A         0.1879   -2.5477   -1.5263 O.co2     1 GTP        -0.8771
     12 O2A         1.8736   -3.9646   -2.9750 O.co2     1 GTP        -0.8771
     13 O5'         2.5245   -1.6648   -2.1878 O.3       1 GTP        -0.5809
     14 C5'         2.2816   -0.2918   -1.9206 C.3       1 GTP         0.1986
     15 C4'         2.7248    0.0226   -0.4980 C.3       1 GTP         0.0418
     16 O4'         2.4697    1.4219   -0.2462 O.3       1 GTP        -0.3505
     17 C3'         1.9404   -0.7419    0.5596 C.3       1 GTP         0.0909
     18 O3'         2.7418   -0.8086    1.7389 O.3       1 GTP        -0.6187
     19 C2'         0.7477    0.1630    0.7858 C.3       1 GTP         0.0706
     20 O2'         0.1373   -0.0577    2.0407 O.3       1 GTP        -0.6294
     21 C1'         1.3733    1.5427    0.6747 C.3       1 GTP         0.3895
     22 N9          0.4520    2.5240    0.1767 N.pl3     1 GTP        -0.4733
     23 C8          0.2012    2.8401   -1.0899 C.ar      1 GTP         0.2958
     24 N7         -0.7168    3.7990   -1.1981 N.pl3     1 GTP        -0.4933
     25 C5         -1.0645    4.1043    0.0896 C.ar      1 GTP        -0.1494
     26 C6         -2.0336    5.0870    0.5973 C.ar      1 GTP         0.7954
     27 O6         -2.6730    5.7839   -0.1834 O.2       1 GTP        -0.5729
     28 N1         -2.1539    5.1517    1.9868 N.2       1 GTP        -0.7443
     29 C2         -1.4288    4.3650    2.7566 C.ar      1 GTP         0.8831
     30 N2         -1.5126    4.3922    4.1250 N.pl3     1 GTP        -0.9204
     31 N3         -0.5167    3.4388    2.2748 N.pl3     1 GTP        -0.7173
     32 C4         -0.3638    3.3392    0.9318 C.ar      1 GTP         0.2626
     33 HOG3       -3.5546   -2.7458   -1.8374 H         1 GTP         0.4102
     34 H5'         2.8432    0.3119   -2.6398 H         1 GTP         0.0289
     35 H5''        1.2128   -0.0927   -2.0428 H         1 GTP         0.0289
     36 H4'         3.8044   -0.1397   -0.4040 H         1 GTP         0.2056
     37 H3'         1.6764   -1.7639    0.2728 H         1 GTP         0.1140
     38 HO3'        2.2232   -1.2979    2.3953 H         1 GTP         0.4287
     39 H2'        -0.0011    0.0027    0.0003 H         1 GTP         0.0809
     40 HO2'       -0.6141    0.5574    2.1082 H         1 GTP         0.4385
     41 H1'         1.7826    1.9024    1.6451 H         1 GTP         0.0794
     42 H8          0.6787    2.3803   -1.9373 H         1 GTP         0.3821
     43 HN21       -2.1462    5.0320    4.5446 H         1 GTP         0.4411
     44 HN22       -0.9365    3.7712    4.6440 H         1 GTP         0.4411
     45 H45         0.0318    2.8419    2.8816 H         1 GTP         0.4819
     46 H46        -1.0718    4.2049   -2.0526 H         1 GTP         0.5182
@<TRIPOS>BOND
     1    1    2 2
     2    1    3 1
     3    1    4 1
     4    1    5 1
     5    4   33 1
     6    5    6 1
     7    6    7 2
     8    6    8 1
     9    6    9 1
    10    9   10 1
    11   10   11 2
    12   10   12 1
    13   10   13 1
    14   13   14 1
    15   14   15 1
    16   14   34 1
    17   14   35 1
    18   15   16 1
    19   15   17 1
    20   15   36 1
    21   16   21 1
    22   17   18 1
    23   17   19 1
    24   17   37 1
    25   18   38 1
    26   19   20 1
    27   19   21 1
    28   19   39 1
    29   20   40 1
    30   21   22 1
    31   21   41 1
    32   22   23 ar
    33   22   32 ar
    34   23   24 ar
    35   23   42 1
    36   24   25 ar
    37   24   46 1
    38   25   26 ar
    39   25   32 ar
    40   26   27 2
    41   26   28 ar
    42   28   29 ar
    43   29   30 1
    44   29   31 ar
    45   30   43 1
    46   30   44 1
    47   31   32 ar
    48   31   45 1
@<TRIPOS>SUBSTRUCTURE
     1 GTP         1 GROUP 0 A     ****
@<TRIPOS>MOLECULE
[[[5-(2-amino-6-oxo-7,8-dihydro-3~{H}-purin-8-ylium-9-yl)-3,4-dihydroxy-tetrahydrofuran-2-yl]methoxy-oxido-phosphoryl]oxy-oxido-phosphoryl] hydrogen phosphate
   46    48     1     0     0
SMALL
USER_CHARGES

@<TRIPOS>ATOM
      1 PG         -3.0630   -2.6615   -4.6570 P.3       1 GTP         1.5447
      2 O1G        -3.1909   -1.4263   -5.5204 O.co2     1 GTP        -0.8705
      3 O2G        -3.1639   -4.0450   -5.2599 O.co2     1 GTP        -0.8705
      4 O3G        -4.1357   -2.5508   -3.4311 O.3       1 GTP        -0.7914
      5 O3B        -1.6848   -2.5622   -3.7885 O.3       1 GTP        -0.8116
      6 PB         -1.1267   -3.5300   -2.5979 P.3       1 GTP         1.6738
      7 O1B        -2.0538   -3.4189   -1.4081 O.co2     1 GTP        -0.8763
      8 O2B        -0.7525   -4.8716   -3.1875 O.co2     1 GTP        -0.8763
      9 O3A         0.2753   -2.7606   -2.2705 O.3       1 GTP        -0.8005
     10 PA          1.5544   -2.4558   -3.2404 P.3       1 GTP         1.5754
     11 O1A         2.1833   -3.7718   -3.6442 O.co2     1 GTP        -0.8771
     12 O2A         1.1428   -1.4344   -4.2782 O.co2     1 GTP        -0.8771
     13 O5'         2.5245   -1.6648   -2.1878 O.3       1 GTP        -0.5809
     14 C5'         2.2816   -0.2918   -1.9206 C.3       1 GTP         0.1986
     15 C4'         2.7248    0.0226   -0.4980 C.3       1 GTP         0.0418
     16 O4'         2.4697    1.4219   -0.2462 O.3       1 GTP        -0.3505
     17 C3'         1.9404   -0.7419    0.5596 C.3       1 GTP         0.0909
     18 O3'         2.7418   -0.8086    1.7389 O.3       1 GTP        -0.6187
     19 C2'         0.7477    0.1630    0.7858 C.3       1 GTP         0.0706
     20 O2'         0.1373   -0.0577    2.0407 O.3       1 GTP        -0.6294
     21 C1'         1.3733    1.5427    0.6747 C.3       1 GTP         0.3895
     22 N9          0.4520    2.5240    0.1767 N.pl3     1 GTP        -0.4733
     23 C8          0.2012    2.8401   -1.0899 C.ar      1 GTP         0.2958
     24 N7         -0.7168    3.7990   -1.1981 N.pl3     1 GTP        -0.4933
     25 C5         -1.0645    4.1043    0.0896 C.ar      1 GTP        -0.1494
     26 C6         -2.0336    5.0870    0.5973 C.ar      1 GTP         0.7954
     27 O6         -2.6730    5.7839   -0.1834 O.2       1 GTP        -0.5729
     28 N1         -2.1539    5.1517    1.9868 N.2       1 GTP        -0.7443
     29 C2         -1.4288    4.3650    2.7566 C.ar      1 GTP         0.8831
     30 N2         -1.5126    4.3922    4.1250 N.pl3     1 GTP        -0.9204
     31 N3         -0.5167    3.4388    2.2748 N.pl3     1 GTP        -0.7173
     32 C4         -0.3638    3.3392    0.9318 C.ar      1 GTP         0.2626
     33 HOG3       -4.1757   -3.2818   -2.7782 H         1 GTP         0.4102
     34 H5'         2.8432    0.3119   -2.6398 H         1 GTP         0.0289
     35 H5''        1.2128   -0.0927   -2.0428 H         1 GTP         0.0289
     36 H4'         3.8044   -0.1397   -0.4040 H         1 GTP         0.2056
     37 H3'         1.6764   -1.7639    0.2728 H         1 GTP         0.1140
     38 HO3'        2.2232   -1.2979    2.3953 H         1 GTP         0.4287
     39 H2'        -0.0011    0.0027    0.0003 H         1 GTP         0.0809
     40 HO2'       -0.1563   -0.9855    2.0596 H         1 GTP         0.4385
     41 H1'         1.7826    1.9024    1.6451 H         1 GTP         0.0794
     42 H8          0.6787    2.3803   -1.9373 H         1 GTP         0.3821
     43 HN21       -2.1462    5.0320    4.5446 H         1 GTP         0.4411
     44 HN22       -0.9365    3.7712    4.6440 H         1 GTP         0.4411
     45 H45         0.0318    2.8419    2.8816 H         1 GTP         0.4819
     46 H46        -1.0718    4.2049   -2.0526 H         1 GTP         0.5182
@<TRIPOS>BOND
     1    1    2 2
     2    1    3 1
     3    1    4 1
     4    1    5 1
     5    4   33 1
     6    5    6 1
     7    6    7 2
     8    6    8 1
     9    6    9 1
    10    9   10 1
    11   10   11 2
    12   10   12 1
    13   10   13 1
    14   13   14 1
    15   14   15 1
    16   14   34 1
    17   14   35 1
    18   15   16 1
    19   15   17 1
    20   15   36 1
    21   16   21 1
    22   17   18 1
    23   17   19 1
    24   17   37 1
    25   18   38 1
    26   19   20 1
    27   19   21 1
    28   19   39 1
    29   20   40 1
    30   21   22 1
    31   21   41 1
    32   22   23 ar
    33   22   32 ar
    34   23   24 ar
    35   23   42 1
    36   24   25 ar
    37   24   46 1
    38   25   26 ar
    39   25   32 ar
    40   26   27 2
    41   26   28 ar
    42   28   29 ar
    43   29   30 1
    44   29   31 ar
    45   30   43 1
    46   30   44 1
    47   31   32 ar
    48   31   45 1
@<TRIPOS>SUBSTRUCTURE
     1 GTP         1 GROUP 0 A     ****
@<TRIPOS>MOLECULE
[[[5-(2-amino-6-oxo-7,8-dihydro-3~{H}-purin-8-ylium-9-yl)-3,4-dihydroxy-tetrahydrofuran-2-yl]methoxy-oxido-phosphoryl]oxy-oxido-phosphoryl] hydrogen phosphate
   46    48     1     0     0
SMALL
USER_CHARGES

@<TRIPOS>ATOM
      1 PG         -6.9867   -4.3900    3.9703 P.3       1 GTP         1.5447
      2 O1G        -7.9088   -5.4443    3.3997 O.co2     1 GTP        -0.8705
      3 O2G        -6.9804   -4.0820    5.4511 O.co2     1 GTP        -0.8705
      4 O3G        -7.2225   -2.9969    3.1520 O.3       1 GTP        -0.7914
      5 O3B        -5.4591   -4.7034    3.4887 O.3       1 GTP        -0.8116
      6 PB         -4.4764   -5.9495    3.8722 P.3       1 GTP         1.6738
      7 O1B        -4.1484   -5.8723    5.3466 O.co2     1 GTP        -0.8763
      8 O2B        -5.0182   -7.2155    3.2468 O.co2     1 GTP        -0.8763
      9 O3A        -3.1638   -5.5263    2.9987 O.3       1 GTP        -0.8005
     10 PA         -1.7207   -6.2770    2.8455 P.3       1 GTP         1.5754
     11 O1A        -1.0265   -6.2759    4.1903 O.co2     1 GTP        -0.8771
     12 O2A        -1.9224   -7.5608    2.0704 O.co2     1 GTP        -0.8771
     13 O5'        -0.9724   -5.2440    1.8220 O.3       1 GTP        -0.5809
     14 C5'        -0.7840   -3.8935    2.2172 C.3       1 GTP         0.1986
     15 C4'        -0.0724   -3.1466    1.1027 C.3       1 GTP         0.0418
     16 O4'        -0.8674   -3.1929   -0.0945 O.3       1 GTP        -0.3505
     17 C3'         0.1338   -1.6715    1.4027 C.3       1 GTP         0.0909
     18 O3'         1.2893   -1.4445    2.1808 O.3       1 GTP        -0.6187
     19 C2'         0.2158   -1.0724    0.0128 C.3       1 GTP         0.0706
     20 O2'         1.5141   -1.2448   -0.5513 O.3       1 GTP        -0.6294
     21 C1'        -0.7897   -1.9176   -0.7583 C.3       1 GTP         0.3895
     22 N9         -2.1040   -1.3333   -0.7704 N.pl3     1 GTP        -0.4733
     23 C8         -3.0774   -1.4939    0.1205 C.ar      1 GTP         0.2958
     24 N7         -4.1709   -0.8031   -0.1972 N.pl3     1 GTP        -0.4933
     25 C5         -3.8606   -0.1662   -1.3678 C.ar      1 GTP        -0.1494
     26 C6         -4.6738    0.7391   -2.1934 C.ar      1 GTP         0.7954
     27 O6         -5.8186    1.0214   -1.8562 O.2       1 GTP        -0.5729
     28 N1         -4.0520    1.2260   -3.3448 N.2       1 GTP        -0.7443
     29 C2         -2.8155    0.8734   -3.6351 C.ar      1 GTP         0.8831
     30 N2         -2.1637    1.3257   -4.7536 N.pl3     1 GTP        -0.9204
     31 N3         -2.0511    0.0205   -2.8541 N.pl3     1 GTP        -0.7173
     32 C4         -2.6117   -0.4790   -1.7258 C.ar      1 GTP         0.2626
     33 HOG3       -6.6935   -2.2109    3.4061 H         1 GTP         0.4102
     34 H5'        -1.7618   -3.4448    2.4164 H         1 GTP         0.0289
     35 H5''       -0.1874   -3.8744    3.1341 H         1 GTP         0.0289
     36 H4'         0.8874   -3.6466    0.8805 H         1 GTP         0.2056
     37 H3'        -0.7376   -1.2333    1.9867 H         1 GTP         0.1140
     38 HO3'        1.3408   -0.4870    2.3219 H         1 GTP         0.4287
     39 H2'        -0.0384   -0.0310    0.0096 H         1 GTP         0.0809
     40 HO2'        2.1463   -0.7958    0.0370 H         1 GTP         0.4385
     41 H1'        -0.4769   -2.1002   -1.8093 H         1 GTP         0.0794
     42 H8         -3.0010   -2.1083    1.0004 H         1 GTP         0.3821
     43 HN21       -2.6485    1.9422   -5.3633 H         1 GTP         0.4411
     44 HN22       -1.2319    1.0195   -4.9110 H         1 GTP         0.4411
     45 H45        -1.1018   -0.2391   -3.0927 H         1 GTP         0.4819
     46 H46        -5.0365   -0.7653    0.3226 H         1 GTP         0.5182
@<TRIPOS>BOND
     1    1    2 2
     2    1    3 1
     3    1    4 1
     4    1    5 1
     5    4   33 1
     6    5    6 1
     7    6    7 2
     8    6    8 1
     9    6    9 1
    10    9   10 1
    11   10   11 2
    12   10   12 1
    13   10   13 1
    14   13   14 1
    15   14   15 1
    16   14   34 1
    17   14   35 1
    18   15   16 1
    19   15   17 1
    20   15   36 1
    21   16   21 1
    22   17   18 1
    23   17   19 1
    24   17   37 1
    25   18   38 1
    26   19   20 1
    27   19   21 1
    28   19   39 1
    29   20   40 1
    30   21   22 1
    31   21   41 1
    32   22   23 ar
    33   22   32 ar
    34   23   24 ar
    35   23   42 1
    36   24   25 ar
    37   24   46 1
    38   25   26 ar
    39   25   32 ar
    40   26   27 2
    41   26   28 ar
    42   28   29 ar
    43   29   30 1
    44   29   31 ar
    45   30   43 1
    46   30   44 1
    47   31   32 ar
    48   31   45 1
@<TRIPOS>SUBSTRUCTURE
     1 GTP         1 GROUP 0 A     ****
@<TRIPOS>MOLECULE
[[[5-(2-amino-6-oxo-7,8-dihydro-3~{H}-purin-8-ylium-9-yl)-3,4-dihydroxy-tetrahydrofuran-2-yl]methoxy-oxido-phosphoryl]oxy-oxido-phosphoryl] hydrogen phosphate
   46    48     1     0     0
SMALL
USER_CHARGES

@<TRIPOS>ATOM
      1 PG          1.9184    2.3752   -8.4284 P.3       1 GTP         1.5447
      2 O1G         3.2074    3.1017   -8.7417 O.co2     1 GTP        -0.8705
      3 O2G         1.3938    1.2925   -9.3451 O.co2     1 GTP        -0.8705
      4 O3G         0.7395    3.4829   -8.2067 O.3       1 GTP        -0.7914
      5 O3B         1.9953    1.7890   -6.9072 O.3       1 GTP        -0.8116
      6 PB          0.8432    1.0629   -6.0066 P.3       1 GTP         1.6738
      7 O1B        -0.2508    2.0666   -5.7179 O.co2     1 GTP        -0.8763
      8 O2B         0.5361   -0.2943   -6.5994 O.co2     1 GTP        -0.8763
      9 O3A         1.7058    0.7905   -4.6478 O.3       1 GTP        -0.8005
     10 PA          3.0675   -0.0857   -4.4293 P.3       1 GTP         1.5754
     11 O1A         2.7628   -1.5391   -4.7208 O.co2     1 GTP        -0.8771
     12 O2A         4.2157    0.6251   -5.1122 O.co2     1 GTP        -0.8771
     13 O5'         3.2903    0.1346   -2.8241 O.3       1 GTP        -0.5809
     14 C5'         2.2816   -0.2918   -1.9206 C.3       1 GTP         0.1986
     15 C4'         2.7248    0.0226   -0.4980 C.3       1 GTP         0.0418
     16 O4'         2.4697    1.4219   -0.2462 O.3       1 GTP        -0.3505
     17 C3'         1.9404   -0.7419    0.5596 C.3       1 GTP         0.0909
     18 O3'         2.7418   -0.8086    1.7389 O.3       1 GTP        -0.6187
     19 C2'         0.7477    0.1630    0.7858 C.3       1 GTP         0.0706
     20 O2'         0.1373   -0.0577    2.0407 O.3       1 GTP        -0.6294
     21 C1'         1.3733    1.5427    0.6747 C.3       1 GTP         0.3895
     22 N9          0.4520    2.5240    0.1767 N.pl3     1 GTP        -0.4733
     23 C8          0.5427    3.2356   -0.9425 C.ar      1 GTP         0.2958
     24 N7         -0.4919    4.0590   -1.1018 N.pl3     1 GTP        -0.4933
     25 C5         -1.2850    3.8484   -0.0069 C.ar      1 GTP        -0.1494
     26 C6         -2.5644    4.4707    0.3650 C.ar      1 GTP         0.7954
     27 O6         -3.0718    5.3200   -0.3599 O.2       1 GTP        -0.5729
     28 N1         -3.1239    4.0269    1.5647 N.2       1 GTP        -0.7443
     29 C2         -2.5133    3.1079    2.2858 C.ar      1 GTP         0.8831
     30 N2         -3.0239    2.6409    3.4697 N.pl3     1 GTP        -0.9204
     31 N3         -1.3076    2.5223    1.9320 N.pl3     1 GTP        -0.7173
     32 C4         -0.7246    2.9211    0.7753 C.ar      1 GTP         0.2626
     33 HOG3       -0.1644    3.1666   -7.9940 H         1 GTP         0.4102
     34 H5'         1.3514    0.2330   -2.1577 H         1 GTP         0.0289
     35 H5''        2.1280   -1.3678   -2.0460 H         1 GTP         0.0289
     36 H4'         3.8044   -0.1397   -0.4040 H         1 GTP         0.2056
     37 H3'         1.6764   -1.7639    0.2728 H         1 GTP         0.1140
     38 HO3'        2.2232   -1.2979    2.3953 H         1 GTP         0.4287
     39 H2'        -0.0011    0.0027    0.0003 H         1 GTP         0.0809
     40 HO2'       -0.1563   -0.9855    2.0596 H         1 GTP         0.4385
     41 H1'         1.7826    1.9024    1.6451 H         1 GTP         0.0794
     42 H8          1.3539    3.1622   -1.6455 H         1 GTP         0.3821
     43 HN21       -3.8871    3.0143    3.7893 H         1 GTP         0.4411
     44 HN22       -2.5108    1.9472    3.9621 H         1 GTP         0.4411
     45 H45        -0.8530    1.8168    2.4986 H         1 GTP         0.4819
     46 H46        -0.6466    4.6966   -1.8702 H         1 GTP         0.5182
@<TRIPOS>BOND
     1    1    2 2
     2    1    3 1
     3    1    4 1
     4    1    5 1
     5    4   33 1
     6    5    6 1
     7    6    7 2
     8    6    8 1
     9    6    9 1
    10    9   10 1
    11   10   11 2
    12   10   12 1
    13   10   13 1
    14   13   14 1
    15   14   15 1
    16   14   34 1
    17   14   35 1
    18   15   16 1
    19   15   17 1
    20   15   36 1
    21   16   21 1
    22   17   18 1
    23   17   19 1
    24   17   37 1
    25   18   38 1
    26   19   20 1
    27   19   21 1
    28   19   39 1
    29   20   40 1
    30   21   22 1
    31   21   41 1
    32   22   23 ar
    33   22   32 ar
    34   23   24 ar
    35   23   42 1
    36   24   25 ar
    37   24   46 1
    38   25   26 ar
    39   25   32 ar
    40   26   27 2
    41   26   28 ar
    42   28   29 ar
    43   29   30 1
    44   29   31 ar
    45   30   43 1
    46   30   44 1
    47   31   32 ar
    48   31   45 1
@<TRIPOS>SUBSTRUCTURE
     1 GTP         1 GROUP 0 A     ****
@<TRIPOS>MOLECULE
[[[5-(2-amino-6-oxo-7,8-dihydro-3~{H}-purin-8-ylium-9-yl)-3,4-dihydroxy-tetrahydrofuran-2-yl]methoxy-oxido-phosphoryl]oxy-oxido-phosphoryl] hydrogen phosphate
   46    48     1     0     0
SMALL
USER_CHARGES

@<TRIPOS>ATOM
      1 PG          1.4144    1.0318   -6.4531 P.3       1 GTP         1.5447
      2 O1G         0.2336    1.6606   -5.7477 O.co2     1 GTP        -0.8705
      3 O2G         2.8316    1.3542   -6.0347 O.co2     1 GTP        -0.8705
      4 O3G         1.2705    1.3116   -8.0553 O.3       1 GTP        -0.7914
      5 O3B         1.2229   -0.5890   -6.4677 O.3       1 GTP        -0.8116
      6 PB          1.2344   -1.6547   -5.2309 P.3       1 GTP         1.6738
      7 O1B         0.2210   -1.2114   -4.1995 O.co2     1 GTP        -0.8763
      8 O2B         1.2319   -3.0598   -5.7905 O.co2     1 GTP        -0.8763
      9 O3A         2.7418   -1.3839   -4.6658 O.3       1 GTP        -0.8005
     10 PA          3.5300   -2.0730   -3.4114 P.3       1 GTP         1.5754
     11 O1A         3.5355   -3.5739   -3.6057 O.co2     1 GTP        -0.8771
     12 O2A         4.8145   -1.3109   -3.1689 O.co2     1 GTP        -0.8771
     13 O5'         2.5245   -1.6648   -2.1878 O.3       1 GTP        -0.5809
     14 C5'         2.2816   -0.2918   -1.9206 C.3       1 GTP         0.1986
     15 C4'         2.7248    0.0226   -0.4980 C.3       1 GTP         0.0418
     16 O4'         2.4697    1.4219   -0.2462 O.3       1 GTP        -0.3505
     17 C3'         1.9404   -0.7419    0.5596 C.3       1 GTP         0.0909
     18 O3'         2.7418   -0.8086    1.7389 O.3       1 GTP        -0.6187
     19 C2'         0.7477    0.1630    0.7858 C.3       1 GTP         0.0706
     20 O2'         0.1373   -0.0577    2.0407 O.3       1 GTP        -0.6294
     21 C1'         1.3733    1.5427    0.6747 C.3       1 GTP         0.3895
     22 N9          0.4520    2.5240    0.1767 N.pl3     1 GTP        -0.4733
     23 C8          0.2012    2.8401   -1.0899 C.ar      1 GTP         0.2958
     24 N7         -0.7168    3.7990   -1.1981 N.pl3     1 GTP        -0.4933
     25 C5         -1.0645    4.1043    0.0896 C.ar      1 GTP        -0.1494
     26 C6         -2.0336    5.0870    0.5973 C.ar      1 GTP         0.7954
     27 O6         -2.6730    5.7839   -0.1834 O.2       1 GTP        -0.5729
     28 N1         -2.1539    5.1517    1.9868 N.2       1 GTP        -0.7443
     29 C2         -1.4288    4.3650    2.7566 C.ar      1 GTP         0.8831
     30 N2         -1.5126    4.3922    4.1250 N.pl3     1 GTP        -0.9204
     31 N3         -0.5167    3.4388    2.2748 N.pl3     1 GTP        -0.7173
     32 C4         -0.3638    3.3392    0.9318 C.ar      1 GTP         0.2626
     33 HOG3        1.9652    0.9638   -8.6542 H         1 GTP         0.4102
     34 H5'         2.8432    0.3119   -2.6398 H         1 GTP         0.0289
     35 H5''        1.2128   -0.0927   -2.0428 H         1 GTP         0.0289
     36 H4'         3.8044   -0.1397   -0.4040 H         1 GTP         0.2056
     37 H3'         1.6764   -1.7639    0.2728 H         1 GTP         0.1140
     38 HO3'        2.2232   -1.2979    2.3953 H         1 GTP         0.4287
     39 H2'        -0.0011    0.0027    0.0003 H         1 GTP         0.0809
     40 HO2'       -0.1563   -0.9855    2.0596 H         1 GTP         0.4385
     41 H1'         1.7826    1.9024    1.6451 H         1 GTP         0.0794
     42 H8          0.6787    2.3803   -1.9373 H         1 GTP         0.3821
     43 HN21       -2.1462    5.0320    4.5446 H         1 GTP         0.4411
     44 HN22       -0.9365    3.7712    4.6440 H         1 GTP         0.4411
     45 H45         0.0318    2.8419    2.8816 H         1 GTP         0.4819
     46 H46        -1.0718    4.2049   -2.0526 H         1 GTP         0.5182
@<TRIPOS>BOND
     1    1    2 2
     2    1    3 1
     3    1    4 1
     4    1    5 1
     5    4   33 1
     6    5    6 1
     7    6    7 2
     8    6    8 1
     9    6    9 1
    10    9   10 1
    11   10   11 2
    12   10   12 1
    13   10   13 1
    14   13   14 1
    15   14   15 1
    16   14   34 1
    17   14   35 1
    18   15   16 1
    19   15   17 1
    20   15   36 1
    21   16   21 1
    22   17   18 1
    23   17   19 1
    24   17   37 1
    25   18   38 1
    26   19   20 1
    27   19   21 1
    28   19   39 1
    29   20   40 1
    30   21   22 1
    31   21   41 1
    32   22   23 ar
    33   22   32 ar
    34   23   24 ar
    35   23   42 1
    36   24   25 ar
    37   24   46 1
    38   25   26 ar
    39   25   32 ar
    40   26   27 2
    41   26   28 ar
    42   28   29 ar
    43   29   30 1
    44   29   31 ar
    45   30   43 1
    46   30   44 1
    47   31   32 ar
    48   31   45 1
@<TRIPOS>SUBSTRUCTURE
     1 GTP         1 GROUP 0 A     ****
@<TRIPOS>MOLECULE
[[[5-(2-amino-6-oxo-7,8-dihydro-3~{H}-purin-8-ylium-9-yl)-3,4-dihydroxy-tetrahydrofuran-2-yl]methoxy-oxido-phosphoryl]oxy-oxido-phosphoryl] hydrogen phosphate
   46    48     1     0     0
SMALL
USER_CHARGES

@<TRIPOS>ATOM
      1 PG         -0.4215    0.5794   -5.7739 P.3       1 GTP         1.5447
      2 O1G         0.5488    0.9663   -4.6801 O.co2     1 GTP        -0.8705
      3 O2G        -0.3891    1.2672   -7.1207 O.co2     1 GTP        -0.8705
      4 O3G        -1.9390    0.6756   -5.1791 O.3       1 GTP        -0.7914
      5 O3B        -0.3480   -1.0349   -6.0026 O.3       1 GTP        -0.8116
      6 PB         -0.4993   -2.2519   -4.9247 P.3       1 GTP         1.6738
      7 O1B        -1.8060   -2.0822   -4.1822 O.co2     1 GTP        -0.8763
      8 O2B        -0.1352   -3.5559   -5.5988 O.co2     1 GTP        -0.8763
      9 O3A         0.7434   -1.8799   -3.9337 O.3       1 GTP        -0.8005
     10 PA          1.2681   -2.6345   -2.5827 P.3       1 GTP         1.5754
     11 O1A         0.1879   -2.5477   -1.5263 O.co2     1 GTP        -0.8771
     12 O2A         1.8736   -3.9646   -2.9750 O.co2     1 GTP        -0.8771
     13 O5'         2.5245   -1.6648   -2.1878 O.3       1 GTP        -0.5809
     14 C5'         2.2816   -0.2918   -1.9206 C.3       1 GTP         0.1986
     15 C4'         2.7248    0.0226   -0.4980 C.3       1 GTP         0.0418
     16 O4'         2.4697    1.4219   -0.2462 O.3       1 GTP        -0.3505
     17 C3'         1.9404   -0.7419    0.5596 C.3       1 GTP         0.0909
     18 O3'         2.7418   -0.8086    1.7389 O.3       1 GTP        -0.6187
     19 C2'         0.7477    0.1630    0.7858 C.3       1 GTP         0.0706
     20 O2'         0.1373   -0.0577    2.0407 O.3       1 GTP        -0.6294
     21 C1'         1.3733    1.5427    0.6747 C.3       1 GTP         0.3895
     22 N9          0.4520    2.5240    0.1767 N.pl3     1 GTP        -0.4733
     23 C8          0.2012    2.8401   -1.0899 C.ar      1 GTP         0.2958
     24 N7         -0.7168    3.7990   -1.1981 N.pl3     1 GTP        -0.4933
     25 C5         -1.0645    4.1043    0.0896 C.ar      1 GTP        -0.1494
     26 C6         -2.0336    5.0870    0.5973 C.ar      1 GTP         0.7954
     27 O6         -2.6730    5.7839   -0.1834 O.2       1 GTP        -0.5729
     28 N1         -2.1539    5.1517    1.9868 N.2       1 GTP        -0.7443
     29 C2         -1.4288    4.3650    2.7566 C.ar      1 GTP         0.8831
     30 N2         -1.5126    4.3922    4.1250 N.pl3     1 GTP        -0.9204
     31 N3         -0.5167    3.4388    2.2748 N.pl3     1 GTP        -0.7173
     32 C4         -0.3638    3.3392    0.9318 C.ar      1 GTP         0.2626
     33 HOG3       -2.6879    0.4534   -5.7723 H         1 GTP         0.4102
     34 H5'         2.8432    0.3119   -2.6398 H         1 GTP         0.0289
     35 H5''        1.2128   -0.0927   -2.0428 H         1 GTP         0.0289
     36 H4'         3.8044   -0.1397   -0.4040 H         1 GTP         0.2056
     37 H3'         1.6764   -1.7639    0.2728 H         1 GTP         0.1140
     38 HO3'        2.2232   -1.2979    2.3953 H         1 GTP         0.4287
     39 H2'        -0.0011    0.0027    0.0003 H         1 GTP         0.0809
     40 HO2'       -0.6141    0.5574    2.1082 H         1 GTP         0.4385
     41 H1'         1.7826    1.9024    1.6451 H         1 GTP         0.0794
     42 H8          0.6787    2.3803   -1.9373 H         1 GTP         0.3821
     43 HN21       -2.1462    5.0320    4.5446 H         1 GTP         0.4411
     44 HN22       -0.9365    3.7712    4.6440 H         1 GTP         0.4411
     45 H45         0.0318    2.8419    2.8816 H         1 GTP         0.4819
     46 H46        -1.0718    4.2049   -2.0526 H         1 GTP         0.5182
@<TRIPOS>BOND
     1    1    2 2
     2    1    3 1
     3    1    4 1
     4    1    5 1
     5    4   33 1
     6    5    6 1
     7    6    7 2
     8    6    8 1
     9    6    9 1
    10    9   10 1
    11   10   11 2
    12   10   12 1
    13   10   13 1
    14   13   14 1
    15   14   15 1
    16   14   34 1
    17   14   35 1
    18   15   16 1
    19   15   17 1
    20   15   36 1
    21   16   21 1
    22   17   18 1
    23   17   19 1
    24   17   37 1
    25   18   38 1
    26   19   20 1
    27   19   21 1
    28   19   39 1
    29   20   40 1
    30   21   22 1
    31   21   41 1
    32   22   23 ar
    33   22   32 ar
    34   23   24 ar
    35   23   42 1
    36   24   25 ar
    37   24   46 1
    38   25   26 ar
    39   25   32 ar
    40   26   27 2
    41   26   28 ar
    42   28   29 ar
    43   29   30 1
    44   29   31 ar
    45   30   43 1
    46   30   44 1
    47   31   32 ar
    48   31   45 1
@<TRIPOS>SUBSTRUCTURE
     1 GTP         1 GROUP 0 A     ****
@<TRIPOS>MOLECULE
[[[5-(2-amino-6-oxo-7,8-dihydro-3~{H}-purin-8-ylium-9-yl)-3,4-dihydroxy-tetrahydrofuran-2-yl]methoxy-oxido-phosphoryl]oxy-oxido-phosphoryl] hydrogen phosphate
   46    48     1     0     0
SMALL
USER_CHARGES

@<TRIPOS>ATOM
      1 PG          3.8116   -4.9688   -6.1134 P.3       1 GTP         1.5447
      2 O1G         4.7301   -4.7736   -7.2990 O.co2     1 GTP        -0.8705
      3 O2G         4.1117   -6.0130   -5.0612 O.co2     1 GTP        -0.8705
      4 O3G         2.2948   -5.2116   -6.6669 O.3       1 GTP        -0.7914
      5 O3B         3.5788   -3.5298   -5.3793 O.3       1 GTP        -0.8116
      6 PB          3.0816   -2.1054   -6.0036 P.3       1 GTP         1.6738
      7 O1B         4.1337   -1.6053   -6.9682 O.co2     1 GTP        -0.8763
      8 O2B         1.6291   -2.2243   -6.4080 O.co2     1 GTP        -0.8763
      9 O3A         3.1119   -1.1996   -4.6459 O.3       1 GTP        -0.8005
     10 PA          2.7407    0.3769   -4.4297 P.3       1 GTP         1.5754
     11 O1A         3.7274    1.2201   -5.2081 O.co2     1 GTP        -0.8771
     12 O2A         1.2486    0.5523   -4.6100 O.co2     1 GTP        -0.8771
     13 O5'         3.0213    0.5153   -2.8245 O.3       1 GTP        -0.5809
     14 C5'         2.2816   -0.2918   -1.9206 C.3       1 GTP         0.1986
     15 C4'         2.7248    0.0226   -0.4980 C.3       1 GTP         0.0418
     16 O4'         2.4697    1.4219   -0.2462 O.3       1 GTP        -0.3505
     17 C3'         1.9404   -0.7419    0.5596 C.3       1 GTP         0.0909
     18 O3'         2.7418   -0.8086    1.7389 O.3       1 GTP        -0.6187
     19 C2'         0.7477    0.1630    0.7858 C.3       1 GTP         0.0706
     20 O2'         0.1373   -0.0577    2.0407 O.3       1 GTP        -0.6294
     21 C1'         1.3733    1.5427    0.6747 C.3       1 GTP         0.3895
     22 N9          0.4520    2.5240    0.1767 N.pl3     1 GTP        -0.4733
     23 C8         -0.2136    2.5096   -0.9739 C.ar      1 GTP         0.2958
     24 N7         -0.9896    3.5820   -1.1212 N.pl3     1 GTP        -0.4933
     25 C5         -0.7962    4.3186    0.0156 C.ar      1 GTP        -0.1494
     26 C6         -1.3875    5.6031    0.4192 C.ar      1 GTP         0.7954
     27 O6         -2.1869    6.1731   -0.3158 O.2       1 GTP        -0.5729
     28 N1         -0.9745    6.0930    1.6597 N.2       1 GTP        -0.7443
     29 C2         -0.1105    5.4166    2.3900 C.ar      1 GTP         0.8831
     30 N2          0.3241    5.8571    3.6138 N.pl3     1 GTP        -0.9204
     31 N3          0.4444    4.2053    2.0072 N.pl3     1 GTP        -0.7173
     32 C4          0.0746    3.6889    0.8098 C.ar      1 GTP         0.2626
     33 HOG3        1.5770   -5.3555   -6.0140 H         1 GTP         0.4102
     34 H5'         1.2163   -0.0770   -2.0471 H         1 GTP         0.0289
     35 H5''        2.4655   -1.3443   -2.1563 H         1 GTP         0.0289
     36 H4'         3.8044   -0.1397   -0.4040 H         1 GTP         0.2056
     37 H3'         1.6764   -1.7639    0.2728 H         1 GTP         0.1140
     38 HO3'        2.2232   -1.2979    2.3953 H         1 GTP         0.4287
     39 H2'        -0.0011    0.0027    0.0003 H         1 GTP         0.0809
     40 HO2'       -0.1563   -0.9855    2.0596 H         1 GTP         0.4385
     41 H1'         1.7826    1.9024    1.6451 H         1 GTP         0.0794
     42 H8         -0.1415    1.7265   -1.7082 H         1 GTP         0.3821
     43 HN21       -0.0303    6.7197    3.9559 H         1 GTP         0.4411
     44 HN22        0.9765    5.2967    4.1108 H         1 GTP         0.4411
     45 H45         1.1068    3.6990    2.5819 H         1 GTP         0.4819
     46 H46        -1.5877    3.7943   -1.9074 H         1 GTP         0.5182
@<TRIPOS>BOND
     1    1    2 2
     2    1    3 1
     3    1    4 1
     4    1    5 1
     5    4   33 1
     6    5    6 1
     7    6    7 2
     8    6    8 1
     9    6    9 1
    10    9   10 1
    11   10   11 2
    12   10   12 1
    13   10   13 1
    14   13   14 1
    15   14   15 1
    16   14   34 1
    17   14   35 1
    18   15   16 1
    19   15   17 1
    20   15   36 1
    21   16   21 1
    22   17   18 1
    23   17   19 1
    24   17   37 1
    25   18   38 1
    26   19   20 1
    27   19   21 1
    28   19   39 1
    29   20   40 1
    30   21   22 1
    31   21   41 1
    32   22   23 ar
    33   22   32 ar
    34   23   24 ar
    35   23   42 1
    36   24   25 ar
    37   24   46 1
    38   25   26 ar
    39   25   32 ar
    40   26   27 2
    41   26   28 ar
    42   28   29 ar
    43   29   30 1
    44   29   31 ar
    45   30   43 1
    46   30   44 1
    47   31   32 ar
    48   31   45 1
@<TRIPOS>SUBSTRUCTURE
     1 GTP         1 GROUP 0 A     ****
@<TRIPOS>MOLECULE
[[[5-(2-amino-6-oxo-7,8-dihydro-3~{H}-purin-8-ylium-9-yl)-3,4-dihydroxy-tetrahydrofuran-2-yl]methoxy-oxido-phosphoryl]oxy-oxido-phosphoryl] hydrogen phosphate
   46    48     1     0     0
SMALL
USER_CHARGES

@<TRIPOS>ATOM
      1 PG         -1.5713   -1.0854   -7.0509 P.3       1 GTP         1.5447
      2 O1G        -1.3871   -2.4988   -7.5568 O.co2     1 GTP        -0.8705
      3 O2G        -2.8665   -0.6560   -6.3983 O.co2     1 GTP        -0.8705
      4 O3G        -1.2364   -0.0508   -8.2688 O.3       1 GTP        -0.7914
      5 O3B        -0.3299   -0.7100   -6.0600 O.3       1 GTP        -0.8116
      6 PB          1.2796   -0.8054   -6.3174 P.3       1 GTP         1.6738
      7 O1B         1.6595   -2.2605   -6.4776 O.co2     1 GTP        -0.8763
      8 O2B         1.6778    0.2342   -7.3413 O.co2     1 GTP        -0.8763
      9 O3A         1.8086   -0.2594   -4.8729 O.3       1 GTP        -0.8005
     10 PA          3.3343   -0.0514   -4.3264 P.3       1 GTP         1.5754
     11 O1A         4.0106   -1.4028   -4.2454 O.co2     1 GTP        -0.8771
     12 O2A         3.9675    1.0961   -5.0826 O.co2     1 GTP        -0.8771
     13 O5'         3.0213    0.5153   -2.8245 O.3       1 GTP        -0.5809
     14 C5'         2.2816   -0.2918   -1.9206 C.3       1 GTP         0.1986
     15 C4'         2.7248    0.0226   -0.4980 C.3       1 GTP         0.0418
     16 O4'         2.4697    1.4219   -0.2462 O.3       1 GTP        -0.3505
     17 C3'         1.9404   -0.7419    0.5596 C.3       1 GTP         0.0909
     18 O3'         2.7418   -0.8086    1.7389 O.3       1 GTP        -0.6187
     19 C2'         0.7477    0.1630    0.7858 C.3       1 GTP         0.0706
     20 O2'         0.1373   -0.0577    2.0407 O.3       1 GTP        -0.6294
     21 C1'         1.3733    1.5427    0.6747 C.3       1 GTP         0.3895
     22 N9          0.4520    2.5240    0.1767 N.pl3     1 GTP        -0.4733
     23 C8         -0.2136    2.5096   -0.9739 C.ar      1 GTP         0.2958
     24 N7         -0.9896    3.5820   -1.1212 N.pl3     1 GTP        -0.4933
     25 C5         -0.7962    4.3186    0.0156 C.ar      1 GTP        -0.1494
     26 C6         -1.3875    5.6031    0.4192 C.ar      1 GTP         0.7954
     27 O6         -2.1869    6.1731   -0.3158 O.2       1 GTP        -0.5729
     28 N1         -0.9745    6.0930    1.6597 N.2       1 GTP        -0.7443
     29 C2         -0.1105    5.4166    2.3900 C.ar      1 GTP         0.8831
     30 N2          0.3241    5.8571    3.6138 N.pl3     1 GTP        -0.9204
     31 N3          0.4444    4.2053    2.0072 N.pl3     1 GTP        -0.7173
     32 C4          0.0746    3.6889    0.8098 C.ar      1 GTP         0.2626
     33 HOG3       -1.3107    0.9122   -8.0971 H         1 GTP         0.4102
     34 H5'         1.2163   -0.0770   -2.0471 H         1 GTP         0.0289
     35 H5''        2.4655   -1.3443   -2.1563 H         1 GTP         0.0289
     36 H4'         3.8044   -0.1397   -0.4040 H         1 GTP         0.2056
     37 H3'         1.6764   -1.7639    0.2728 H         1 GTP         0.1140
     38 HO3'        2.2232   -1.2979    2.3953 H         1 GTP         0.4287
     39 H2'        -0.0011    0.0027    0.0003 H         1 GTP         0.0809
     40 HO2'       -0.6141    0.5574    2.1082 H         1 GTP         0.4385
     41 H1'         1.7826    1.9024    1.6451 H         1 GTP         0.0794
     42 H8         -0.1415    1.7265   -1.7082 H         1 GTP         0.3821
     43 HN21       -0.0303    6.7197    3.9559 H         1 GTP         0.4411
     44 HN22        0.9765    5.2967    4.1108 H         1 GTP         0.4411
     45 H45         1.1068    3.6990    2.5819 H         1 GTP         0.4819
     46 H46        -1.5877    3.7943   -1.9074 H         1 GTP         0.5182
@<TRIPOS>BOND
     1    1    2 2
     2    1    3 1
     3    1    4 1
     4    1    5 1
     5    4   33 1
     6    5    6 1
     7    6    7 2
     8    6    8 1
     9    6    9 1
    10    9   10 1
    11   10   11 2
    12   10   12 1
    13   10   13 1
    14   13   14 1
    15   14   15 1
    16   14   34 1
    17   14   35 1
    18   15   16 1
    19   15   17 1
    20   15   36 1
    21   16   21 1
    22   17   18 1
    23   17   19 1
    24   17   37 1
    25   18   38 1
    26   19   20 1
    27   19   21 1
    28   19   39 1
    29   20   40 1
    30   21   22 1
    31   21   41 1
    32   22   23 ar
    33   22   32 ar
    34   23   24 ar
    35   23   42 1
    36   24   25 ar
    37   24   46 1
    38   25   26 ar
    39   25   32 ar
    40   26   27 2
    41   26   28 ar
    42   28   29 ar
    43   29   30 1
    44   29   31 ar
    45   30   43 1
    46   30   44 1
    47   31   32 ar
    48   31   45 1
@<TRIPOS>SUBSTRUCTURE
     1 GTP         1 GROUP 0 A     ****
@<TRIPOS>MOLECULE
[[[5-(2-amino-6-oxo-7,8-dihydro-3~{H}-purin-8-ylium-9-yl)-3,4-dihydroxy-tetrahydrofuran-2-yl]methoxy-oxido-phosphoryl]oxy-oxido-phosphoryl] hydrogen phosphate
   46    48     1     0     0
SMALL
USER_CHARGES

@<TRIPOS>ATOM
      1 PG          7.6198   -1.7450   -2.9671 P.3       1 GTP         1.5447
      2 O1G         7.9609   -3.2124   -3.1009 O.co2     1 GTP        -0.8705
      3 O2G         8.6863   -0.7267   -2.6302 O.co2     1 GTP        -0.8705
      4 O3G         6.3993   -1.5920   -1.8934 O.3       1 GTP        -0.7914
      5 O3B         6.8295   -1.2588   -4.3098 O.3       1 GTP        -0.8116
      6 PB          5.5029   -1.8845   -5.0268 P.3       1 GTP         1.6738
      7 O1B         5.0944   -0.9776   -6.1663 O.co2     1 GTP        -0.8763
      8 O2B         5.7061   -3.3693   -5.2305 O.co2     1 GTP        -0.8763
      9 O3A         4.4413   -1.7265   -3.7968 O.3       1 GTP        -0.8005
     10 PA          2.8603   -2.1317   -3.7189 P.3       1 GTP         1.5754
     11 O1A         2.0908   -1.2810   -4.7060 O.co2     1 GTP        -0.8771
     12 O2A         2.7458   -3.6405   -3.7305 O.co2     1 GTP        -0.8771
     13 O5'         2.5245   -1.6648   -2.1878 O.3       1 GTP        -0.5809
     14 C5'         2.2816   -0.2918   -1.9206 C.3       1 GTP         0.1986
     15 C4'         2.7248    0.0226   -0.4980 C.3       1 GTP         0.0418
     16 O4'         2.4697    1.4219   -0.2462 O.3       1 GTP        -0.3505
     17 C3'         1.9404   -0.7419    0.5596 C.3       1 GTP         0.0909
     18 O3'         2.7418   -0.8086    1.7389 O.3       1 GTP        -0.6187
     19 C2'         0.7477    0.1630    0.7858 C.3       1 GTP         0.0706
     20 O2'         0.1373   -0.0577    2.0407 O.3       1 GTP        -0.6294
     21 C1'         1.3733    1.5427    0.6747 C.3       1 GTP         0.3895
     22 N9          0.4520    2.5240    0.1767 N.pl3     1 GTP        -0.4733
     23 C8          0.2012    2.8401   -1.0899 C.ar      1 GTP         0.2958
     24 N7         -0.7168    3.7990   -1.1981 N.pl3     1 GTP        -0.4933
     25 C5         -1.0645    4.1043    0.0896 C.ar      1 GTP        -0.1494
     26 C6         -2.0336    5.0870    0.5973 C.ar      1 GTP         0.7954
     27 O6         -2.6730    5.7839   -0.1834 O.2       1 GTP        -0.5729
     28 N1         -2.1539    5.1517    1.9868 N.2       1 GTP        -0.7443
     29 C2         -1.4288    4.3650    2.7566 C.ar      1 GTP         0.8831
     30 N2         -1.5126    4.3922    4.1250 N.pl3     1 GTP        -0.9204
     31 N3         -0.5167    3.4388    2.2748 N.pl3     1 GTP        -0.7173
     32 C4         -0.3638    3.3392    0.9318 C.ar      1 GTP         0.2626
     33 HOG3        6.0611   -0.6926   -1.6960 H         1 GTP         0.4102
     34 H5'         2.8432    0.3119   -2.6398 H         1 GTP         0.0289
     35 H5''        1.2128   -0.0927   -2.0428 H         1 GTP         0.0289
     36 H4'         3.8044   -0.1397   -0.4040 H         1 GTP         0.2056
     37 H3'         1.6764   -1.7639    0.2728 H         1 GTP         0.1140
     38 HO3'        2.2232   -1.2979    2.3953 H         1 GTP         0.4287
     39 H2'        -0.0011    0.0027    0.0003 H         1 GTP         0.0809
     40 HO2'       -0.6141    0.5574    2.1082 H         1 GTP         0.4385
     41 H1'         1.7826    1.9024    1.6451 H         1 GTP         0.0794
     42 H8          0.6787    2.3803   -1.9373 H         1 GTP         0.3821
     43 HN21       -2.1462    5.0320    4.5446 H         1 GTP         0.4411
     44 HN22       -0.9365    3.7712    4.6440 H         1 GTP         0.4411
     45 H45         0.0318    2.8419    2.8816 H         1 GTP         0.4819
     46 H46        -1.0718    4.2049   -2.0526 H         1 GTP         0.5182
@<TRIPOS>BOND
     1    1    2 2
     2    1    3 1
     3    1    4 1
     4    1    5 1
     5    4   33 1
     6    5    6 1
     7    6    7 2
     8    6    8 1
     9    6    9 1
    10    9   10 1
    11   10   11 2
    12   10   12 1
    13   10   13 1
    14   13   14 1
    15   14   15 1
    16   14   34 1
    17   14   35 1
    18   15   16 1
    19   15   17 1
    20   15   36 1
    21   16   21 1
    22   17   18 1
    23   17   19 1
    24   17   37 1
    25   18   38 1
    26   19   20 1
    27   19   21 1
    28   19   39 1
    29   20   40 1
    30   21   22 1
    31   21   41 1
    32   22   23 ar
    33   22   32 ar
    34   23   24 ar
    35   23   42 1
    36   24   25 ar
    37   24   46 1
    38   25   26 ar
    39   25   32 ar
    40   26   27 2
    41   26   28 ar
    42   28   29 ar
    43   29   30 1
    44   29   31 ar
    45   30   43 1
    46   30   44 1
    47   31   32 ar
    48   31   45 1
@<TRIPOS>SUBSTRUCTURE
     1 GTP         1 GROUP 0 A     ****
@<TRIPOS>MOLECULE
[[[5-(2-amino-6-oxo-7,8-dihydro-3~{H}-purin-8-ylium-9-yl)-3,4-dihydroxy-tetrahydrofuran-2-yl]methoxy-oxido-phosphoryl]oxy-oxido-phosphoryl] hydrogen phosphate
   46    48     1     0     0
SMALL
USER_CHARGES

@<TRIPOS>ATOM
      1 PG          0.8104   -3.5399   -5.1143 P.3       1 GTP         1.5447
      2 O1G         1.4683   -3.2981   -3.7741 O.co2     1 GTP        -0.8705
      3 O2G        -0.6952   -3.5143   -5.2570 O.co2     1 GTP        -0.8705
      4 O3G         1.3643   -4.9528   -5.7167 O.3       1 GTP        -0.7914
      5 O3B         1.4635   -2.5289   -6.2167 O.3       1 GTP        -0.8116
      6 PB          1.3751   -0.9023   -6.3258 P.3       1 GTP         1.6738
      7 O1B         2.2722   -0.4425   -7.4533 O.co2     1 GTP        -0.8763
      8 O2B        -0.0752   -0.4806   -6.2457 O.co2     1 GTP        -0.8763
      9 O3A         2.0523   -0.5065   -4.8941 O.3       1 GTP        -0.8005
     10 PA          2.3336    0.9636   -4.2390 P.3       1 GTP         1.5754
     11 O1A         3.3392    1.6960   -5.1008 O.co2     1 GTP        -0.8771
     12 O2A         1.0067    1.5946   -3.8772 O.co2     1 GTP        -0.8771
     13 O5'         3.0213    0.5153   -2.8245 O.3       1 GTP        -0.5809
     14 C5'         2.2816   -0.2918   -1.9206 C.3       1 GTP         0.1986
     15 C4'         2.7248    0.0226   -0.4980 C.3       1 GTP         0.0418
     16 O4'         2.4697    1.4219   -0.2462 O.3       1 GTP        -0.3505
     17 C3'         1.9404   -0.7419    0.5596 C.3       1 GTP         0.0909
     18 O3'         2.7418   -0.8086    1.7389 O.3       1 GTP        -0.6187
     19 C2'         0.7477    0.1630    0.7858 C.3       1 GTP         0.0706
     20 O2'         0.1373   -0.0577    2.0407 O.3       1 GTP        -0.6294
     21 C1'         1.3733    1.5427    0.6747 C.3       1 GTP         0.3895
     22 N9          0.4520    2.5240    0.1767 N.pl3     1 GTP        -0.4733
     23 C8          0.5427    3.2356   -0.9425 C.ar      1 GTP         0.2958
     24 N7         -0.4919    4.0590   -1.1018 N.pl3     1 GTP        -0.4933
     25 C5         -1.2850    3.8484   -0.0069 C.ar      1 GTP        -0.1494
     26 C6         -2.5644    4.4707    0.3650 C.ar      1 GTP         0.7954
     27 O6         -3.0718    5.3200   -0.3599 O.2       1 GTP        -0.5729
     28 N1         -3.1239    4.0269    1.5647 N.2       1 GTP        -0.7443
     29 C2         -2.5133    3.1079    2.2858 C.ar      1 GTP         0.8831
     30 N2         -3.0239    2.6409    3.4697 N.pl3     1 GTP        -0.9204
     31 N3         -1.3076    2.5223    1.9320 N.pl3     1 GTP        -0.7173
     32 C4         -0.7246    2.9211    0.7753 C.ar      1 GTP         0.2626
     33 HOG3        1.0289   -5.2521   -6.5886 H         1 GTP         0.4102
     34 H5'         1.2163   -0.0770   -2.0471 H         1 GTP         0.0289
     35 H5''        2.4655   -1.3443   -2.1563 H         1 GTP         0.0289
     36 H4'         3.8044   -0.1397   -0.4040 H         1 GTP         0.2056
     37 H3'         1.6764   -1.7639    0.2728 H         1 GTP         0.1140
     38 HO3'        2.2232   -1.2979    2.3953 H         1 GTP         0.4287
     39 H2'        -0.0011    0.0027    0.0003 H         1 GTP         0.0809
     40 HO2'       -0.1563   -0.9855    2.0596 H         1 GTP         0.4385
     41 H1'         1.7826    1.9024    1.6451 H         1 GTP         0.0794
     42 H8          1.3539    3.1622   -1.6455 H         1 GTP         0.3821
     43 HN21       -3.8871    3.0143    3.7893 H         1 GTP         0.4411
     44 HN22       -2.5108    1.9472    3.9621 H         1 GTP         0.4411
     45 H45        -0.8530    1.8168    2.4986 H         1 GTP         0.4819
     46 H46        -0.6466    4.6966   -1.8702 H         1 GTP         0.5182
@<TRIPOS>BOND
     1    1    2 2
     2    1    3 1
     3    1    4 1
     4    1    5 1
     5    4   33 1
     6    5    6 1
     7    6    7 2
     8    6    8 1
     9    6    9 1
    10    9   10 1
    11   10   11 2
    12   10   12 1
    13   10   13 1
    14   13   14 1
    15   14   15 1
    16   14   34 1
    17   14   35 1
    18   15   16 1
    19   15   17 1
    20   15   36 1
    21   16   21 1
    22   17   18 1
    23   17   19 1
    24   17   37 1
    25   18   38 1
    26   19   20 1
    27   19   21 1
    28   19   39 1
    29   20   40 1
    30   21   22 1
    31   21   41 1
    32   22   23 ar
    33   22   32 ar
    34   23   24 ar
    35   23   42 1
    36   24   25 ar
    37   24   46 1
    38   25   26 ar
    39   25   32 ar
    40   26   27 2
    41   26   28 ar
    42   28   29 ar
    43   29   30 1
    44   29   31 ar
    45   30   43 1
    46   30   44 1
    47   31   32 ar
    48   31   45 1
@<TRIPOS>SUBSTRUCTURE
     1 GTP         1 GROUP 0 A     ****
@<TRIPOS>MOLECULE
[[[5-(2-amino-6-oxo-7,8-dihydro-3~{H}-purin-8-ylium-9-yl)-3,4-dihydroxy-tetrahydrofuran-2-yl]methoxy-oxido-phosphoryl]oxy-oxido-phosphoryl] hydrogen phosphate
   46    48     1     0     0
SMALL
USER_CHARGES

@<TRIPOS>ATOM
      1 PG          2.0115    6.0686   -2.8730 P.3       1 GTP         1.5447
      2 O1G         2.1884    6.1037   -1.3714 O.co2     1 GTP        -0.8705
      3 O2G         2.9255    6.8597   -3.7821 O.co2     1 GTP        -0.8705
      4 O3G         0.4658    6.4617   -3.2225 O.3       1 GTP        -0.7914
      5 O3B         1.9886    4.5138   -3.3689 O.3       1 GTP        -0.8116
      6 PB          3.1773    3.3946   -3.3571 P.3       1 GTP         1.6738
      7 O1B         4.2656    3.8331   -4.3114 O.co2     1 GTP        -0.8763
      8 O2B         3.4848    3.0168   -1.9252 O.co2     1 GTP        -0.8763
      9 O3A         2.3599    2.1376   -4.0025 O.3       1 GTP        -0.8005
     10 PA          2.8621    0.6170   -4.3270 P.3       1 GTP         1.5754
     11 O1A         1.6809   -0.1909   -4.8193 O.co2     1 GTP        -0.8771
     12 O2A         4.1462    0.6908   -5.1241 O.co2     1 GTP        -0.8771
     13 O5'         3.2903    0.1346   -2.8241 O.3       1 GTP        -0.5809
     14 C5'         2.2816   -0.2918   -1.9206 C.3       1 GTP         0.1986
     15 C4'         2.7248    0.0226   -0.4980 C.3       1 GTP         0.0418
     16 O4'         2.4697    1.4219   -0.2462 O.3       1 GTP        -0.3505
     17 C3'         1.9404   -0.7419    0.5596 C.3       1 GTP         0.0909
     18 O3'         2.7418   -0.8086    1.7389 O.3       1 GTP        -0.6187
     19 C2'         0.7477    0.1630    0.7858 C.3       1 GTP         0.0706
     20 O2'         0.1373   -0.0577    2.0407 O.3       1 GTP        -0.6294
     21 C1'         1.3733    1.5427    0.6747 C.3       1 GTP         0.3895
     22 N9          0.4520    2.5240    0.1767 N.pl3     1 GTP        -0.4733
     23 C8         -0.2136    2.5096   -0.9739 C.ar      1 GTP         0.2958
     24 N7         -0.9896    3.5820   -1.1212 N.pl3     1 GTP        -0.4933
     25 C5         -0.7962    4.3186    0.0156 C.ar      1 GTP        -0.1494
     26 C6         -1.3875    5.6031    0.4192 C.ar      1 GTP         0.7954
     27 O6         -2.1869    6.1731   -0.3158 O.2       1 GTP        -0.5729
     28 N1         -0.9745    6.0930    1.6597 N.2       1 GTP        -0.7443
     29 C2         -0.1105    5.4166    2.3900 C.ar      1 GTP         0.8831
     30 N2          0.3241    5.8571    3.6138 N.pl3     1 GTP        -0.9204
     31 N3          0.4444    4.2053    2.0072 N.pl3     1 GTP        -0.7173
     32 C4          0.0746    3.6889    0.8098 C.ar      1 GTP         0.2626
     33 HOG3        0.1909    6.4834   -4.1639 H         1 GTP         0.4102
     34 H5'         1.3514    0.2330   -2.1577 H         1 GTP         0.0289
     35 H5''        2.1280   -1.3678   -2.0460 H         1 GTP         0.0289
     36 H4'         3.8044   -0.1397   -0.4040 H         1 GTP         0.2056
     37 H3'         1.6764   -1.7639    0.2728 H         1 GTP         0.1140
     38 HO3'        3.5554   -1.2733    1.4914 H         1 GTP         0.4287
     39 H2'        -0.0011    0.0027    0.0003 H         1 GTP         0.0809
     40 HO2'        0.8082    0.1199    2.7232 H         1 GTP         0.4385
     41 H1'         1.7826    1.9024    1.6451 H         1 GTP         0.0794
     42 H8         -0.1415    1.7265   -1.7082 H         1 GTP         0.3821
     43 HN21       -0.0303    6.7197    3.9559 H         1 GTP         0.4411
     44 HN22        0.9765    5.2967    4.1108 H         1 GTP         0.4411
     45 H45         1.1068    3.6990    2.5819 H         1 GTP         0.4819
     46 H46        -1.5877    3.7943   -1.9074 H         1 GTP         0.5182
@<TRIPOS>BOND
     1    1    2 2
     2    1    3 1
     3    1    4 1
     4    1    5 1
     5    4   33 1
     6    5    6 1
     7    6    7 2
     8    6    8 1
     9    6    9 1
    10    9   10 1
    11   10   11 2
    12   10   12 1
    13   10   13 1
    14   13   14 1
    15   14   15 1
    16   14   34 1
    17   14   35 1
    18   15   16 1
    19   15   17 1
    20   15   36 1
    21   16   21 1
    22   17   18 1
    23   17   19 1
    24   17   37 1
    25   18   38 1
    26   19   20 1
    27   19   21 1
    28   19   39 1
    29   20   40 1
    30   21   22 1
    31   21   41 1
    32   22   23 ar
    33   22   32 ar
    34   23   24 ar
    35   23   42 1
    36   24   25 ar
    37   24   46 1
    38   25   26 ar
    39   25   32 ar
    40   26   27 2
    41   26   28 ar
    42   28   29 ar
    43   29   30 1
    44   29   31 ar
    45   30   43 1
    46   30   44 1
    47   31   32 ar
    48   31   45 1
@<TRIPOS>SUBSTRUCTURE
     1 GTP         1 GROUP 0 A     ****
@<TRIPOS>MOLECULE
[[[5-(2-amino-6-oxo-7,8-dihydro-3~{H}-purin-8-ylium-9-yl)-3,4-dihydroxy-tetrahydrofuran-2-yl]methoxy-oxido-phosphoryl]oxy-oxido-phosphoryl] hydrogen phosphate
   46    48     1     0     0
SMALL
USER_CHARGES

@<TRIPOS>ATOM
      1 PG          8.4915   -1.3371   -3.2547 P.3       1 GTP         1.5447
      2 O1G         9.1957   -0.5029   -4.3014 O.co2     1 GTP        -0.8705
      3 O2G         8.6710   -1.0484   -1.7809 O.co2     1 GTP        -0.8705
      4 O3G         8.8429   -2.9091   -3.5216 O.3       1 GTP        -0.7914
      5 O3B         6.8958   -1.3799   -3.5949 O.3       1 GTP        -0.8116
      6 PB          5.7003   -2.2452   -2.8964 P.3       1 GTP         1.6738
      7 O1B         5.9434   -3.7134   -3.1660 O.co2     1 GTP        -0.8763
      8 O2B         5.4689   -1.7252   -1.4952 O.co2     1 GTP        -0.8763
      9 O3A         4.4413   -1.7265   -3.7968 O.3       1 GTP        -0.8005
     10 PA          2.8603   -2.1317   -3.7189 P.3       1 GTP         1.5754
     11 O1A         2.0908   -1.2810   -4.7060 O.co2     1 GTP        -0.8771
     12 O2A         2.7458   -3.6405   -3.7305 O.co2     1 GTP        -0.8771
     13 O5'         2.5245   -1.6648   -2.1878 O.3       1 GTP        -0.5809
     14 C5'         2.2816   -0.2918   -1.9206 C.3       1 GTP         0.1986
     15 C4'         2.7248    0.0226   -0.4980 C.3       1 GTP         0.0418
     16 O4'         2.4697    1.4219   -0.2462 O.3       1 GTP        -0.3505
     17 C3'         1.9404   -0.7419    0.5596 C.3       1 GTP         0.0909
     18 O3'         2.7418   -0.8086    1.7389 O.3       1 GTP        -0.6187
     19 C2'         0.7477    0.1630    0.7858 C.3       1 GTP         0.0706
     20 O2'         0.1373   -0.0577    2.0407 O.3       1 GTP        -0.6294
     21 C1'         1.3733    1.5427    0.6747 C.3       1 GTP         0.3895
     22 N9          0.4520    2.5240    0.1767 N.pl3     1 GTP        -0.4733
     23 C8          0.2012    2.8401   -1.0899 C.ar      1 GTP         0.2958
     24 N7         -0.7168    3.7990   -1.1981 N.pl3     1 GTP        -0.4933
     25 C5         -1.0645    4.1043    0.0896 C.ar      1 GTP        -0.1494
     26 C6         -2.0336    5.0870    0.5973 C.ar      1 GTP         0.7954
     27 O6         -2.6730    5.7839   -0.1834 O.2       1 GTP        -0.5729
     28 N1         -2.1539    5.1517    1.9868 N.2       1 GTP        -0.7443
     29 C2         -1.4288    4.3650    2.7566 C.ar      1 GTP         0.8831
     30 N2         -1.5126    4.3922    4.1250 N.pl3     1 GTP        -0.9204
     31 N3         -0.5167    3.4388    2.2748 N.pl3     1 GTP        -0.7173
     32 C4         -0.3638    3.3392    0.9318 C.ar      1 GTP         0.2626
     33 HOG3        8.4575   -3.5822   -2.9210 H         1 GTP         0.4102
     34 H5'         2.8432    0.3119   -2.6398 H         1 GTP         0.0289
     35 H5''        1.2128   -0.0927   -2.0428 H         1 GTP         0.0289
     36 H4'         3.8044   -0.1397   -0.4040 H         1 GTP         0.2056
     37 H3'         1.6764   -1.7639    0.2728 H         1 GTP         0.1140
     38 HO3'        2.2232   -1.2979    2.3953 H         1 GTP         0.4287
     39 H2'        -0.0011    0.0027    0.0003 H         1 GTP         0.0809
     40 HO2'       -0.6141    0.5574    2.1082 H         1 GTP         0.4385
     41 H1'         1.7826    1.9024    1.6451 H         1 GTP         0.0794
     42 H8          0.6787    2.3803   -1.9373 H         1 GTP         0.3821
     43 HN21       -2.1462    5.0320    4.5446 H         1 GTP         0.4411
     44 HN22       -0.9365    3.7712    4.6440 H         1 GTP         0.4411
     45 H45         0.0318    2.8419    2.8816 H         1 GTP         0.4819
     46 H46        -1.0718    4.2049   -2.0526 H         1 GTP         0.5182
@<TRIPOS>BOND
     1    1    2 2
     2    1    3 1
     3    1    4 1
     4    1    5 1
     5    4   33 1
     6    5    6 1
     7    6    7 2
     8    6    8 1
     9    6    9 1
    10    9   10 1
    11   10   11 2
    12   10   12 1
    13   10   13 1
    14   13   14 1
    15   14   15 1
    16   14   34 1
    17   14   35 1
    18   15   16 1
    19   15   17 1
    20   15   36 1
    21   16   21 1
    22   17   18 1
    23   17   19 1
    24   17   37 1
    25   18   38 1
    26   19   20 1
    27   19   21 1
    28   19   39 1
    29   20   40 1
    30   21   22 1
    31   21   41 1
    32   22   23 ar
    33   22   32 ar
    34   23   24 ar
    35   23   42 1
    36   24   25 ar
    37   24   46 1
    38   25   26 ar
    39   25   32 ar
    40   26   27 2
    41   26   28 ar
    42   28   29 ar
    43   29   30 1
    44   29   31 ar
    45   30   43 1
    46   30   44 1
    47   31   32 ar
    48   31   45 1
@<TRIPOS>SUBSTRUCTURE
     1 GTP         1 GROUP 0 A     ****
@<TRIPOS>MOLECULE
[[[5-(2-amino-6-oxo-7,8-dihydro-3~{H}-purin-8-ylium-9-yl)-3,4-dihydroxy-tetrahydrofuran-2-yl]methoxy-oxido-phosphoryl]oxy-oxido-phosphoryl] hydrogen phosphate
   46    48     1     0     0
SMALL
USER_CHARGES

@<TRIPOS>ATOM
      1 PG          3.5239   -0.1771   -7.0214 P.3       1 GTP         1.5447
      2 O1G         4.1528    0.0869   -5.6715 O.co2     1 GTP        -0.8705
      3 O2G         4.0996   -1.2166   -7.9572 O.co2     1 GTP        -0.8705
      4 O3G         3.4102    1.2389   -7.8264 O.3       1 GTP        -0.7914
      5 O3B         1.9319   -0.4730   -6.8170 O.3       1 GTP        -0.8116
      6 PB          1.1870   -1.7278   -6.0847 P.3       1 GTP         1.6738
      7 O1B        -0.2998   -1.4531   -6.0457 O.co2     1 GTP        -0.8763
      8 O2B         1.7388   -3.0217   -6.6406 O.co2     1 GTP        -0.8763
      9 O3A         1.8113   -1.5642   -4.5853 O.3       1 GTP        -0.8005
     10 PA          1.5544   -2.4558   -3.2404 P.3       1 GTP         1.5754
     11 O1A         0.1056   -2.3088   -2.8286 O.co2     1 GTP        -0.8771
     12 O2A         2.1769   -3.8208   -3.4380 O.co2     1 GTP        -0.8771
     13 O5'         2.5245   -1.6648   -2.1878 O.3       1 GTP        -0.5809
     14 C5'         2.2816   -0.2918   -1.9206 C.3       1 GTP         0.1986
     15 C4'         2.7248    0.0226   -0.4980 C.3       1 GTP         0.0418
     16 O4'         2.4697    1.4219   -0.2462 O.3       1 GTP        -0.3505
     17 C3'         1.9404   -0.7419    0.5596 C.3       1 GTP         0.0909
     18 O3'         2.7418   -0.8086    1.7389 O.3       1 GTP        -0.6187
     19 C2'         0.7477    0.1630    0.7858 C.3       1 GTP         0.0706
     20 O2'         0.1373   -0.0577    2.0407 O.3       1 GTP        -0.6294
     21 C1'         1.3733    1.5427    0.6747 C.3       1 GTP         0.3895
     22 N9          0.4520    2.5240    0.1767 N.pl3     1 GTP        -0.4733
     23 C8          0.5427    3.2356   -0.9425 C.ar      1 GTP         0.2958
     24 N7         -0.4919    4.0590   -1.1018 N.pl3     1 GTP        -0.4933
     25 C5         -1.2850    3.8484   -0.0069 C.ar      1 GTP        -0.1494
     26 C6         -2.5644    4.4707    0.3650 C.ar      1 GTP         0.7954
     27 O6         -3.0718    5.3200   -0.3599 O.2       1 GTP        -0.5729
     28 N1         -3.1239    4.0269    1.5647 N.2       1 GTP        -0.7443
     29 C2         -2.5133    3.1079    2.2858 C.ar      1 GTP         0.8831
     30 N2         -3.0239    2.6409    3.4697 N.pl3     1 GTP        -0.9204
     31 N3         -1.3076    2.5223    1.9320 N.pl3     1 GTP        -0.7173
     32 C4         -0.7246    2.9211    0.7753 C.ar      1 GTP         0.2626
     33 HOG3        3.0195    1.2344   -8.7262 H         1 GTP         0.4102
     34 H5'         2.8432    0.3119   -2.6398 H         1 GTP         0.0289
     35 H5''        1.2128   -0.0927   -2.0428 H         1 GTP         0.0289
     36 H4'         3.8044   -0.1397   -0.4040 H         1 GTP         0.2056
     37 H3'         1.6764   -1.7639    0.2728 H         1 GTP         0.1140
     38 HO3'        2.2232   -1.2979    2.3953 H         1 GTP         0.4287
     39 H2'        -0.0011    0.0027    0.0003 H         1 GTP         0.0809
     40 HO2'       -0.1563   -0.9855    2.0596 H         1 GTP         0.4385
     41 H1'         1.7826    1.9024    1.6451 H         1 GTP         0.0794
     42 H8          1.3539    3.1622   -1.6455 H         1 GTP         0.3821
     43 HN21       -3.8871    3.0143    3.7893 H         1 GTP         0.4411
     44 HN22       -2.5108    1.9472    3.9621 H         1 GTP         0.4411
     45 H45        -0.8530    1.8168    2.4986 H         1 GTP         0.4819
     46 H46        -0.6466    4.6966   -1.8702 H         1 GTP         0.5182
@<TRIPOS>BOND
     1    1    2 2
     2    1    3 1
     3    1    4 1
     4    1    5 1
     5    4   33 1
     6    5    6 1
     7    6    7 2
     8    6    8 1
     9    6    9 1
    10    9   10 1
    11   10   11 2
    12   10   12 1
    13   10   13 1
    14   13   14 1
    15   14   15 1
    16   14   34 1
    17   14   35 1
    18   15   16 1
    19   15   17 1
    20   15   36 1
    21   16   21 1
    22   17   18 1
    23   17   19 1
    24   17   37 1
    25   18   38 1
    26   19   20 1
    27   19   21 1
    28   19   39 1
    29   20   40 1
    30   21   22 1
    31   21   41 1
    32   22   23 ar
    33   22   32 ar
    34   23   24 ar
    35   23   42 1
    36   24   25 ar
    37   24   46 1
    38   25   26 ar
    39   25   32 ar
    40   26   27 2
    41   26   28 ar
    42   28   29 ar
    43   29   30 1
    44   29   31 ar
    45   30   43 1
    46   30   44 1
    47   31   32 ar
    48   31   45 1
@<TRIPOS>SUBSTRUCTURE
     1 GTP         1 GROUP 0 A     ****
@<TRIPOS>MOLECULE
[[[5-(2-amino-6-oxo-7,8-dihydro-3~{H}-purin-8-ylium-9-yl)-3,4-dihydroxy-tetrahydrofuran-2-yl]methoxy-oxido-phosphoryl]oxy-oxido-phosphoryl] hydrogen phosphate
   46    48     1     0     0
SMALL
USER_CHARGES

@<TRIPOS>ATOM
      1 PG          0.6607   -2.5885   -7.6312 P.3       1 GTP         1.5447
      2 O1G        -0.8100   -2.2955   -7.4342 O.co2     1 GTP        -0.8705
      3 O2G         1.3593   -2.2254   -8.9226 O.co2     1 GTP        -0.8705
      4 O3G         0.9189   -4.1723   -7.3296 O.3       1 GTP        -0.7914
      5 O3B         1.4998   -1.9593   -6.3807 O.3       1 GTP        -0.8116
      6 PB          3.0816   -2.1054   -6.0036 P.3       1 GTP         1.6738
      7 O1B         3.3653   -3.5493   -5.6541 O.co2     1 GTP        -0.8763
      8 O2B         3.9047   -1.3635   -7.0330 O.co2     1 GTP        -0.8763
      9 O3A         3.1119   -1.1996   -4.6459 O.3       1 GTP        -0.8005
     10 PA          2.7407    0.3769   -4.4297 P.3       1 GTP         1.5754
     11 O1A         3.7274    1.2201   -5.2081 O.co2     1 GTP        -0.8771
     12 O2A         1.2486    0.5523   -4.6100 O.co2     1 GTP        -0.8771
     13 O5'         3.0213    0.5153   -2.8245 O.3       1 GTP        -0.5809
     14 C5'         2.2816   -0.2918   -1.9206 C.3       1 GTP         0.1986
     15 C4'         2.7248    0.0226   -0.4980 C.3       1 GTP         0.0418
     16 O4'         2.4697    1.4219   -0.2462 O.3       1 GTP        -0.3505
     17 C3'         1.9404   -0.7419    0.5596 C.3       1 GTP         0.0909
     18 O3'         2.7418   -0.8086    1.7389 O.3       1 GTP        -0.6187
     19 C2'         0.7477    0.1630    0.7858 C.3       1 GTP         0.0706
     20 O2'         0.1373   -0.0577    2.0407 O.3       1 GTP        -0.6294
     21 C1'         1.3733    1.5427    0.6747 C.3       1 GTP         0.3895
     22 N9          0.4520    2.5240    0.1767 N.pl3     1 GTP        -0.4733
     23 C8         -0.2136    2.5096   -0.9739 C.ar      1 GTP         0.2958
     24 N7         -0.9896    3.5820   -1.1212 N.pl3     1 GTP        -0.4933
     25 C5         -0.7962    4.3186    0.0156 C.ar      1 GTP        -0.1494
     26 C6         -1.3875    5.6031    0.4192 C.ar      1 GTP         0.7954
     27 O6         -2.1869    6.1731   -0.3158 O.2       1 GTP        -0.5729
     28 N1         -0.9745    6.0930    1.6597 N.2       1 GTP        -0.7443
     29 C2         -0.1105    5.4166    2.3900 C.ar      1 GTP         0.8831
     30 N2          0.3241    5.8571    3.6138 N.pl3     1 GTP        -0.9204
     31 N3          0.4444    4.2053    2.0072 N.pl3     1 GTP        -0.7173
     32 C4          0.0746    3.6889    0.8098 C.ar      1 GTP         0.2626
     33 HOG3        1.8318   -4.5211   -7.4153 H         1 GTP         0.4102
     34 H5'         1.2163   -0.0770   -2.0471 H         1 GTP         0.0289
     35 H5''        2.4655   -1.3443   -2.1563 H         1 GTP         0.0289
     36 H4'         3.8044   -0.1397   -0.4040 H         1 GTP         0.2056
     37 H3'         1.6764   -1.7639    0.2728 H         1 GTP         0.1140
     38 HO3'        2.2232   -1.2979    2.3953 H         1 GTP         0.4287
     39 H2'        -0.0011    0.0027    0.0003 H         1 GTP         0.0809
     40 HO2'       -0.6141    0.5574    2.1082 H         1 GTP         0.4385
     41 H1'         1.7826    1.9024    1.6451 H         1 GTP         0.0794
     42 H8         -0.1415    1.7265   -1.7082 H         1 GTP         0.3821
     43 HN21       -0.0303    6.7197    3.9559 H         1 GTP         0.4411
     44 HN22        0.9765    5.2967    4.1108 H         1 GTP         0.4411
     45 H45         1.1068    3.6990    2.5819 H         1 GTP         0.4819
     46 H46        -1.5877    3.7943   -1.9074 H         1 GTP         0.5182
@<TRIPOS>BOND
     1    1    2 2
     2    1    3 1
     3    1    4 1
     4    1    5 1
     5    4   33 1
     6    5    6 1
     7    6    7 2
     8    6    8 1
     9    6    9 1
    10    9   10 1
    11   10   11 2
    12   10   12 1
    13   10   13 1
    14   13   14 1
    15   14   15 1
    16   14   34 1
    17   14   35 1
    18   15   16 1
    19   15   17 1
    20   15   36 1
    21   16   21 1
    22   17   18 1
    23   17   19 1
    24   17   37 1
    25   18   38 1
    26   19   20 1
    27   19   21 1
    28   19   39 1
    29   20   40 1
    30   21   22 1
    31   21   41 1
    32   22   23 ar
    33   22   32 ar
    34   23   24 ar
    35   23   42 1
    36   24   25 ar
    37   24   46 1
    38   25   26 ar
    39   25   32 ar
    40   26   27 2
    41   26   28 ar
    42   28   29 ar
    43   29   30 1
    44   29   31 ar
    45   30   43 1
    46   30   44 1
    47   31   32 ar
    48   31   45 1
@<TRIPOS>SUBSTRUCTURE
     1 GTP         1 GROUP 0 A     ****
@<TRIPOS>MOLECULE
[[[5-(2-amino-6-oxo-7,8-dihydro-3~{H}-purin-8-ylium-9-yl)-3,4-dihydroxy-tetrahydrofuran-2-yl]methoxy-oxido-phosphoryl]oxy-oxido-phosphoryl] hydrogen phosphate
   46    48     1     0     0
SMALL
USER_CHARGES

@<TRIPOS>ATOM
      1 PG         -1.2366   -0.6967   -7.3292 P.3       1 GTP         1.5447
      2 O1G        -1.0237   -1.7871   -8.3553 O.co2     1 GTP        -0.8705
      3 O2G        -2.6300   -0.2972   -6.8971 O.co2     1 GTP        -0.8705
      4 O3G        -0.4430    0.6422   -7.8228 O.3       1 GTP        -0.7914
      5 O3B        -0.3480   -1.0349   -6.0026 O.3       1 GTP        -0.8116
      6 PB         -0.4993   -2.2519   -4.9247 P.3       1 GTP         1.6738
      7 O1B        -1.8060   -2.0822   -4.1822 O.co2     1 GTP        -0.8763
      8 O2B        -0.1352   -3.5559   -5.5988 O.co2     1 GTP        -0.8763
      9 O3A         0.7434   -1.8799   -3.9337 O.3       1 GTP        -0.8005
     10 PA          1.2681   -2.6345   -2.5827 P.3       1 GTP         1.5754
     11 O1A         0.1879   -2.5477   -1.5263 O.co2     1 GTP        -0.8771
     12 O2A         1.8736   -3.9646   -2.9750 O.co2     1 GTP        -0.8771
     13 O5'         2.5245   -1.6648   -2.1878 O.3       1 GTP        -0.5809
     14 C5'         2.2816   -0.2918   -1.9206 C.3       1 GTP         0.1986
     15 C4'         2.7248    0.0226   -0.4980 C.3       1 GTP         0.0418
     16 O4'         2.4697    1.4219   -0.2462 O.3       1 GTP        -0.3505
     17 C3'         1.9404   -0.7419    0.5596 C.3       1 GTP         0.0909
     18 O3'         2.7418   -0.8086    1.7389 O.3       1 GTP        -0.6187
     19 C2'         0.7477    0.1630    0.7858 C.3       1 GTP         0.0706
     20 O2'         0.1373   -0.0577    2.0407 O.3       1 GTP        -0.6294
     21 C1'         1.3733    1.5427    0.6747 C.3       1 GTP         0.3895
     22 N9          0.4520    2.5240    0.1767 N.pl3     1 GTP        -0.4733
     23 C8          0.2012    2.8401   -1.0899 C.ar      1 GTP         0.2958
     24 N7         -0.7168    3.7990   -1.1981 N.pl3     1 GTP        -0.4933
     25 C5         -1.0645    4.1043    0.0896 C.ar      1 GTP        -0.1494
     26 C6         -2.0336    5.0870    0.5973 C.ar      1 GTP         0.7954
     27 O6         -2.6730    5.7839   -0.1834 O.2       1 GTP        -0.5729
     28 N1         -2.1539    5.1517    1.9868 N.2       1 GTP        -0.7443
     29 C2         -1.4288    4.3650    2.7566 C.ar      1 GTP         0.8831
     30 N2         -1.5126    4.3922    4.1250 N.pl3     1 GTP        -0.9204
     31 N3         -0.5167    3.4388    2.2748 N.pl3     1 GTP        -0.7173
     32 C4         -0.3638    3.3392    0.9318 C.ar      1 GTP         0.2626
     33 HOG3       -0.4847    1.4440   -7.2593 H         1 GTP         0.4102
     34 H5'         2.8432    0.3119   -2.6398 H         1 GTP         0.0289
     35 H5''        1.2128   -0.0927   -2.0428 H         1 GTP         0.0289
     36 H4'         3.8044   -0.1397   -0.4040 H         1 GTP         0.2056
     37 H3'         1.6764   -1.7639    0.2728 H         1 GTP         0.1140
     38 HO3'        2.2232   -1.2979    2.3953 H         1 GTP         0.4287
     39 H2'        -0.0011    0.0027    0.0003 H         1 GTP         0.0809
     40 HO2'       -0.1563   -0.9855    2.0596 H         1 GTP         0.4385
     41 H1'         1.7826    1.9024    1.6451 H         1 GTP         0.0794
     42 H8          0.6787    2.3803   -1.9373 H         1 GTP         0.3821
     43 HN21       -2.1462    5.0320    4.5446 H         1 GTP         0.4411
     44 HN22       -0.9365    3.7712    4.6440 H         1 GTP         0.4411
     45 H45         0.0318    2.8419    2.8816 H         1 GTP         0.4819
     46 H46        -1.0718    4.2049   -2.0526 H         1 GTP         0.5182
@<TRIPOS>BOND
     1    1    2 2
     2    1    3 1
     3    1    4 1
     4    1    5 1
     5    4   33 1
     6    5    6 1
     7    6    7 2
     8    6    8 1
     9    6    9 1
    10    9   10 1
    11   10   11 2
    12   10   12 1
    13   10   13 1
    14   13   14 1
    15   14   15 1
    16   14   34 1
    17   14   35 1
    18   15   16 1
    19   15   17 1
    20   15   36 1
    21   16   21 1
    22   17   18 1
    23   17   19 1
    24   17   37 1
    25   18   38 1
    26   19   20 1
    27   19   21 1
    28   19   39 1
    29   20   40 1
    30   21   22 1
    31   21   41 1
    32   22   23 ar
    33   22   32 ar
    34   23   24 ar
    35   23   42 1
    36   24   25 ar
    37   24   46 1
    38   25   26 ar
    39   25   32 ar
    40   26   27 2
    41   26   28 ar
    42   28   29 ar
    43   29   30 1
    44   29   31 ar
    45   30   43 1
    46   30   44 1
    47   31   32 ar
    48   31   45 1
@<TRIPOS>SUBSTRUCTURE
     1 GTP         1 GROUP 0 A     ****
@<TRIPOS>MOLECULE
[[[5-(2-amino-6-oxo-7,8-dihydro-3~{H}-purin-8-ylium-9-yl)-3,4-dihydroxy-tetrahydrofuran-2-yl]methoxy-oxido-phosphoryl]oxy-oxido-phosphoryl] hydrogen phosphate
   46    48     1     0     0
SMALL
USER_CHARGES

@<TRIPOS>ATOM
      1 PG         -1.5018   -0.7804   -7.1399 P.3       1 GTP         1.5447
      2 O1G        -1.7816   -2.0794   -7.8623 O.co2     1 GTP        -0.8705
      3 O2G        -2.6304    0.0555   -6.5785 O.co2     1 GTP        -0.8705
      4 O3G        -0.5884    0.1651   -8.1082 O.3       1 GTP        -0.7914
      5 O3B        -0.4083   -1.0539   -5.9596 O.3       1 GTP        -0.8116
      6 PB          1.0623   -1.7587   -6.0390 P.3       1 GTP         1.6738
      7 O1B         0.8829   -3.2145   -6.4078 O.co2     1 GTP        -0.8763
      8 O2B         2.0007   -0.8567   -6.8093 O.co2     1 GTP        -0.8763
      9 O3A         1.4933   -1.6431   -4.4688 O.3       1 GTP        -0.8005
     10 PA          2.8603   -2.1317   -3.7189 P.3       1 GTP         1.5754
     11 O1A         2.9465   -3.6405   -3.7989 O.co2     1 GTP        -0.8771
     12 O2A         4.0054   -1.2571   -4.1810 O.co2     1 GTP        -0.8771
     13 O5'         2.5245   -1.6648   -2.1878 O.3       1 GTP        -0.5809
     14 C5'         2.2816   -0.2918   -1.9206 C.3       1 GTP         0.1986
     15 C4'         2.7248    0.0226   -0.4980 C.3       1 GTP         0.0418
     16 O4'         2.4697    1.4219   -0.2462 O.3       1 GTP        -0.3505
     17 C3'         1.9404   -0.7419    0.5596 C.3       1 GTP         0.0909
     18 O3'         2.7418   -0.8086    1.7389 O.3       1 GTP        -0.6187
     19 C2'         0.7477    0.1630    0.7858 C.3       1 GTP         0.0706
     20 O2'         0.1373   -0.0577    2.0407 O.3       1 GTP        -0.6294
     21 C1'         1.3733    1.5427    0.6747 C.3       1 GTP         0.3895
     22 N9          0.4520    2.5240    0.1767 N.pl3     1 GTP        -0.4733
     23 C8          0.2012    2.8401   -1.0899 C.ar      1 GTP         0.2958
     24 N7         -0.7168    3.7990   -1.1981 N.pl3     1 GTP        -0.4933
     25 C5         -1.0645    4.1043    0.0896 C.ar      1 GTP        -0.1494
     26 C6         -2.0336    5.0870    0.5973 C.ar      1 GTP         0.7954
     27 O6         -2.6730    5.7839   -0.1834 O.2       1 GTP        -0.5729
     28 N1         -2.1539    5.1517    1.9868 N.2       1 GTP        -0.7443
     29 C2         -1.4288    4.3650    2.7566 C.ar      1 GTP         0.8831
     30 N2         -1.5126    4.3922    4.1250 N.pl3     1 GTP        -0.9204
     31 N3         -0.5167    3.4388    2.2748 N.pl3     1 GTP        -0.7173
     32 C4         -0.3638    3.3392    0.9318 C.ar      1 GTP         0.2626
     33 HOG3       -0.3205    1.0496   -7.7791 H         1 GTP         0.4102
     34 H5'         2.8432    0.3119   -2.6398 H         1 GTP         0.0289
     35 H5''        1.2128   -0.0927   -2.0428 H         1 GTP         0.0289
     36 H4'         3.8044   -0.1397   -0.4040 H         1 GTP         0.2056
     37 H3'         1.6764   -1.7639    0.2728 H         1 GTP         0.1140
     38 HO3'        2.2232   -1.2979    2.3953 H         1 GTP         0.4287
     39 H2'        -0.0011    0.0027    0.0003 H         1 GTP         0.0809
     40 HO2'       -0.1563   -0.9855    2.0596 H         1 GTP         0.4385
     41 H1'         1.7826    1.9024    1.6451 H         1 GTP         0.0794
     42 H8          0.6787    2.3803   -1.9373 H         1 GTP         0.3821
     43 HN21       -2.1462    5.0320    4.5446 H         1 GTP         0.4411
     44 HN22       -0.9365    3.7712    4.6440 H         1 GTP         0.4411
     45 H45         0.0318    2.8419    2.8816 H         1 GTP         0.4819
     46 H46        -1.0718    4.2049   -2.0526 H         1 GTP         0.5182
@<TRIPOS>BOND
     1    1    2 2
     2    1    3 1
     3    1    4 1
     4    1    5 1
     5    4   33 1
     6    5    6 1
     7    6    7 2
     8    6    8 1
     9    6    9 1
    10    9   10 1
    11   10   11 2
    12   10   12 1
    13   10   13 1
    14   13   14 1
    15   14   15 1
    16   14   34 1
    17   14   35 1
    18   15   16 1
    19   15   17 1
    20   15   36 1
    21   16   21 1
    22   17   18 1
    23   17   19 1
    24   17   37 1
    25   18   38 1
    26   19   20 1
    27   19   21 1
    28   19   39 1
    29   20   40 1
    30   21   22 1
    31   21   41 1
    32   22   23 ar
    33   22   32 ar
    34   23   24 ar
    35   23   42 1
    36   24   25 ar
    37   24   46 1
    38   25   26 ar
    39   25   32 ar
    40   26   27 2
    41   26   28 ar
    42   28   29 ar
    43   29   30 1
    44   29   31 ar
    45   30   43 1
    46   30   44 1
    47   31   32 ar
    48   31   45 1
@<TRIPOS>SUBSTRUCTURE
     1 GTP         1 GROUP 0 A     ****
@<TRIPOS>MOLECULE
[[[5-(2-amino-6-oxo-7,8-dihydro-3~{H}-purin-8-ylium-9-yl)-3,4-dihydroxy-tetrahydrofuran-2-yl]methoxy-oxido-phosphoryl]oxy-oxido-phosphoryl] hydrogen phosphate
   46    48     1     0     0
SMALL
USER_CHARGES

@<TRIPOS>ATOM
      1 PG          6.4815   -2.8799   -0.1213 P.3       1 GTP         1.5447
      2 O1G         7.9571   -2.7782   -0.4367 O.co2     1 GTP        -0.8705
      3 O2G         5.6647   -1.6439    0.1832 O.co2     1 GTP        -0.8705
      4 O3G         6.2844   -3.9455    1.1001 O.3       1 GTP        -0.7914
      5 O3B         5.7420   -3.7238   -1.3065 O.3       1 GTP        -0.8116
      6 PB          5.5080   -3.3379   -2.8756 P.3       1 GTP         1.6738
      7 O1B         6.8449   -2.9988   -3.4960 O.co2     1 GTP        -0.8763
      8 O2B         4.5803   -4.3558   -3.5009 O.co2     1 GTP        -0.8763
      9 O3A         4.6346   -1.9724   -2.6820 O.3       1 GTP        -0.8005
     10 PA          4.0010   -0.9663   -3.8028 P.3       1 GTP         1.5754
     11 O1A         5.1327   -0.3254   -4.5764 O.co2     1 GTP        -0.8771
     12 O2A         2.8739   -1.6823   -4.5145 O.co2     1 GTP        -0.8771
     13 O5'         3.2903    0.1346   -2.8241 O.3       1 GTP        -0.5809
     14 C5'         2.2816   -0.2918   -1.9206 C.3       1 GTP         0.1986
     15 C4'         2.7248    0.0226   -0.4980 C.3       1 GTP         0.0418
     16 O4'         2.4697    1.4219   -0.2462 O.3       1 GTP        -0.3505
     17 C3'         1.9404   -0.7419    0.5596 C.3       1 GTP         0.0909
     18 O3'         2.7418   -0.8086    1.7389 O.3       1 GTP        -0.6187
     19 C2'         0.7477    0.1630    0.7858 C.3       1 GTP         0.0706
     20 O2'         0.1373   -0.0577    2.0407 O.3       1 GTP        -0.6294
     21 C1'         1.3733    1.5427    0.6747 C.3       1 GTP         0.3895
     22 N9          0.4520    2.5240    0.1767 N.pl3     1 GTP        -0.4733
     23 C8          0.2012    2.8401   -1.0899 C.ar      1 GTP         0.2958
     24 N7         -0.7168    3.7990   -1.1981 N.pl3     1 GTP        -0.4933
     25 C5         -1.0645    4.1043    0.0896 C.ar      1 GTP        -0.1494
     26 C6         -2.0336    5.0870    0.5973 C.ar      1 GTP         0.7954
     27 O6         -2.6730    5.7839   -0.1834 O.2       1 GTP        -0.5729
     28 N1         -2.1539    5.1517    1.9868 N.2       1 GTP        -0.7443
     29 C2         -1.4288    4.3650    2.7566 C.ar      1 GTP         0.8831
     30 N2         -1.5126    4.3922    4.1250 N.pl3     1 GTP        -0.9204
     31 N3         -0.5167    3.4388    2.2748 N.pl3     1 GTP        -0.7173
     32 C4         -0.3638    3.3392    0.9318 C.ar      1 GTP         0.2626
     33 HOG3        5.3751   -4.1227    1.4228 H         1 GTP         0.4102
     34 H5'         1.3514    0.2330   -2.1577 H         1 GTP         0.0289
     35 H5''        2.1280   -1.3678   -2.0460 H         1 GTP         0.0289
     36 H4'         3.8044   -0.1397   -0.4040 H         1 GTP         0.2056
     37 H3'         1.6764   -1.7639    0.2728 H         1 GTP         0.1140
     38 HO3'        3.5554   -1.2733    1.4914 H         1 GTP         0.4287
     39 H2'        -0.0011    0.0027    0.0003 H         1 GTP         0.0809
     40 HO2'       -0.6141    0.5574    2.1082 H         1 GTP         0.4385
     41 H1'         1.7826    1.9024    1.6451 H         1 GTP         0.0794
     42 H8          0.6787    2.3803   -1.9373 H         1 GTP         0.3821
     43 HN21       -2.1462    5.0320    4.5446 H         1 GTP         0.4411
     44 HN22       -0.9365    3.7712    4.6440 H         1 GTP         0.4411
     45 H45         0.0318    2.8419    2.8816 H         1 GTP         0.4819
     46 H46        -1.0718    4.2049   -2.0526 H         1 GTP         0.5182
@<TRIPOS>BOND
     1    1    2 2
     2    1    3 1
     3    1    4 1
     4    1    5 1
     5    4   33 1
     6    5    6 1
     7    6    7 2
     8    6    8 1
     9    6    9 1
    10    9   10 1
    11   10   11 2
    12   10   12 1
    13   10   13 1
    14   13   14 1
    15   14   15 1
    16   14   34 1
    17   14   35 1
    18   15   16 1
    19   15   17 1
    20   15   36 1
    21   16   21 1
    22   17   18 1
    23   17   19 1
    24   17   37 1
    25   18   38 1
    26   19   20 1
    27   19   21 1
    28   19   39 1
    29   20   40 1
    30   21   22 1
    31   21   41 1
    32   22   23 ar
    33   22   32 ar
    34   23   24 ar
    35   23   42 1
    36   24   25 ar
    37   24   46 1
    38   25   26 ar
    39   25   32 ar
    40   26   27 2
    41   26   28 ar
    42   28   29 ar
    43   29   30 1
    44   29   31 ar
    45   30   43 1
    46   30   44 1
    47   31   32 ar
    48   31   45 1
@<TRIPOS>SUBSTRUCTURE
     1 GTP         1 GROUP 0 A     ****
@<TRIPOS>MOLECULE
[[[5-(2-amino-6-oxo-7,8-dihydro-3~{H}-purin-8-ylium-9-yl)-3,4-dihydroxy-tetrahydrofuran-2-yl]methoxy-oxido-phosphoryl]oxy-oxido-phosphoryl] hydrogen phosphate
   46    48     1     0     0
SMALL
USER_CHARGES

@<TRIPOS>ATOM
      1 PG          4.6406   -2.3210   -8.2384 P.3       1 GTP         1.5447
      2 O1G         5.6524   -3.4309   -8.0594 O.co2     1 GTP        -0.8705
      3 O2G         3.4435   -2.4994   -9.1454 O.co2     1 GTP        -0.8705
      4 O3G         5.4322   -0.9647   -8.6854 O.3       1 GTP        -0.7914
      5 O3B         4.1233   -1.8319   -6.7697 O.3       1 GTP        -0.8116
      6 PB          3.1578   -0.5792   -6.3647 P.3       1 GTP         1.6738
      7 O1B         3.8707    0.7113   -6.7022 O.co2     1 GTP        -0.8763
      8 O2B         1.7544   -0.8598   -6.8539 O.co2     1 GTP        -0.8763
      9 O3A         3.1328   -0.7809   -4.7450 O.3       1 GTP        -0.8005
     10 PA          2.6196   -2.0516   -3.8552 P.3       1 GTP         1.5754
     11 O1A         1.1298   -2.2200   -4.0616 O.co2     1 GTP        -0.8771
     12 O2A         3.5739   -3.2069   -4.0652 O.co2     1 GTP        -0.8771
     13 O5'         2.9216   -1.4836   -2.3516 O.3       1 GTP        -0.5809
     14 C5'         2.2816   -0.2918   -1.9206 C.3       1 GTP         0.1986
     15 C4'         2.7248    0.0226   -0.4980 C.3       1 GTP         0.0418
     16 O4'         2.4697    1.4219   -0.2462 O.3       1 GTP        -0.3505
     17 C3'         1.9404   -0.7419    0.5596 C.3       1 GTP         0.0909
     18 O3'         2.7418   -0.8086    1.7389 O.3       1 GTP        -0.6187
     19 C2'         0.7477    0.1630    0.7858 C.3       1 GTP         0.0706
     20 O2'         0.1373   -0.0577    2.0407 O.3       1 GTP        -0.6294
     21 C1'         1.3733    1.5427    0.6747 C.3       1 GTP         0.3895
     22 N9          0.4520    2.5240    0.1767 N.pl3     1 GTP        -0.4733
     23 C8          0.2012    2.8401   -1.0899 C.ar      1 GTP         0.2958
     24 N7         -0.7168    3.7990   -1.1981 N.pl3     1 GTP        -0.4933
     25 C5         -1.0645    4.1043    0.0896 C.ar      1 GTP        -0.1494
     26 C6         -2.0336    5.0870    0.5973 C.ar      1 GTP         0.7954
     27 O6         -2.6730    5.7839   -0.1834 O.2       1 GTP        -0.5729
     28 N1         -2.1539    5.1517    1.9868 N.2       1 GTP        -0.7443
     29 C2         -1.4288    4.3650    2.7566 C.ar      1 GTP         0.8831
     30 N2         -1.5126    4.3922    4.1250 N.pl3     1 GTP        -0.9204
     31 N3         -0.5167    3.4388    2.2748 N.pl3     1 GTP        -0.7173
     32 C4         -0.3638    3.3392    0.9318 C.ar      1 GTP         0.2626
     33 HOG3        4.9098   -0.1493   -8.8418 H         1 GTP         0.4102
     34 H5'         2.5589    0.5217   -2.5976 H         1 GTP         0.0289
     35 H5''        1.1982   -0.4388   -1.9617 H         1 GTP         0.0289
     36 H4'         3.8044   -0.1397   -0.4040 H         1 GTP         0.2056
     37 H3'         1.6764   -1.7639    0.2728 H         1 GTP         0.1140
     38 HO3'        2.2232   -1.2979    2.3953 H         1 GTP         0.4287
     39 H2'        -0.0011    0.0027    0.0003 H         1 GTP         0.0809
     40 HO2'       -0.1563   -0.9855    2.0596 H         1 GTP         0.4385
     41 H1'         1.7826    1.9024    1.6451 H         1 GTP         0.0794
     42 H8          0.6787    2.3803   -1.9373 H         1 GTP         0.3821
     43 HN21       -2.1462    5.0320    4.5446 H         1 GTP         0.4411
     44 HN22       -0.9365    3.7712    4.6440 H         1 GTP         0.4411
     45 H45         0.0318    2.8419    2.8816 H         1 GTP         0.4819
     46 H46        -1.0718    4.2049   -2.0526 H         1 GTP         0.5182
@<TRIPOS>BOND
     1    1    2 2
     2    1    3 1
     3    1    4 1
     4    1    5 1
     5    4   33 1
     6    5    6 1
     7    6    7 2
     8    6    8 1
     9    6    9 1
    10    9   10 1
    11   10   11 2
    12   10   12 1
    13   10   13 1
    14   13   14 1
    15   14   15 1
    16   14   34 1
    17   14   35 1
    18   15   16 1
    19   15   17 1
    20   15   36 1
    21   16   21 1
    22   17   18 1
    23   17   19 1
    24   17   37 1
    25   18   38 1
    26   19   20 1
    27   19   21 1
    28   19   39 1
    29   20   40 1
    30   21   22 1
    31   21   41 1
    32   22   23 ar
    33   22   32 ar
    34   23   24 ar
    35   23   42 1
    36   24   25 ar
    37   24   46 1
    38   25   26 ar
    39   25   32 ar
    40   26   27 2
    41   26   28 ar
    42   28   29 ar
    43   29   30 1
    44   29   31 ar
    45   30   43 1
    46   30   44 1
    47   31   32 ar
    48   31   45 1
@<TRIPOS>SUBSTRUCTURE
     1 GTP         1 GROUP 0 A     ****
@<TRIPOS>MOLECULE
[[[5-(2-amino-6-oxo-7,8-dihydro-3~{H}-purin-8-ylium-9-yl)-3,4-dihydroxy-tetrahydrofuran-2-yl]methoxy-oxido-phosphoryl]oxy-oxido-phosphoryl] hydrogen phosphate
   46    48     1     0     0
SMALL
USER_CHARGES

@<TRIPOS>ATOM
      1 PG          1.0608   -0.8325   -8.1440 P.3       1 GTP         1.5447
      2 O1G        -0.4395   -0.7002   -8.0061 O.co2     1 GTP        -0.8705
      3 O2G         1.8630    0.1882   -8.9201 O.co2     1 GTP        -0.8705
      4 O3G         1.3984   -2.3162   -8.7360 O.3       1 GTP        -0.7914
      5 O3B         1.7175   -1.0040   -6.6597 O.3       1 GTP        -0.8116
      6 PB          3.2576   -1.3334   -6.2291 P.3       1 GTP         1.6738
      7 O1B         3.6054   -2.7275   -6.7012 O.co2     1 GTP        -0.8763
      8 O2B         4.1288   -0.1434   -6.5645 O.co2     1 GTP        -0.8763
      9 O3A         3.0809   -1.3355   -4.6062 O.3       1 GTP        -0.8005
     10 PA          2.1372   -2.2718   -3.6563 P.3       1 GTP         1.5754
     11 O1A         0.6864   -1.9828   -3.9759 O.co2     1 GTP        -0.8771
     12 O2A         2.6769   -3.6852   -3.6801 O.co2     1 GTP        -0.8771
     13 O5'         2.5245   -1.6648   -2.1878 O.3       1 GTP        -0.5809
     14 C5'         2.2816   -0.2918   -1.9206 C.3       1 GTP         0.1986
     15 C4'         2.7248    0.0226   -0.4980 C.3       1 GTP         0.0418
     16 O4'         2.4697    1.4219   -0.2462 O.3       1 GTP        -0.3505
     17 C3'         1.9404   -0.7419    0.5596 C.3       1 GTP         0.0909
     18 O3'         2.7418   -0.8086    1.7389 O.3       1 GTP        -0.6187
     19 C2'         0.7477    0.1630    0.7858 C.3       1 GTP         0.0706
     20 O2'         0.1373   -0.0577    2.0407 O.3       1 GTP        -0.6294
     21 C1'         1.3733    1.5427    0.6747 C.3       1 GTP         0.3895
     22 N9          0.4520    2.5240    0.1767 N.pl3     1 GTP        -0.4733
     23 C8         -0.2136    2.5096   -0.9739 C.ar      1 GTP         0.2958
     24 N7         -0.9896    3.5820   -1.1212 N.pl3     1 GTP        -0.4933
     25 C5         -0.7962    4.3186    0.0156 C.ar      1 GTP        -0.1494
     26 C6         -1.3875    5.6031    0.4192 C.ar      1 GTP         0.7954
     27 O6         -2.1869    6.1731   -0.3158 O.2       1 GTP        -0.5729
     28 N1         -0.9745    6.0930    1.6597 N.2       1 GTP        -0.7443
     29 C2         -0.1105    5.4166    2.3900 C.ar      1 GTP         0.8831
     30 N2          0.3241    5.8571    3.6138 N.pl3     1 GTP        -0.9204
     31 N3          0.4444    4.2053    2.0072 N.pl3     1 GTP        -0.7173
     32 C4          0.0746    3.6889    0.8098 C.ar      1 GTP         0.2626
     33 HOG3        2.3378   -2.5575   -8.8835 H         1 GTP         0.4102
     34 H5'         2.8432    0.3119   -2.6398 H         1 GTP         0.0289
     35 H5''        1.2128   -0.0927   -2.0428 H         1 GTP         0.0289
     36 H4'         3.8044   -0.1397   -0.4040 H         1 GTP         0.2056
     37 H3'         1.6764   -1.7639    0.2728 H         1 GTP         0.1140
     38 HO3'        2.2232   -1.2979    2.3953 H         1 GTP         0.4287
     39 H2'        -0.0011    0.0027    0.0003 H         1 GTP         0.0809
     40 HO2'       -0.6141    0.5574    2.1082 H         1 GTP         0.4385
     41 H1'         1.7826    1.9024    1.6451 H         1 GTP         0.0794
     42 H8         -0.1415    1.7265   -1.7082 H         1 GTP         0.3821
     43 HN21       -0.0303    6.7197    3.9559 H         1 GTP         0.4411
     44 HN22        0.9765    5.2967    4.1108 H         1 GTP         0.4411
     45 H45         1.1068    3.6990    2.5819 H         1 GTP         0.4819
     46 H46        -1.5877    3.7943   -1.9074 H         1 GTP         0.5182
@<TRIPOS>BOND
     1    1    2 2
     2    1    3 1
     3    1    4 1
     4    1    5 1
     5    4   33 1
     6    5    6 1
     7    6    7 2
     8    6    8 1
     9    6    9 1
    10    9   10 1
    11   10   11 2
    12   10   12 1
    13   10   13 1
    14   13   14 1
    15   14   15 1
    16   14   34 1
    17   14   35 1
    18   15   16 1
    19   15   17 1
    20   15   36 1
    21   16   21 1
    22   17   18 1
    23   17   19 1
    24   17   37 1
    25   18   38 1
    26   19   20 1
    27   19   21 1
    28   19   39 1
    29   20   40 1
    30   21   22 1
    31   21   41 1
    32   22   23 ar
    33   22   32 ar
    34   23   24 ar
    35   23   42 1
    36   24   25 ar
    37   24   46 1
    38   25   26 ar
    39   25   32 ar
    40   26   27 2
    41   26   28 ar
    42   28   29 ar
    43   29   30 1
    44   29   31 ar
    45   30   43 1
    46   30   44 1
    47   31   32 ar
    48   31   45 1
@<TRIPOS>SUBSTRUCTURE
     1 GTP         1 GROUP 0 A     ****
@<TRIPOS>MOLECULE
[[[5-(2-amino-6-oxo-7,8-dihydro-3~{H}-purin-8-ylium-9-yl)-3,4-dihydroxy-tetrahydrofuran-2-yl]methoxy-oxido-phosphoryl]oxy-oxido-phosphoryl] hydrogen phosphate
   46    48     1     0     0
SMALL
USER_CHARGES

@<TRIPOS>ATOM
      1 PG         -0.3298    4.0153   -6.4781 P.3       1 GTP         1.5447
      2 O1G        -1.3840    3.2369   -7.2332 O.co2     1 GTP        -0.8705
      3 O2G        -0.7126    5.1606   -5.5674 O.co2     1 GTP        -0.8705
      4 O3G         0.7831    4.5516   -7.5457 O.3       1 GTP        -0.7914
      5 O3B         0.6090    2.9701   -5.6474 O.3       1 GTP        -0.8116
      6 PB          1.4216    1.6531   -6.1679 P.3       1 GTP         1.6738
      7 O1B         0.4209    0.6149   -6.6242 O.co2     1 GTP        -0.8763
      8 O2B         2.5629    2.0966   -7.0557 O.co2     1 GTP        -0.8763
      9 O3A         2.0898    1.1823   -4.7548 O.3       1 GTP        -0.8005
     10 PA          3.0675   -0.0857   -4.4293 P.3       1 GTP         1.5754
     11 O1A         2.3024   -1.3670   -4.6805 O.co2     1 GTP        -0.8771
     12 O2A         4.4130    0.1616   -5.0759 O.co2     1 GTP        -0.8771
     13 O5'         3.2903    0.1346   -2.8241 O.3       1 GTP        -0.5809
     14 C5'         2.2816   -0.2918   -1.9206 C.3       1 GTP         0.1986
     15 C4'         2.7248    0.0226   -0.4980 C.3       1 GTP         0.0418
     16 O4'         2.4697    1.4219   -0.2462 O.3       1 GTP        -0.3505
     17 C3'         1.9404   -0.7419    0.5596 C.3       1 GTP         0.0909
     18 O3'         2.7418   -0.8086    1.7389 O.3       1 GTP        -0.6187
     19 C2'         0.7477    0.1630    0.7858 C.3       1 GTP         0.0706
     20 O2'         0.1373   -0.0577    2.0407 O.3       1 GTP        -0.6294
     21 C1'         1.3733    1.5427    0.6747 C.3       1 GTP         0.3895
     22 N9          0.4520    2.5240    0.1767 N.pl3     1 GTP        -0.4733
     23 C8          0.5427    3.2356   -0.9425 C.ar      1 GTP         0.2958
     24 N7         -0.4919    4.0590   -1.1018 N.pl3     1 GTP        -0.4933
     25 C5         -1.2850    3.8484   -0.0069 C.ar      1 GTP        -0.1494
     26 C6         -2.5644    4.4707    0.3650 C.ar      1 GTP         0.7954
     27 O6         -3.0718    5.3200   -0.3599 O.2       1 GTP        -0.5729
     28 N1         -3.1239    4.0269    1.5647 N.2       1 GTP        -0.7443
     29 C2         -2.5133    3.1079    2.2858 C.ar      1 GTP         0.8831
     30 N2         -3.0239    2.6409    3.4697 N.pl3     1 GTP        -0.9204
     31 N3         -1.3076    2.5223    1.9320 N.pl3     1 GTP        -0.7173
     32 C4         -0.7246    2.9211    0.7753 C.ar      1 GTP         0.2626
     33 HOG3        1.5386    5.0782   -7.2077 H         1 GTP         0.4102
     34 H5'         1.3514    0.2330   -2.1577 H         1 GTP         0.0289
     35 H5''        2.1280   -1.3678   -2.0460 H         1 GTP         0.0289
     36 H4'         3.8044   -0.1397   -0.4040 H         1 GTP         0.2056
     37 H3'         1.6764   -1.7639    0.2728 H         1 GTP         0.1140
     38 HO3'        3.5554   -1.2733    1.4914 H         1 GTP         0.4287
     39 H2'        -0.0011    0.0027    0.0003 H         1 GTP         0.0809
     40 HO2'       -0.1563   -0.9855    2.0596 H         1 GTP         0.4385
     41 H1'         1.7826    1.9024    1.6451 H         1 GTP         0.0794
     42 H8          1.3539    3.1622   -1.6455 H         1 GTP         0.3821
     43 HN21       -3.8871    3.0143    3.7893 H         1 GTP         0.4411
     44 HN22       -2.5108    1.9472    3.9621 H         1 GTP         0.4411
     45 H45        -0.8530    1.8168    2.4986 H         1 GTP         0.4819
     46 H46        -0.6466    4.6966   -1.8702 H         1 GTP         0.5182
@<TRIPOS>BOND
     1    1    2 2
     2    1    3 1
     3    1    4 1
     4    1    5 1
     5    4   33 1
     6    5    6 1
     7    6    7 2
     8    6    8 1
     9    6    9 1
    10    9   10 1
    11   10   11 2
    12   10   12 1
    13   10   13 1
    14   13   14 1
    15   14   15 1
    16   14   34 1
    17   14   35 1
    18   15   16 1
    19   15   17 1
    20   15   36 1
    21   16   21 1
    22   17   18 1
    23   17   19 1
    24   17   37 1
    25   18   38 1
    26   19   20 1
    27   19   21 1
    28   19   39 1
    29   20   40 1
    30   21   22 1
    31   21   41 1
    32   22   23 ar
    33   22   32 ar
    34   23   24 ar
    35   23   42 1
    36   24   25 ar
    37   24   46 1
    38   25   26 ar
    39   25   32 ar
    40   26   27 2
    41   26   28 ar
    42   28   29 ar
    43   29   30 1
    44   29   31 ar
    45   30   43 1
    46   30   44 1
    47   31   32 ar
    48   31   45 1
@<TRIPOS>SUBSTRUCTURE
     1 GTP         1 GROUP 0 A     ****
@<TRIPOS>MOLECULE
[[[5-(2-amino-6-oxo-7,8-dihydro-3~{H}-purin-8-ylium-9-yl)-3,4-dihydroxy-tetrahydrofuran-2-yl]methoxy-oxido-phosphoryl]oxy-oxido-phosphoryl] hydrogen phosphate
   46    48     1     0     0
SMALL
USER_CHARGES

@<TRIPOS>ATOM
      1 PG         -0.8473    0.4039   -7.4196 P.3       1 GTP         1.5447
      2 O1G        -1.6010   -0.8643   -7.7530 O.co2     1 GTP        -0.8705
      3 O2G        -1.5827    1.6586   -7.0042 O.co2     1 GTP        -0.8705
      4 O3G         0.1338    0.7687   -8.6727 O.3       1 GTP        -0.7914
      5 O3B         0.2941    0.0655   -6.3031 O.3       1 GTP        -0.8116
      6 PB          1.4668   -1.0703   -6.3172 P.3       1 GTP         1.6738
      7 O1B         0.8190   -2.4365   -6.2779 O.co2     1 GTP        -0.8763
      8 O2B         2.4904   -0.7095   -7.3705 O.co2     1 GTP        -0.8763
      9 O3A         2.1568   -0.7522   -4.8724 O.3       1 GTP        -0.8005
     10 PA          2.8621    0.6170   -4.3270 P.3       1 GTP         1.5754
     11 O1A         4.0956    0.8937   -5.1591 O.co2     1 GTP        -0.8771
     12 O2A         1.7927    1.6709   -4.1390 O.co2     1 GTP        -0.8771
     13 O5'         3.2903    0.1346   -2.8241 O.3       1 GTP        -0.5809
     14 C5'         2.2816   -0.2918   -1.9206 C.3       1 GTP         0.1986
     15 C4'         2.7248    0.0226   -0.4980 C.3       1 GTP         0.0418
     16 O4'         2.4697    1.4219   -0.2462 O.3       1 GTP        -0.3505
     17 C3'         1.9404   -0.7419    0.5596 C.3       1 GTP         0.0909
     18 O3'         2.7418   -0.8086    1.7389 O.3       1 GTP        -0.6187
     19 C2'         0.7477    0.1630    0.7858 C.3       1 GTP         0.0706
     20 O2'         0.1373   -0.0577    2.0407 O.3       1 GTP        -0.6294
     21 C1'         1.3733    1.5427    0.6747 C.3       1 GTP         0.3895
     22 N9          0.4520    2.5240    0.1767 N.pl3     1 GTP        -0.4733
     23 C8          0.2012    2.8401   -1.0899 C.ar      1 GTP         0.2958
     24 N7         -0.7168    3.7990   -1.1981 N.pl3     1 GTP        -0.4933
     25 C5         -1.0645    4.1043    0.0896 C.ar      1 GTP        -0.1494
     26 C6         -2.0336    5.0870    0.5973 C.ar      1 GTP         0.7954
     27 O6         -2.6730    5.7839   -0.1834 O.2       1 GTP        -0.5729
     28 N1         -2.1539    5.1517    1.9868 N.2       1 GTP        -0.7443
     29 C2         -1.4288    4.3650    2.7566 C.ar      1 GTP         0.8831
     30 N2         -1.5126    4.3922    4.1250 N.pl3     1 GTP        -0.9204
     31 N3         -0.5167    3.4388    2.2748 N.pl3     1 GTP        -0.7173
     32 C4         -0.3638    3.3392    0.9318 C.ar      1 GTP         0.2626
     33 HOG3        0.6940    1.5714   -8.6086 H         1 GTP         0.4102
     34 H5'         1.3514    0.2330   -2.1577 H         1 GTP         0.0289
     35 H5''        2.1280   -1.3678   -2.0460 H         1 GTP         0.0289
     36 H4'         3.8044   -0.1397   -0.4040 H         1 GTP         0.2056
     37 H3'         1.6764   -1.7639    0.2728 H         1 GTP         0.1140
     38 HO3'        2.2232   -1.2979    2.3953 H         1 GTP         0.4287
     39 H2'        -0.0011    0.0027    0.0003 H         1 GTP         0.0809
     40 HO2'       -0.6141    0.5574    2.1082 H         1 GTP         0.4385
     41 H1'         1.7826    1.9024    1.6451 H         1 GTP         0.0794
     42 H8          0.6787    2.3803   -1.9373 H         1 GTP         0.3821
     43 HN21       -2.1462    5.0320    4.5446 H         1 GTP         0.4411
     44 HN22       -0.9365    3.7712    4.6440 H         1 GTP         0.4411
     45 H45         0.0318    2.8419    2.8816 H         1 GTP         0.4819
     46 H46        -1.0718    4.2049   -2.0526 H         1 GTP         0.5182
@<TRIPOS>BOND
     1    1    2 2
     2    1    3 1
     3    1    4 1
     4    1    5 1
     5    4   33 1
     6    5    6 1
     7    6    7 2
     8    6    8 1
     9    6    9 1
    10    9   10 1
    11   10   11 2
    12   10   12 1
    13   10   13 1
    14   13   14 1
    15   14   15 1
    16   14   34 1
    17   14   35 1
    18   15   16 1
    19   15   17 1
    20   15   36 1
    21   16   21 1
    22   17   18 1
    23   17   19 1
    24   17   37 1
    25   18   38 1
    26   19   20 1
    27   19   21 1
    28   19   39 1
    29   20   40 1
    30   21   22 1
    31   21   41 1
    32   22   23 ar
    33   22   32 ar
    34   23   24 ar
    35   23   42 1
    36   24   25 ar
    37   24   46 1
    38   25   26 ar
    39   25   32 ar
    40   26   27 2
    41   26   28 ar
    42   28   29 ar
    43   29   30 1
    44   29   31 ar
    45   30   43 1
    46   30   44 1
    47   31   32 ar
    48   31   45 1
@<TRIPOS>SUBSTRUCTURE
     1 GTP         1 GROUP 0 A     ****
@<TRIPOS>MOLECULE
[[[5-(2-amino-6-oxo-7,8-dihydro-3~{H}-purin-8-ylium-9-yl)-3,4-dihydroxy-tetrahydrofuran-2-yl]methoxy-oxido-phosphoryl]oxy-oxido-phosphoryl] hydrogen phosphate
   46    48     1     0     0
SMALL
USER_CHARGES

@<TRIPOS>ATOM
      1 PG         -4.4866   -6.2824    6.8103 P.3       1 GTP         1.5447
      2 O1G        -5.4978   -5.2065    7.1379 O.co2     1 GTP        -0.8705
      3 O2G        -4.8677   -7.7455    6.8507 O.co2     1 GTP        -0.8705
      4 O3G        -3.1718   -6.0629    7.7533 O.3       1 GTP        -0.7914
      5 O3B        -3.8096   -5.9520    5.3625 O.3       1 GTP        -0.8116
      6 PB         -4.4764   -5.9495    3.8722 P.3       1 GTP         1.6738
      7 O1B        -4.8829   -7.3632    3.5206 O.co2     1 GTP        -0.8763
      8 O2B        -5.4502   -4.7968    3.7694 O.co2     1 GTP        -0.8763
      9 O3A        -3.1638   -5.5263    2.9987 O.3       1 GTP        -0.8005
     10 PA         -1.7207   -6.2770    2.8455 P.3       1 GTP         1.5754
     11 O1A        -1.0265   -6.2759    4.1903 O.co2     1 GTP        -0.8771
     12 O2A        -1.9224   -7.5608    2.0704 O.co2     1 GTP        -0.8771
     13 O5'        -0.9724   -5.2440    1.8220 O.3       1 GTP        -0.5809
     14 C5'        -0.7840   -3.8935    2.2172 C.3       1 GTP         0.1986
     15 C4'        -0.0724   -3.1466    1.1027 C.3       1 GTP         0.0418
     16 O4'        -0.8674   -3.1929   -0.0945 O.3       1 GTP        -0.3505
     17 C3'         0.1338   -1.6715    1.4027 C.3       1 GTP         0.0909
     18 O3'         1.2893   -1.4445    2.1808 O.3       1 GTP        -0.6187
     19 C2'         0.2158   -1.0724    0.0128 C.3       1 GTP         0.0706
     20 O2'         1.5141   -1.2448   -0.5513 O.3       1 GTP        -0.6294
     21 C1'        -0.7897   -1.9176   -0.7583 C.3       1 GTP         0.3895
     22 N9         -2.1040   -1.3333   -0.7704 N.pl3     1 GTP        -0.4733
     23 C8         -3.0774   -1.4939    0.1205 C.ar      1 GTP         0.2958
     24 N7         -4.1709   -0.8031   -0.1972 N.pl3     1 GTP        -0.4933
     25 C5         -3.8606   -0.1662   -1.3678 C.ar      1 GTP        -0.1494
     26 C6         -4.6738    0.7391   -2.1934 C.ar      1 GTP         0.7954
     27 O6         -5.8186    1.0214   -1.8562 O.2       1 GTP        -0.5729
     28 N1         -4.0520    1.2260   -3.3448 N.2       1 GTP        -0.7443
     29 C2         -2.8155    0.8734   -3.6351 C.ar      1 GTP         0.8831
     30 N2         -2.1637    1.3257   -4.7536 N.pl3     1 GTP        -0.9204
     31 N3         -2.0511    0.0205   -2.8541 N.pl3     1 GTP        -0.7173
     32 C4         -2.6117   -0.4790   -1.7258 C.ar      1 GTP         0.2626
     33 HOG3       -2.4203   -6.6862    7.6590 H         1 GTP         0.4102
     34 H5'        -1.7618   -3.4448    2.4164 H         1 GTP         0.0289
     35 H5''       -0.1874   -3.8744    3.1341 H         1 GTP         0.0289
     36 H4'         0.8874   -3.6466    0.8805 H         1 GTP         0.2056
     37 H3'        -0.7376   -1.2333    1.9867 H         1 GTP         0.1140
     38 HO3'        1.3408   -0.4870    2.3219 H         1 GTP         0.4287
     39 H2'        -0.0384   -0.0310    0.0096 H         1 GTP         0.0809
     40 HO2'        2.1463   -0.7958    0.0370 H         1 GTP         0.4385
     41 H1'        -0.4769   -2.1002   -1.8093 H         1 GTP         0.0794
     42 H8         -3.0010   -2.1083    1.0004 H         1 GTP         0.3821
     43 HN21       -2.6485    1.9422   -5.3633 H         1 GTP         0.4411
     44 HN22       -1.2319    1.0195   -4.9110 H         1 GTP         0.4411
     45 H45        -1.1018   -0.2391   -3.0927 H         1 GTP         0.4819
     46 H46        -5.0365   -0.7653    0.3226 H         1 GTP         0.5182
@<TRIPOS>BOND
     1    1    2 2
     2    1    3 1
     3    1    4 1
     4    1    5 1
     5    4   33 1
     6    5    6 1
     7    6    7 2
     8    6    8 1
     9    6    9 1
    10    9   10 1
    11   10   11 2
    12   10   12 1
    13   10   13 1
    14   13   14 1
    15   14   15 1
    16   14   34 1
    17   14   35 1
    18   15   16 1
    19   15   17 1
    20   15   36 1
    21   16   21 1
    22   17   18 1
    23   17   19 1
    24   17   37 1
    25   18   38 1
    26   19   20 1
    27   19   21 1
    28   19   39 1
    29   20   40 1
    30   21   22 1
    31   21   41 1
    32   22   23 ar
    33   22   32 ar
    34   23   24 ar
    35   23   42 1
    36   24   25 ar
    37   24   46 1
    38   25   26 ar
    39   25   32 ar
    40   26   27 2
    41   26   28 ar
    42   28   29 ar
    43   29   30 1
    44   29   31 ar
    45   30   43 1
    46   30   44 1
    47   31   32 ar
    48   31   45 1
@<TRIPOS>SUBSTRUCTURE
     1 GTP         1 GROUP 0 A     ****
@<TRIPOS>MOLECULE
[[[5-(2-amino-6-oxo-7,8-dihydro-3~{H}-purin-8-ylium-9-yl)-3,4-dihydroxy-tetrahydrofuran-2-yl]methoxy-oxido-phosphoryl]oxy-oxido-phosphoryl] hydrogen phosphate
   46    48     1     0     0
SMALL
USER_CHARGES

@<TRIPOS>ATOM
      1 PG         -6.5341   -5.3315    4.5370 P.3       1 GTP         1.5447
      2 O1G        -6.0943   -5.3844    5.9831 O.co2     1 GTP        -0.8705
      3 O2G        -7.5506   -4.3133    4.0704 O.co2     1 GTP        -0.8705
      4 O3G        -7.0488   -6.8172    4.0967 O.3       1 GTP        -0.7914
      5 O3B        -5.2131   -5.2355    3.5833 O.3       1 GTP        -0.8116
      6 PB         -5.0903   -5.3033    1.9566 P.3       1 GTP         1.6738
      7 O1B        -5.4985   -6.6851    1.4968 O.co2     1 GTP        -0.8763
      8 O2B        -5.7077   -4.0567    1.3630 O.co2     1 GTP        -0.8763
      9 O3A        -3.4733   -5.1349    1.8088 O.3       1 GTP        -0.8005
     10 PA         -2.2652   -6.0681    2.3913 P.3       1 GTP         1.5754
     11 O1A        -2.2952   -6.0149    3.9035 O.co2     1 GTP        -0.8771
     12 O2A        -2.2759   -7.3899    1.6547 O.co2     1 GTP        -0.8771
     13 O5'        -0.9724   -5.2440    1.8220 O.3       1 GTP        -0.5809
     14 C5'        -0.7840   -3.8935    2.2172 C.3       1 GTP         0.1986
     15 C4'        -0.0724   -3.1466    1.1027 C.3       1 GTP         0.0418
     16 O4'        -0.8674   -3.1929   -0.0945 O.3       1 GTP        -0.3505
     17 C3'         0.1338   -1.6715    1.4027 C.3       1 GTP         0.0909
     18 O3'         1.2893   -1.4445    2.1808 O.3       1 GTP        -0.6187
     19 C2'         0.2158   -1.0724    0.0128 C.3       1 GTP         0.0706
     20 O2'         1.5141   -1.2448   -0.5513 O.3       1 GTP        -0.6294
     21 C1'        -0.7897   -1.9176   -0.7583 C.3       1 GTP         0.3895
     22 N9         -2.1040   -1.3333   -0.7704 N.pl3     1 GTP        -0.4733
     23 C8         -3.0774   -1.4939    0.1205 C.ar      1 GTP         0.2958
     24 N7         -4.1709   -0.8031   -0.1972 N.pl3     1 GTP        -0.4933
     25 C5         -3.8606   -0.1662   -1.3678 C.ar      1 GTP        -0.1494
     26 C6         -4.6738    0.7391   -2.1934 C.ar      1 GTP         0.7954
     27 O6         -5.8186    1.0214   -1.8562 O.2       1 GTP        -0.5729
     28 N1         -4.0520    1.2260   -3.3448 N.2       1 GTP        -0.7443
     29 C2         -2.8155    0.8734   -3.6351 C.ar      1 GTP         0.8831
     30 N2         -2.1637    1.3257   -4.7536 N.pl3     1 GTP        -0.9204
     31 N3         -2.0511    0.0205   -2.8541 N.pl3     1 GTP        -0.7173
     32 C4         -2.6117   -0.4790   -1.7258 C.ar      1 GTP         0.2626
     33 HOG3       -7.3694   -6.9472    3.1788 H         1 GTP         0.4102
     34 H5'        -1.7618   -3.4448    2.4164 H         1 GTP         0.0289
     35 H5''       -0.1874   -3.8744    3.1341 H         1 GTP         0.0289
     36 H4'         0.8874   -3.6466    0.8805 H         1 GTP         0.2056
     37 H3'        -0.7376   -1.2333    1.9867 H         1 GTP         0.1140
     38 HO3'        1.3408   -0.4870    2.3219 H         1 GTP         0.4287
     39 H2'        -0.0384   -0.0310    0.0096 H         1 GTP         0.0809
     40 HO2'        2.1463   -0.7958    0.0370 H         1 GTP         0.4385
     41 H1'        -0.4769   -2.1002   -1.8093 H         1 GTP         0.0794
     42 H8         -3.0010   -2.1083    1.0004 H         1 GTP         0.3821
     43 HN21       -2.6485    1.9422   -5.3633 H         1 GTP         0.4411
     44 HN22       -1.2319    1.0195   -4.9110 H         1 GTP         0.4411
     45 H45        -1.1018   -0.2391   -3.0927 H         1 GTP         0.4819
     46 H46        -5.0365   -0.7653    0.3226 H         1 GTP         0.5182
@<TRIPOS>BOND
     1    1    2 2
     2    1    3 1
     3    1    4 1
     4    1    5 1
     5    4   33 1
     6    5    6 1
     7    6    7 2
     8    6    8 1
     9    6    9 1
    10    9   10 1
    11   10   11 2
    12   10   12 1
    13   10   13 1
    14   13   14 1
    15   14   15 1
    16   14   34 1
    17   14   35 1
    18   15   16 1
    19   15   17 1
    20   15   36 1
    21   16   21 1
    22   17   18 1
    23   17   19 1
    24   17   37 1
    25   18   38 1
    26   19   20 1
    27   19   21 1
    28   19   39 1
    29   20   40 1
    30   21   22 1
    31   21   41 1
    32   22   23 ar
    33   22   32 ar
    34   23   24 ar
    35   23   42 1
    36   24   25 ar
    37   24   46 1
    38   25   26 ar
    39   25   32 ar
    40   26   27 2
    41   26   28 ar
    42   28   29 ar
    43   29   30 1
    44   29   31 ar
    45   30   43 1
    46   30   44 1
    47   31   32 ar
    48   31   45 1
@<TRIPOS>SUBSTRUCTURE
     1 GTP         1 GROUP 0 A     ****
@<TRIPOS>MOLECULE
[[[5-(2-amino-6-oxo-7,8-dihydro-3~{H}-purin-8-ylium-9-yl)-3,4-dihydroxy-tetrahydrofuran-2-yl]methoxy-oxido-phosphoryl]oxy-oxido-phosphoryl] hydrogen phosphate
   46    48     1     0     0
SMALL
USER_CHARGES

@<TRIPOS>ATOM
      1 PG         -1.2034   -1.8522   -7.1253 P.3       1 GTP         1.5447
      2 O1G        -2.6944   -1.8630   -6.8718 O.co2     1 GTP        -0.8705
      3 O2G        -0.5629   -0.7569   -7.9485 O.co2     1 GTP        -0.8705
      4 O3G        -0.7745   -3.2948   -7.7584 O.3       1 GTP        -0.7914
      5 O3B        -0.4210   -1.9670   -5.6975 O.3       1 GTP        -0.8116
      6 PB         -0.5860   -3.0642   -4.4998 P.3       1 GTP         1.6738
      7 O1B        -1.9650   -2.9191   -3.8959 O.co2     1 GTP        -0.8763
      8 O2B        -0.0693   -4.4016   -4.9814 O.co2     1 GTP        -0.8763
      9 O3A         0.5293   -2.4845   -3.4582 O.3       1 GTP        -0.8005
     10 PA          2.1372   -2.2718   -3.6563 P.3       1 GTP         1.5754
     11 O1A         2.7866   -3.6248   -3.8512 O.co2     1 GTP        -0.8771
     12 O2A         2.3589   -1.1479   -4.6449 O.co2     1 GTP        -0.8771
     13 O5'         2.5245   -1.6648   -2.1878 O.3       1 GTP        -0.5809
     14 C5'         2.2816   -0.2918   -1.9206 C.3       1 GTP         0.1986
     15 C4'         2.7248    0.0226   -0.4980 C.3       1 GTP         0.0418
     16 O4'         2.4697    1.4219   -0.2462 O.3       1 GTP        -0.3505
     17 C3'         1.9404   -0.7419    0.5596 C.3       1 GTP         0.0909
     18 O3'         2.7418   -0.8086    1.7389 O.3       1 GTP        -0.6187
     19 C2'         0.7477    0.1630    0.7858 C.3       1 GTP         0.0706
     20 O2'         0.1373   -0.0577    2.0407 O.3       1 GTP        -0.6294
     21 C1'         1.3733    1.5427    0.6747 C.3       1 GTP         0.3895
     22 N9          0.4520    2.5240    0.1767 N.pl3     1 GTP        -0.4733
     23 C8          0.2012    2.8401   -1.0899 C.ar      1 GTP         0.2958
     24 N7         -0.7168    3.7990   -1.1981 N.pl3     1 GTP        -0.4933
     25 C5         -1.0645    4.1043    0.0896 C.ar      1 GTP        -0.1494
     26 C6         -2.0336    5.0870    0.5973 C.ar      1 GTP         0.7954
     27 O6         -2.6730    5.7839   -0.1834 O.2       1 GTP        -0.5729
     28 N1         -2.1539    5.1517    1.9868 N.2       1 GTP        -0.7443
     29 C2         -1.4288    4.3650    2.7566 C.ar      1 GTP         0.8831
     30 N2         -1.5126    4.3922    4.1250 N.pl3     1 GTP        -0.9204
     31 N3         -0.5167    3.4388    2.2748 N.pl3     1 GTP        -0.7173
     32 C4         -0.3638    3.3392    0.9318 C.ar      1 GTP         0.2626
     33 HOG3        0.1692   -3.4454   -7.9799 H         1 GTP         0.4102
     34 H5'         2.8432    0.3119   -2.6398 H         1 GTP         0.0289
     35 H5''        1.2128   -0.0927   -2.0428 H         1 GTP         0.0289
     36 H4'         3.8044   -0.1397   -0.4040 H         1 GTP         0.2056
     37 H3'         1.6764   -1.7639    0.2728 H         1 GTP         0.1140
     38 HO3'        2.2232   -1.2979    2.3953 H         1 GTP         0.4287
     39 H2'        -0.0011    0.0027    0.0003 H         1 GTP         0.0809
     40 HO2'       -0.6141    0.5574    2.1082 H         1 GTP         0.4385
     41 H1'         1.7826    1.9024    1.6451 H         1 GTP         0.0794
     42 H8          0.6787    2.3803   -1.9373 H         1 GTP         0.3821
     43 HN21       -2.1462    5.0320    4.5446 H         1 GTP         0.4411
     44 HN22       -0.9365    3.7712    4.6440 H         1 GTP         0.4411
     45 H45         0.0318    2.8419    2.8816 H         1 GTP         0.4819
     46 H46        -1.0718    4.2049   -2.0526 H         1 GTP         0.5182
@<TRIPOS>BOND
     1    1    2 2
     2    1    3 1
     3    1    4 1
     4    1    5 1
     5    4   33 1
     6    5    6 1
     7    6    7 2
     8    6    8 1
     9    6    9 1
    10    9   10 1
    11   10   11 2
    12   10   12 1
    13   10   13 1
    14   13   14 1
    15   14   15 1
    16   14   34 1
    17   14   35 1
    18   15   16 1
    19   15   17 1
    20   15   36 1
    21   16   21 1
    22   17   18 1
    23   17   19 1
    24   17   37 1
    25   18   38 1
    26   19   20 1
    27   19   21 1
    28   19   39 1
    29   20   40 1
    30   21   22 1
    31   21   41 1
    32   22   23 ar
    33   22   32 ar
    34   23   24 ar
    35   23   42 1
    36   24   25 ar
    37   24   46 1
    38   25   26 ar
    39   25   32 ar
    40   26   27 2
    41   26   28 ar
    42   28   29 ar
    43   29   30 1
    44   29   31 ar
    45   30   43 1
    46   30   44 1
    47   31   32 ar
    48   31   45 1
@<TRIPOS>SUBSTRUCTURE
     1 GTP         1 GROUP 0 A     ****
@<TRIPOS>MOLECULE
[[[5-(2-amino-6-oxo-7,8-dihydro-3~{H}-purin-8-ylium-9-yl)-3,4-dihydroxy-tetrahydrofuran-2-yl]methoxy-oxido-phosphoryl]oxy-oxido-phosphoryl] hydrogen phosphate
   46    48     1     0     0
SMALL
USER_CHARGES

@<TRIPOS>ATOM
      1 PG         -1.2434   -0.7126   -7.3235 P.3       1 GTP         1.5447
      2 O1G        -2.4117    0.2167   -7.0813 O.co2     1 GTP        -0.8705
      3 O2G        -0.6133   -0.8282   -8.6937 O.co2     1 GTP        -0.8705
      4 O3G        -1.6561   -2.2082   -6.8149 O.3       1 GTP        -0.7914
      5 O3B        -0.0751   -0.3936   -6.2293 O.3       1 GTP        -0.8116
      6 PB          0.8569    0.9350   -6.0516 P.3       1 GTP         1.6738
      7 O1B         1.7557    1.0621   -7.2614 O.co2     1 GTP        -0.8763
      8 O2B        -0.0070    2.0845   -5.5828 O.co2     1 GTP        -0.8763
      9 O3A         1.7410    0.4642   -4.7626 O.3       1 GTP        -0.8005
     10 PA          2.9232    1.2546   -3.9579 P.3       1 GTP         1.5754
     11 O1A         4.0962    1.4572   -4.8924 O.co2     1 GTP        -0.8771
     12 O2A         2.3071    2.4181   -3.2121 O.co2     1 GTP        -0.8771
     13 O5'         3.2903    0.1346   -2.8241 O.3       1 GTP        -0.5809
     14 C5'         2.2816   -0.2918   -1.9206 C.3       1 GTP         0.1986
     15 C4'         2.7248    0.0226   -0.4980 C.3       1 GTP         0.0418
     16 O4'         2.4697    1.4219   -0.2462 O.3       1 GTP        -0.3505
     17 C3'         1.9404   -0.7419    0.5596 C.3       1 GTP         0.0909
     18 O3'         2.7418   -0.8086    1.7389 O.3       1 GTP        -0.6187
     19 C2'         0.7477    0.1630    0.7858 C.3       1 GTP         0.0706
     20 O2'         0.1373   -0.0577    2.0407 O.3       1 GTP        -0.6294
     21 C1'         1.3733    1.5427    0.6747 C.3       1 GTP         0.3895
     22 N9          0.4520    2.5240    0.1767 N.pl3     1 GTP        -0.4733
     23 C8         -0.2136    2.5096   -0.9739 C.ar      1 GTP         0.2958
     24 N7         -0.9896    3.5820   -1.1212 N.pl3     1 GTP        -0.4933
     25 C5         -0.7962    4.3186    0.0156 C.ar      1 GTP        -0.1494
     26 C6         -1.3875    5.6031    0.4192 C.ar      1 GTP         0.7954
     27 O6         -2.1869    6.1731   -0.3158 O.2       1 GTP        -0.5729
     28 N1         -0.9745    6.0930    1.6597 N.2       1 GTP        -0.7443
     29 C2         -0.1105    5.4166    2.3900 C.ar      1 GTP         0.8831
     30 N2          0.3241    5.8571    3.6138 N.pl3     1 GTP        -0.9204
     31 N3          0.4444    4.2053    2.0072 N.pl3     1 GTP        -0.7173
     32 C4          0.0746    3.6889    0.8098 C.ar      1 GTP         0.2626
     33 HOG3       -0.9982   -2.9302   -6.9053 H         1 GTP         0.4102
     34 H5'         1.3514    0.2330   -2.1577 H         1 GTP         0.0289
     35 H5''        2.1280   -1.3678   -2.0460 H         1 GTP         0.0289
     36 H4'         3.8044   -0.1397   -0.4040 H         1 GTP         0.2056
     37 H3'         1.6764   -1.7639    0.2728 H         1 GTP         0.1140
     38 HO3'        2.2232   -1.2979    2.3953 H         1 GTP         0.4287
     39 H2'        -0.0011    0.0027    0.0003 H         1 GTP         0.0809
     40 HO2'       -0.6141    0.5574    2.1082 H         1 GTP         0.4385
     41 H1'         1.7826    1.9024    1.6451 H         1 GTP         0.0794
     42 H8         -0.1415    1.7265   -1.7082 H         1 GTP         0.3821
     43 HN21       -0.0303    6.7197    3.9559 H         1 GTP         0.4411
     44 HN22        0.9765    5.2967    4.1108 H         1 GTP         0.4411
     45 H45         1.1068    3.6990    2.5819 H         1 GTP         0.4819
     46 H46        -1.5877    3.7943   -1.9074 H         1 GTP         0.5182
@<TRIPOS>BOND
     1    1    2 2
     2    1    3 1
     3    1    4 1
     4    1    5 1
     5    4   33 1
     6    5    6 1
     7    6    7 2
     8    6    8 1
     9    6    9 1
    10    9   10 1
    11   10   11 2
    12   10   12 1
    13   10   13 1
    14   13   14 1
    15   14   15 1
    16   14   34 1
    17   14   35 1
    18   15   16 1
    19   15   17 1
    20   15   36 1
    21   16   21 1
    22   17   18 1
    23   17   19 1
    24   17   37 1
    25   18   38 1
    26   19   20 1
    27   19   21 1
    28   19   39 1
    29   20   40 1
    30   21   22 1
    31   21   41 1
    32   22   23 ar
    33   22   32 ar
    34   23   24 ar
    35   23   42 1
    36   24   25 ar
    37   24   46 1
    38   25   26 ar
    39   25   32 ar
    40   26   27 2
    41   26   28 ar
    42   28   29 ar
    43   29   30 1
    44   29   31 ar
    45   30   43 1
    46   30   44 1
    47   31   32 ar
    48   31   45 1
@<TRIPOS>SUBSTRUCTURE
     1 GTP         1 GROUP 0 A     ****
@<TRIPOS>MOLECULE
[[[5-(2-amino-6-oxo-7,8-dihydro-3~{H}-purin-8-ylium-9-yl)-3,4-dihydroxy-tetrahydrofuran-2-yl]methoxy-oxido-phosphoryl]oxy-oxido-phosphoryl] hydrogen phosphate
   46    48     1     0     0
SMALL
USER_CHARGES

@<TRIPOS>ATOM
      1 PG         -0.8912    3.3195   -6.0925 P.3       1 GTP         1.5447
      2 O1G        -1.3704    4.2856   -5.0321 O.co2     1 GTP        -0.8705
      3 O2G        -0.3107    3.8213   -7.3959 O.co2     1 GTP        -0.8705
      4 O3G        -2.1025    2.2784   -6.4312 O.3       1 GTP        -0.7914
      5 O3B         0.1572    2.2667   -5.4171 O.3       1 GTP        -0.8116
      6 PB          0.8569    0.9350   -6.0516 P.3       1 GTP         1.6738
      7 O1B        -0.2181   -0.0920   -6.3292 O.co2     1 GTP        -0.8763
      8 O2B         1.8434    1.3566   -7.1177 O.co2     1 GTP        -0.8763
      9 O3A         1.7410    0.4642   -4.7626 O.3       1 GTP        -0.8005
     10 PA          2.9232    1.2546   -3.9579 P.3       1 GTP         1.5754
     11 O1A         4.0962    1.4572   -4.8924 O.co2     1 GTP        -0.8771
     12 O2A         2.3071    2.4181   -3.2121 O.co2     1 GTP        -0.8771
     13 O5'         3.2903    0.1346   -2.8241 O.3       1 GTP        -0.5809
     14 C5'         2.2816   -0.2918   -1.9206 C.3       1 GTP         0.1986
     15 C4'         2.7248    0.0226   -0.4980 C.3       1 GTP         0.0418
     16 O4'         2.4697    1.4219   -0.2462 O.3       1 GTP        -0.3505
     17 C3'         1.9404   -0.7419    0.5596 C.3       1 GTP         0.0909
     18 O3'         2.7418   -0.8086    1.7389 O.3       1 GTP        -0.6187
     19 C2'         0.7477    0.1630    0.7858 C.3       1 GTP         0.0706
     20 O2'         0.1373   -0.0577    2.0407 O.3       1 GTP        -0.6294
     21 C1'         1.3733    1.5427    0.6747 C.3       1 GTP         0.3895
     22 N9          0.4520    2.5240    0.1767 N.pl3     1 GTP        -0.4733
     23 C8         -0.2136    2.5096   -0.9739 C.ar      1 GTP         0.2958
     24 N7         -0.9896    3.5820   -1.1212 N.pl3     1 GTP        -0.4933
     25 C5         -0.7962    4.3186    0.0156 C.ar      1 GTP        -0.1494
     26 C6         -1.3875    5.6031    0.4192 C.ar      1 GTP         0.7954
     27 O6         -2.1869    6.1731   -0.3158 O.2       1 GTP        -0.5729
     28 N1         -0.9745    6.0930    1.6597 N.2       1 GTP        -0.7443
     29 C2         -0.1105    5.4166    2.3900 C.ar      1 GTP         0.8831
     30 N2          0.3241    5.8571    3.6138 N.pl3     1 GTP        -0.9204
     31 N3          0.4444    4.2053    2.0072 N.pl3     1 GTP        -0.7173
     32 C4          0.0746    3.6889    0.8098 C.ar      1 GTP         0.2626
     33 HOG3       -1.9462    1.5838   -7.1060 H         1 GTP         0.4102
     34 H5'         1.3514    0.2330   -2.1577 H         1 GTP         0.0289
     35 H5''        2.1280   -1.3678   -2.0460 H         1 GTP         0.0289
     36 H4'         3.8044   -0.1397   -0.4040 H         1 GTP         0.2056
     37 H3'         1.6764   -1.7639    0.2728 H         1 GTP         0.1140
     38 HO3'        2.2232   -1.2979    2.3953 H         1 GTP         0.4287
     39 H2'        -0.0011    0.0027    0.0003 H         1 GTP         0.0809
     40 HO2'       -0.6141    0.5574    2.1082 H         1 GTP         0.4385
     41 H1'         1.7826    1.9024    1.6451 H         1 GTP         0.0794
     42 H8         -0.1415    1.7265   -1.7082 H         1 GTP         0.3821
     43 HN21       -0.0303    6.7197    3.9559 H         1 GTP         0.4411
     44 HN22        0.9765    5.2967    4.1108 H         1 GTP         0.4411
     45 H45         1.1068    3.6990    2.5819 H         1 GTP         0.4819
     46 H46        -1.5877    3.7943   -1.9074 H         1 GTP         0.5182
@<TRIPOS>BOND
     1    1    2 2
     2    1    3 1
     3    1    4 1
     4    1    5 1
     5    4   33 1
     6    5    6 1
     7    6    7 2
     8    6    8 1
     9    6    9 1
    10    9   10 1
    11   10   11 2
    12   10   12 1
    13   10   13 1
    14   13   14 1
    15   14   15 1
    16   14   34 1
    17   14   35 1
    18   15   16 1
    19   15   17 1
    20   15   36 1
    21   16   21 1
    22   17   18 1
    23   17   19 1
    24   17   37 1
    25   18   38 1
    26   19   20 1
    27   19   21 1
    28   19   39 1
    29   20   40 1
    30   21   22 1
    31   21   41 1
    32   22   23 ar
    33   22   32 ar
    34   23   24 ar
    35   23   42 1
    36   24   25 ar
    37   24   46 1
    38   25   26 ar
    39   25   32 ar
    40   26   27 2
    41   26   28 ar
    42   28   29 ar
    43   29   30 1
    44   29   31 ar
    45   30   43 1
    46   30   44 1
    47   31   32 ar
    48   31   45 1
@<TRIPOS>SUBSTRUCTURE
     1 GTP         1 GROUP 0 A     ****
@<TRIPOS>MOLECULE
[[[5-(2-amino-6-oxo-7,8-dihydro-3~{H}-purin-8-ylium-9-yl)-3,4-dihydroxy-tetrahydrofuran-2-yl]methoxy-oxido-phosphoryl]oxy-oxido-phosphoryl] hydrogen phosphate
   46    48     1     0     0
SMALL
USER_CHARGES

@<TRIPOS>ATOM
      1 PG          1.8969   -3.4804   -7.4159 P.3       1 GTP         1.5447
      2 O1G         2.3230   -2.9224   -8.7555 O.co2     1 GTP        -0.8705
      3 O2G         2.5509   -4.7197   -6.8466 O.co2     1 GTP        -0.8705
      4 O3G         0.2808   -3.7119   -7.4408 O.3       1 GTP        -0.7914
      5 O3B         1.9584   -2.2901   -6.3009 O.3       1 GTP        -0.8116
      6 PB          1.2796   -0.8054   -6.3174 P.3       1 GTP         1.6738
      7 O1B         1.9127    0.0049   -7.4265 O.co2     1 GTP        -0.8763
      8 O2B        -0.2215   -0.9479   -6.1989 O.co2     1 GTP        -0.8763
      9 O3A         1.8086   -0.2594   -4.8729 O.3       1 GTP        -0.8005
     10 PA          3.3343   -0.0514   -4.3264 P.3       1 GTP         1.5754
     11 O1A         4.0106   -1.4028   -4.2454 O.co2     1 GTP        -0.8771
     12 O2A         3.9675    1.0961   -5.0826 O.co2     1 GTP        -0.8771
     13 O5'         3.0213    0.5153   -2.8245 O.3       1 GTP        -0.5809
     14 C5'         2.2816   -0.2918   -1.9206 C.3       1 GTP         0.1986
     15 C4'         2.7248    0.0226   -0.4980 C.3       1 GTP         0.0418
     16 O4'         2.4697    1.4219   -0.2462 O.3       1 GTP        -0.3505
     17 C3'         1.9404   -0.7419    0.5596 C.3       1 GTP         0.0909
     18 O3'         2.7418   -0.8086    1.7389 O.3       1 GTP        -0.6187
     19 C2'         0.7477    0.1630    0.7858 C.3       1 GTP         0.0706
     20 O2'         0.1373   -0.0577    2.0407 O.3       1 GTP        -0.6294
     21 C1'         1.3733    1.5427    0.6747 C.3       1 GTP         0.3895
     22 N9          0.4520    2.5240    0.1767 N.pl3     1 GTP        -0.4733
     23 C8         -0.2136    2.5096   -0.9739 C.ar      1 GTP         0.2958
     24 N7         -0.9896    3.5820   -1.1212 N.pl3     1 GTP        -0.4933
     25 C5         -0.7962    4.3186    0.0156 C.ar      1 GTP        -0.1494
     26 C6         -1.3875    5.6031    0.4192 C.ar      1 GTP         0.7954
     27 O6         -2.1869    6.1731   -0.3158 O.2       1 GTP        -0.5729
     28 N1         -0.9745    6.0930    1.6597 N.2       1 GTP        -0.7443
     29 C2         -0.1105    5.4166    2.3900 C.ar      1 GTP         0.8831
     30 N2          0.3241    5.8571    3.6138 N.pl3     1 GTP        -0.9204
     31 N3          0.4444    4.2053    2.0072 N.pl3     1 GTP        -0.7173
     32 C4          0.0746    3.6889    0.8098 C.ar      1 GTP         0.2626
     33 HOG3       -0.1515   -4.0728   -6.6376 H         1 GTP         0.4102
     34 H5'         1.2163   -0.0770   -2.0471 H         1 GTP         0.0289
     35 H5''        2.4655   -1.3443   -2.1563 H         1 GTP         0.0289
     36 H4'         3.8044   -0.1397   -0.4040 H         1 GTP         0.2056
     37 H3'         1.6764   -1.7639    0.2728 H         1 GTP         0.1140
     38 HO3'        2.2232   -1.2979    2.3953 H         1 GTP         0.4287
     39 H2'        -0.0011    0.0027    0.0003 H         1 GTP         0.0809
     40 HO2'       -0.1563   -0.9855    2.0596 H         1 GTP         0.4385
     41 H1'         1.7826    1.9024    1.6451 H         1 GTP         0.0794
     42 H8         -0.1415    1.7265   -1.7082 H         1 GTP         0.3821
     43 HN21       -0.0303    6.7197    3.9559 H         1 GTP         0.4411
     44 HN22        0.9765    5.2967    4.1108 H         1 GTP         0.4411
     45 H45         1.1068    3.6990    2.5819 H         1 GTP         0.4819
     46 H46        -1.5877    3.7943   -1.9074 H         1 GTP         0.5182
@<TRIPOS>BOND
     1    1    2 2
     2    1    3 1
     3    1    4 1
     4    1    5 1
     5    4   33 1
     6    5    6 1
     7    6    7 2
     8    6    8 1
     9    6    9 1
    10    9   10 1
    11   10   11 2
    12   10   12 1
    13   10   13 1
    14   13   14 1
    15   14   15 1
    16   14   34 1
    17   14   35 1
    18   15   16 1
    19   15   17 1
    20   15   36 1
    21   16   21 1
    22   17   18 1
    23   17   19 1
    24   17   37 1
    25   18   38 1
    26   19   20 1
    27   19   21 1
    28   19   39 1
    29   20   40 1
    30   21   22 1
    31   21   41 1
    32   22   23 ar
    33   22   32 ar
    34   23   24 ar
    35   23   42 1
    36   24   25 ar
    37   24   46 1
    38   25   26 ar
    39   25   32 ar
    40   26   27 2
    41   26   28 ar
    42   28   29 ar
    43   29   30 1
    44   29   31 ar
    45   30   43 1
    46   30   44 1
    47   31   32 ar
    48   31   45 1
@<TRIPOS>SUBSTRUCTURE
     1 GTP         1 GROUP 0 A     ****
@<TRIPOS>MOLECULE
[[[5-(2-amino-6-oxo-7,8-dihydro-3~{H}-purin-8-ylium-9-yl)-3,4-dihydroxy-tetrahydrofuran-2-yl]methoxy-oxido-phosphoryl]oxy-oxido-phosphoryl] hydrogen phosphate
   46    48     1     0     0
SMALL
USER_CHARGES

@<TRIPOS>ATOM
      1 PG         -1.1275   -1.0796   -5.1873 P.3       1 GTP         1.5447
      2 O1G        -1.8630   -2.1962   -5.8942 O.co2     1 GTP        -0.8705
      3 O2G        -0.4248   -1.3234   -3.8703 O.co2     1 GTP        -0.8705
      4 O3G        -2.1498    0.1803   -5.0039 O.3       1 GTP        -0.7914
      5 O3B        -0.0751   -0.3936   -6.2293 O.3       1 GTP        -0.8116
      6 PB          0.8569    0.9350   -6.0516 P.3       1 GTP         1.6738
      7 O1B         1.7557    1.0621   -7.2614 O.co2     1 GTP        -0.8763
      8 O2B        -0.0070    2.0845   -5.5828 O.co2     1 GTP        -0.8763
      9 O3A         1.7410    0.4642   -4.7626 O.3       1 GTP        -0.8005
     10 PA          2.9232    1.2546   -3.9579 P.3       1 GTP         1.5754
     11 O1A         4.0962    1.4572   -4.8924 O.co2     1 GTP        -0.8771
     12 O2A         2.3071    2.4181   -3.2121 O.co2     1 GTP        -0.8771
     13 O5'         3.2903    0.1346   -2.8241 O.3       1 GTP        -0.5809
     14 C5'         2.2816   -0.2918   -1.9206 C.3       1 GTP         0.1986
     15 C4'         2.7248    0.0226   -0.4980 C.3       1 GTP         0.0418
     16 O4'         2.4697    1.4219   -0.2462 O.3       1 GTP        -0.3505
     17 C3'         1.9404   -0.7419    0.5596 C.3       1 GTP         0.0909
     18 O3'         2.7418   -0.8086    1.7389 O.3       1 GTP        -0.6187
     19 C2'         0.7477    0.1630    0.7858 C.3       1 GTP         0.0706
     20 O2'         0.1373   -0.0577    2.0407 O.3       1 GTP        -0.6294
     21 C1'         1.3733    1.5427    0.6747 C.3       1 GTP         0.3895
     22 N9          0.4520    2.5240    0.1767 N.pl3     1 GTP        -0.4733
     23 C8         -0.2136    2.5096   -0.9739 C.ar      1 GTP         0.2958
     24 N7         -0.9896    3.5820   -1.1212 N.pl3     1 GTP        -0.4933
     25 C5         -0.7962    4.3186    0.0156 C.ar      1 GTP        -0.1494
     26 C6         -1.3875    5.6031    0.4192 C.ar      1 GTP         0.7954
     27 O6         -2.1869    6.1731   -0.3158 O.2       1 GTP        -0.5729
     28 N1         -0.9745    6.0930    1.6597 N.2       1 GTP        -0.7443
     29 C2         -0.1105    5.4166    2.3900 C.ar      1 GTP         0.8831
     30 N2          0.3241    5.8571    3.6138 N.pl3     1 GTP        -0.9204
     31 N3          0.4444    4.2053    2.0072 N.pl3     1 GTP        -0.7173
     32 C4          0.0746    3.6889    0.8098 C.ar      1 GTP         0.2626
     33 HOG3       -1.8186    0.9892   -4.5587 H         1 GTP         0.4102
     34 H5'         1.3514    0.2330   -2.1577 H         1 GTP         0.0289
     35 H5''        2.1280   -1.3678   -2.0460 H         1 GTP         0.0289
     36 H4'         3.8044   -0.1397   -0.4040 H         1 GTP         0.2056
     37 H3'         1.6764   -1.7639    0.2728 H         1 GTP         0.1140
     38 HO3'        2.2232   -1.2979    2.3953 H         1 GTP         0.4287
     39 H2'        -0.0011    0.0027    0.0003 H         1 GTP         0.0809
     40 HO2'       -0.6141    0.5574    2.1082 H         1 GTP         0.4385
     41 H1'         1.7826    1.9024    1.6451 H         1 GTP         0.0794
     42 H8         -0.1415    1.7265   -1.7082 H         1 GTP         0.3821
     43 HN21       -0.0303    6.7197    3.9559 H         1 GTP         0.4411
     44 HN22        0.9765    5.2967    4.1108 H         1 GTP         0.4411
     45 H45         1.1068    3.6990    2.5819 H         1 GTP         0.4819
     46 H46        -1.5877    3.7943   -1.9074 H         1 GTP         0.5182
@<TRIPOS>BOND
     1    1    2 2
     2    1    3 1
     3    1    4 1
     4    1    5 1
     5    4   33 1
     6    5    6 1
     7    6    7 2
     8    6    8 1
     9    6    9 1
    10    9   10 1
    11   10   11 2
    12   10   12 1
    13   10   13 1
    14   13   14 1
    15   14   15 1
    16   14   34 1
    17   14   35 1
    18   15   16 1
    19   15   17 1
    20   15   36 1
    21   16   21 1
    22   17   18 1
    23   17   19 1
    24   17   37 1
    25   18   38 1
    26   19   20 1
    27   19   21 1
    28   19   39 1
    29   20   40 1
    30   21   22 1
    31   21   41 1
    32   22   23 ar
    33   22   32 ar
    34   23   24 ar
    35   23   42 1
    36   24   25 ar
    37   24   46 1
    38   25   26 ar
    39   25   32 ar
    40   26   27 2
    41   26   28 ar
    42   28   29 ar
    43   29   30 1
    44   29   31 ar
    45   30   43 1
    46   30   44 1
    47   31   32 ar
    48   31   45 1
@<TRIPOS>SUBSTRUCTURE
     1 GTP         1 GROUP 0 A     ****
@<TRIPOS>MOLECULE
[[[5-(2-amino-6-oxo-7,8-dihydro-3~{H}-purin-8-ylium-9-yl)-3,4-dihydroxy-tetrahydrofuran-2-yl]methoxy-oxido-phosphoryl]oxy-oxido-phosphoryl] hydrogen phosphate
   46    48     1     0     0
SMALL
USER_CHARGES

@<TRIPOS>ATOM
      1 PG          1.8925    0.4775   -8.9102 P.3       1 GTP         1.5447
      2 O1G         0.4454    0.4692   -9.3497 O.co2     1 GTP        -0.8705
      3 O2G         2.8267    1.5896   -9.3321 O.co2     1 GTP        -0.8705
      4 O3G         2.5678   -0.9510   -9.3219 O.3       1 GTP        -0.7914
      5 O3B         1.9555    0.3212   -7.2868 O.3       1 GTP        -0.8116
      6 PB          1.2796   -0.8054   -6.3174 P.3       1 GTP         1.6738
      7 O1B        -0.2249   -0.6674   -6.3895 O.co2     1 GTP        -0.8763
      8 O2B         1.9650   -2.1331   -6.5517 O.co2     1 GTP        -0.8763
      9 O3A         1.8086   -0.2594   -4.8729 O.3       1 GTP        -0.8005
     10 PA          3.3343   -0.0514   -4.3264 P.3       1 GTP         1.5754
     11 O1A         4.0106   -1.4028   -4.2454 O.co2     1 GTP        -0.8771
     12 O2A         3.9675    1.0961   -5.0826 O.co2     1 GTP        -0.8771
     13 O5'         3.0213    0.5153   -2.8245 O.3       1 GTP        -0.5809
     14 C5'         2.2816   -0.2918   -1.9206 C.3       1 GTP         0.1986
     15 C4'         2.7248    0.0226   -0.4980 C.3       1 GTP         0.0418
     16 O4'         2.4697    1.4219   -0.2462 O.3       1 GTP        -0.3505
     17 C3'         1.9404   -0.7419    0.5596 C.3       1 GTP         0.0909
     18 O3'         2.7418   -0.8086    1.7389 O.3       1 GTP        -0.6187
     19 C2'         0.7477    0.1630    0.7858 C.3       1 GTP         0.0706
     20 O2'         0.1373   -0.0577    2.0407 O.3       1 GTP        -0.6294
     21 C1'         1.3733    1.5427    0.6747 C.3       1 GTP         0.3895
     22 N9          0.4520    2.5240    0.1767 N.pl3     1 GTP        -0.4733
     23 C8         -0.2136    2.5096   -0.9739 C.ar      1 GTP         0.2958
     24 N7         -0.9896    3.5820   -1.1212 N.pl3     1 GTP        -0.4933
     25 C5         -0.7962    4.3186    0.0156 C.ar      1 GTP        -0.1494
     26 C6         -1.3875    5.6031    0.4192 C.ar      1 GTP         0.7954
     27 O6         -2.1869    6.1731   -0.3158 O.2       1 GTP        -0.5729
     28 N1         -0.9745    6.0930    1.6597 N.2       1 GTP        -0.7443
     29 C2         -0.1105    5.4166    2.3900 C.ar      1 GTP         0.8831
     30 N2          0.3241    5.8571    3.6138 N.pl3     1 GTP        -0.9204
     31 N3          0.4444    4.2053    2.0072 N.pl3     1 GTP        -0.7173
     32 C4          0.0746    3.6889    0.8098 C.ar      1 GTP         0.2626
     33 HOG3        3.5120   -1.1016   -9.1023 H         1 GTP         0.4102
     34 H5'         1.2163   -0.0770   -2.0471 H         1 GTP         0.0289
     35 H5''        2.4655   -1.3443   -2.1563 H         1 GTP         0.0289
     36 H4'         3.8044   -0.1397   -0.4040 H         1 GTP         0.2056
     37 H3'         1.6764   -1.7639    0.2728 H         1 GTP         0.1140
     38 HO3'        2.2232   -1.2979    2.3953 H         1 GTP         0.4287
     39 H2'        -0.0011    0.0027    0.0003 H         1 GTP         0.0809
     40 HO2'       -0.6141    0.5574    2.1082 H         1 GTP         0.4385
     41 H1'         1.7826    1.9024    1.6451 H         1 GTP         0.0794
     42 H8         -0.1415    1.7265   -1.7082 H         1 GTP         0.3821
     43 HN21       -0.0303    6.7197    3.9559 H         1 GTP         0.4411
     44 HN22        0.9765    5.2967    4.1108 H         1 GTP         0.4411
     45 H45         1.1068    3.6990    2.5819 H         1 GTP         0.4819
     46 H46        -1.5877    3.7943   -1.9074 H         1 GTP         0.5182
@<TRIPOS>BOND
     1    1    2 2
     2    1    3 1
     3    1    4 1
     4    1    5 1
     5    4   33 1
     6    5    6 1
     7    6    7 2
     8    6    8 1
     9    6    9 1
    10    9   10 1
    11   10   11 2
    12   10   12 1
    13   10   13 1
    14   13   14 1
    15   14   15 1
    16   14   34 1
    17   14   35 1
    18   15   16 1
    19   15   17 1
    20   15   36 1
    21   16   21 1
    22   17   18 1
    23   17   19 1
    24   17   37 1
    25   18   38 1
    26   19   20 1
    27   19   21 1
    28   19   39 1
    29   20   40 1
    30   21   22 1
    31   21   41 1
    32   22   23 ar
    33   22   32 ar
    34   23   24 ar
    35   23   42 1
    36   24   25 ar
    37   24   46 1
    38   25   26 ar
    39   25   32 ar
    40   26   27 2
    41   26   28 ar
    42   28   29 ar
    43   29   30 1
    44   29   31 ar
    45   30   43 1
    46   30   44 1
    47   31   32 ar
    48   31   45 1
@<TRIPOS>SUBSTRUCTURE
     1 GTP         1 GROUP 0 A     ****
@<TRIPOS>MOLECULE
[[[5-(2-amino-6-oxo-7,8-dihydro-3~{H}-purin-8-ylium-9-yl)-3,4-dihydroxy-tetrahydrofuran-2-yl]methoxy-oxido-phosphoryl]oxy-oxido-phosphoryl] hydrogen phosphate
   46    48     1     0     0
SMALL
USER_CHARGES

@<TRIPOS>ATOM
      1 PG          3.4169   -3.6848   -7.6947 P.3       1 GTP         1.5447
      2 O1G         4.0089   -3.0233   -8.9192 O.co2     1 GTP        -0.8705
      3 O2G         3.9371   -5.0171   -7.2029 O.co2     1 GTP        -0.8705
      4 O3G         1.8012   -3.8026   -7.8989 O.3       1 GTP        -0.7914
      5 O3B         3.4321   -2.6213   -6.4568 O.3       1 GTP        -0.8116
      6 PB          4.6951   -1.9732   -5.6502 P.3       1 GTP         1.6738
      7 O1B         5.4088   -3.0758   -4.9003 O.co2     1 GTP        -0.8763
      8 O2B         5.4388   -1.0327   -6.5721 O.co2     1 GTP        -0.8763
      9 O3A         3.8774   -1.0356   -4.5933 O.3       1 GTP        -0.8005
     10 PA          4.4374   -0.0466   -3.4193 P.3       1 GTP         1.5754
     11 O1A         5.1480   -0.8824   -2.3769 O.co2     1 GTP        -0.8771
     12 O2A         5.1179    1.1389   -4.0684 O.co2     1 GTP        -0.8771
     13 O5'         3.0213    0.5153   -2.8245 O.3       1 GTP        -0.5809
     14 C5'         2.2816   -0.2918   -1.9206 C.3       1 GTP         0.1986
     15 C4'         2.7248    0.0226   -0.4980 C.3       1 GTP         0.0418
     16 O4'         2.4697    1.4219   -0.2462 O.3       1 GTP        -0.3505
     17 C3'         1.9404   -0.7419    0.5596 C.3       1 GTP         0.0909
     18 O3'         2.7418   -0.8086    1.7389 O.3       1 GTP        -0.6187
     19 C2'         0.7477    0.1630    0.7858 C.3       1 GTP         0.0706
     20 O2'         0.1373   -0.0577    2.0407 O.3       1 GTP        -0.6294
     21 C1'         1.3733    1.5427    0.6747 C.3       1 GTP         0.3895
     22 N9          0.4520    2.5240    0.1767 N.pl3     1 GTP        -0.4733
     23 C8          0.2012    2.8401   -1.0899 C.ar      1 GTP         0.2958
     24 N7         -0.7168    3.7990   -1.1981 N.pl3     1 GTP        -0.4933
     25 C5         -1.0645    4.1043    0.0896 C.ar      1 GTP        -0.1494
     26 C6         -2.0336    5.0870    0.5973 C.ar      1 GTP         0.7954
     27 O6         -2.6730    5.7839   -0.1834 O.2       1 GTP        -0.5729
     28 N1         -2.1539    5.1517    1.9868 N.2       1 GTP        -0.7443
     29 C2         -1.4288    4.3650    2.7566 C.ar      1 GTP         0.8831
     30 N2         -1.5126    4.3922    4.1250 N.pl3     1 GTP        -0.9204
     31 N3         -0.5167    3.4388    2.2748 N.pl3     1 GTP        -0.7173
     32 C4         -0.3638    3.3392    0.9318 C.ar      1 GTP         0.2626
     33 HOG3        1.2690   -4.2133   -7.1845 H         1 GTP         0.4102
     34 H5'         1.2163   -0.0770   -2.0471 H         1 GTP         0.0289
     35 H5''        2.4655   -1.3443   -2.1563 H         1 GTP         0.0289
     36 H4'         3.8044   -0.1397   -0.4040 H         1 GTP         0.2056
     37 H3'         1.6764   -1.7639    0.2728 H         1 GTP         0.1140
     38 HO3'        3.5554   -1.2733    1.4914 H         1 GTP         0.4287
     39 H2'        -0.0011    0.0027    0.0003 H         1 GTP         0.0809
     40 HO2'       -0.1563   -0.9855    2.0596 H         1 GTP         0.4385
     41 H1'         1.7826    1.9024    1.6451 H         1 GTP         0.0794
     42 H8          0.6787    2.3803   -1.9373 H         1 GTP         0.3821
     43 HN21       -2.1462    5.0320    4.5446 H         1 GTP         0.4411
     44 HN22       -0.9365    3.7712    4.6440 H         1 GTP         0.4411
     45 H45         0.0318    2.8419    2.8816 H         1 GTP         0.4819
     46 H46        -1.0718    4.2049   -2.0526 H         1 GTP         0.5182
@<TRIPOS>BOND
     1    1    2 2
     2    1    3 1
     3    1    4 1
     4    1    5 1
     5    4   33 1
     6    5    6 1
     7    6    7 2
     8    6    8 1
     9    6    9 1
    10    9   10 1
    11   10   11 2
    12   10   12 1
    13   10   13 1
    14   13   14 1
    15   14   15 1
    16   14   34 1
    17   14   35 1
    18   15   16 1
    19   15   17 1
    20   15   36 1
    21   16   21 1
    22   17   18 1
    23   17   19 1
    24   17   37 1
    25   18   38 1
    26   19   20 1
    27   19   21 1
    28   19   39 1
    29   20   40 1
    30   21   22 1
    31   21   41 1
    32   22   23 ar
    33   22   32 ar
    34   23   24 ar
    35   23   42 1
    36   24   25 ar
    37   24   46 1
    38   25   26 ar
    39   25   32 ar
    40   26   27 2
    41   26   28 ar
    42   28   29 ar
    43   29   30 1
    44   29   31 ar
    45   30   43 1
    46   30   44 1
    47   31   32 ar
    48   31   45 1
@<TRIPOS>SUBSTRUCTURE
     1 GTP         1 GROUP 0 A     ****
@<TRIPOS>MOLECULE
[[[5-(2-amino-6-oxo-7,8-dihydro-3~{H}-purin-8-ylium-9-yl)-3,4-dihydroxy-tetrahydrofuran-2-yl]methoxy-oxido-phosphoryl]oxy-oxido-phosphoryl] hydrogen phosphate
   46    48     1     0     0
SMALL
USER_CHARGES

@<TRIPOS>ATOM
      1 PG         -1.3729   -0.1640   -7.1304 P.3       1 GTP         1.5447
      2 O1G        -1.0178    0.6734   -8.3387 O.co2     1 GTP        -0.8705
      3 O2G        -1.9242   -1.5635   -7.2894 O.co2     1 GTP        -0.8705
      4 O3G        -2.3954    0.6921   -6.1884 O.3       1 GTP        -0.7914
      5 O3B        -0.0905   -0.2121   -6.1220 O.3       1 GTP        -0.8116
      6 PB          1.3751   -0.9023   -6.3258 P.3       1 GTP         1.6738
      7 O1B         1.1980   -2.4023   -6.4035 O.co2     1 GTP        -0.8763
      8 O2B         2.1366   -0.1389   -7.3864 O.co2     1 GTP        -0.8763
      9 O3A         2.0523   -0.5065   -4.8941 O.3       1 GTP        -0.8005
     10 PA          2.3336    0.9636   -4.2390 P.3       1 GTP         1.5754
     11 O1A         3.3392    1.6960   -5.1008 O.co2     1 GTP        -0.8771
     12 O2A         1.0067    1.5946   -3.8772 O.co2     1 GTP        -0.8771
     13 O5'         3.0213    0.5153   -2.8245 O.3       1 GTP        -0.5809
     14 C5'         2.2816   -0.2918   -1.9206 C.3       1 GTP         0.1986
     15 C4'         2.7248    0.0226   -0.4980 C.3       1 GTP         0.0418
     16 O4'         2.4697    1.4219   -0.2462 O.3       1 GTP        -0.3505
     17 C3'         1.9404   -0.7419    0.5596 C.3       1 GTP         0.0909
     18 O3'         2.7418   -0.8086    1.7389 O.3       1 GTP        -0.6187
     19 C2'         0.7477    0.1630    0.7858 C.3       1 GTP         0.0706
     20 O2'         0.1373   -0.0577    2.0407 O.3       1 GTP        -0.6294
     21 C1'         1.3733    1.5427    0.6747 C.3       1 GTP         0.3895
     22 N9          0.4520    2.5240    0.1767 N.pl3     1 GTP        -0.4733
     23 C8          0.5427    3.2356   -0.9425 C.ar      1 GTP         0.2958
     24 N7         -0.4919    4.0590   -1.1018 N.pl3     1 GTP        -0.4933
     25 C5         -1.2850    3.8484   -0.0069 C.ar      1 GTP        -0.1494
     26 C6         -2.5644    4.4707    0.3650 C.ar      1 GTP         0.7954
     27 O6         -3.0718    5.3200   -0.3599 O.2       1 GTP        -0.5729
     28 N1         -3.1239    4.0269    1.5647 N.2       1 GTP        -0.7443
     29 C2         -2.5133    3.1079    2.2858 C.ar      1 GTP         0.8831
     30 N2         -3.0239    2.6409    3.4697 N.pl3     1 GTP        -0.9204
     31 N3         -1.3076    2.5223    1.9320 N.pl3     1 GTP        -0.7173
     32 C4         -0.7246    2.9211    0.7753 C.ar      1 GTP         0.2626
     33 HOG3       -2.7205    0.2816   -5.3588 H         1 GTP         0.4102
     34 H5'         1.2163   -0.0770   -2.0471 H         1 GTP         0.0289
     35 H5''        2.4655   -1.3443   -2.1563 H         1 GTP         0.0289
     36 H4'         3.8044   -0.1397   -0.4040 H         1 GTP         0.2056
     37 H3'         1.6764   -1.7639    0.2728 H         1 GTP         0.1140
     38 HO3'        2.2232   -1.2979    2.3953 H         1 GTP         0.4287
     39 H2'        -0.0011    0.0027    0.0003 H         1 GTP         0.0809
     40 HO2'       -0.1563   -0.9855    2.0596 H         1 GTP         0.4385
     41 H1'         1.7826    1.9024    1.6451 H         1 GTP         0.0794
     42 H8          1.3539    3.1622   -1.6455 H         1 GTP         0.3821
     43 HN21       -3.8871    3.0143    3.7893 H         1 GTP         0.4411
     44 HN22       -2.5108    1.9472    3.9621 H         1 GTP         0.4411
     45 H45        -0.8530    1.8168    2.4986 H         1 GTP         0.4819
     46 H46        -0.6466    4.6966   -1.8702 H         1 GTP         0.5182
@<TRIPOS>BOND
     1    1    2 2
     2    1    3 1
     3    1    4 1
     4    1    5 1
     5    4   33 1
     6    5    6 1
     7    6    7 2
     8    6    8 1
     9    6    9 1
    10    9   10 1
    11   10   11 2
    12   10   12 1
    13   10   13 1
    14   13   14 1
    15   14   15 1
    16   14   34 1
    17   14   35 1
    18   15   16 1
    19   15   17 1
    20   15   36 1
    21   16   21 1
    22   17   18 1
    23   17   19 1
    24   17   37 1
    25   18   38 1
    26   19   20 1
    27   19   21 1
    28   19   39 1
    29   20   40 1
    30   21   22 1
    31   21   41 1
    32   22   23 ar
    33   22   32 ar
    34   23   24 ar
    35   23   42 1
    36   24   25 ar
    37   24   46 1
    38   25   26 ar
    39   25   32 ar
    40   26   27 2
    41   26   28 ar
    42   28   29 ar
    43   29   30 1
    44   29   31 ar
    45   30   43 1
    46   30   44 1
    47   31   32 ar
    48   31   45 1
@<TRIPOS>SUBSTRUCTURE
     1 GTP         1 GROUP 0 A     ****
@<TRIPOS>MOLECULE
[[[5-(2-amino-6-oxo-7,8-dihydro-3~{H}-purin-8-ylium-9-yl)-3,4-dihydroxy-tetrahydrofuran-2-yl]methoxy-oxido-phosphoryl]oxy-oxido-phosphoryl] hydrogen phosphate
   46    48     1     0     0
SMALL
USER_CHARGES

@<TRIPOS>ATOM
      1 PG         -2.0448    0.5750   -3.7765 P.3       1 GTP         1.5447
      2 O1G        -1.0932    0.2346   -2.6513 O.co2     1 GTP        -0.8705
      3 O2G        -3.3254    1.3341   -3.5086 O.co2     1 GTP        -0.8705
      4 O3G        -2.4146   -0.7994   -4.5766 O.3       1 GTP        -0.7914
      5 O3B        -1.2174    1.3347   -4.9605 O.3       1 GTP        -0.8116
      6 PB          0.1391    0.8790   -5.7466 P.3       1 GTP         1.6738
      7 O1B        -0.0774   -0.5006   -6.3274 O.co2     1 GTP        -0.8763
      8 O2B         0.6251    2.0297   -6.5994 O.co2     1 GTP        -0.8763
      9 O3A         1.1584    0.7817   -4.4753 O.3       1 GTP        -0.8005
     10 PA          2.7407    0.3769   -4.4297 P.3       1 GTP         1.5754
     11 O1A         2.8866   -1.0655   -4.8640 O.co2     1 GTP        -0.8771
     12 O2A         3.5415    1.4776   -5.0906 O.co2     1 GTP        -0.8771
     13 O5'         3.0213    0.5153   -2.8245 O.3       1 GTP        -0.5809
     14 C5'         2.2816   -0.2918   -1.9206 C.3       1 GTP         0.1986
     15 C4'         2.7248    0.0226   -0.4980 C.3       1 GTP         0.0418
     16 O4'         2.4697    1.4219   -0.2462 O.3       1 GTP        -0.3505
     17 C3'         1.9404   -0.7419    0.5596 C.3       1 GTP         0.0909
     18 O3'         2.7418   -0.8086    1.7389 O.3       1 GTP        -0.6187
     19 C2'         0.7477    0.1630    0.7858 C.3       1 GTP         0.0706
     20 O2'         0.1373   -0.0577    2.0407 O.3       1 GTP        -0.6294
     21 C1'         1.3733    1.5427    0.6747 C.3       1 GTP         0.3895
     22 N9          0.4520    2.5240    0.1767 N.pl3     1 GTP        -0.4733
     23 C8         -0.8640    2.5747    0.3578 C.ar      1 GTP         0.2958
     24 N7         -1.4158    3.6263   -0.2452 N.pl3     1 GTP        -0.4933
     25 C5         -0.3734    4.2789   -0.8450 C.ar      1 GTP        -0.1494
     26 C6         -0.3693    5.5074   -1.6532 C.ar      1 GTP         0.7954
     27 O6         -1.4174    6.1047   -1.8742 O.2       1 GTP        -0.5729
     28 N1          0.8803    5.9138   -2.1250 N.2       1 GTP        -0.7443
     29 C2          1.9606    5.2142   -1.8406 C.ar      1 GTP         0.8831
     30 N2          3.2085    5.5738   -2.2809 N.pl3     1 GTP        -0.9204
     31 N3          1.9536    4.0567   -1.0776 N.pl3     1 GTP        -0.7173
     32 C4          0.7633    3.6215   -0.5973 C.ar      1 GTP         0.2626
     33 HOG3       -3.0274   -0.7443   -5.3407 H         1 GTP         0.4102
     34 H5'         1.2163   -0.0770   -2.0471 H         1 GTP         0.0289
     35 H5''        2.4655   -1.3443   -2.1563 H         1 GTP         0.0289
     36 H4'         3.8044   -0.1397   -0.4040 H         1 GTP         0.2056
     37 H3'         1.6764   -1.7639    0.2728 H         1 GTP         0.1140
     38 HO3'        2.2232   -1.2979    2.3953 H         1 GTP         0.4287
     39 H2'        -0.0011    0.0027    0.0003 H         1 GTP         0.0809
     40 HO2'       -0.1563   -0.9855    2.0596 H         1 GTP         0.4385
     41 H1'         1.7826    1.9024    1.6451 H         1 GTP         0.0794
     42 H8         -1.4279    1.8548    0.9245 H         1 GTP         0.3821
     43 HN21        3.2933    6.3940   -2.8348 H         1 GTP         0.4411
     44 HN22        3.9794    5.0002   -2.0291 H         1 GTP         0.4411
     45 H45         2.7941    3.5321   -0.8687 H         1 GTP         0.4819
     46 H46        -2.3945    3.8775   -0.2507 H         1 GTP         0.5182
@<TRIPOS>BOND
     1    1    2 2
     2    1    3 1
     3    1    4 1
     4    1    5 1
     5    4   33 1
     6    5    6 1
     7    6    7 2
     8    6    8 1
     9    6    9 1
    10    9   10 1
    11   10   11 2
    12   10   12 1
    13   10   13 1
    14   13   14 1
    15   14   15 1
    16   14   34 1
    17   14   35 1
    18   15   16 1
    19   15   17 1
    20   15   36 1
    21   16   21 1
    22   17   18 1
    23   17   19 1
    24   17   37 1
    25   18   38 1
    26   19   20 1
    27   19   21 1
    28   19   39 1
    29   20   40 1
    30   21   22 1
    31   21   41 1
    32   22   23 ar
    33   22   32 ar
    34   23   24 ar
    35   23   42 1
    36   24   25 ar
    37   24   46 1
    38   25   26 ar
    39   25   32 ar
    40   26   27 2
    41   26   28 ar
    42   28   29 ar
    43   29   30 1
    44   29   31 ar
    45   30   43 1
    46   30   44 1
    47   31   32 ar
    48   31   45 1
@<TRIPOS>SUBSTRUCTURE
     1 GTP         1 GROUP 0 A     ****
@<TRIPOS>MOLECULE
[[[5-(2-amino-6-oxo-7,8-dihydro-3~{H}-purin-8-ylium-9-yl)-3,4-dihydroxy-tetrahydrofuran-2-yl]methoxy-oxido-phosphoryl]oxy-oxido-phosphoryl] hydrogen phosphate
   46    48     1     0     0
SMALL
USER_CHARGES

@<TRIPOS>ATOM
      1 PG          2.4415   -0.0794   -8.9581 P.3       1 GTP         1.5447
      2 O1G         2.7122   -1.4598   -9.5135 O.co2     1 GTP        -0.8705
      3 O2G         1.2475    0.7247   -9.4221 O.co2     1 GTP        -0.8705
      4 O3G         3.7845    0.8293   -9.1496 O.3       1 GTP        -0.7914
      5 O3B         2.4262   -0.1563   -7.3279 O.3       1 GTP        -0.8116
      6 PB          1.3751   -0.9023   -6.3258 P.3       1 GTP         1.6738
      7 O1B         0.0262   -0.2294   -6.4498 O.co2     1 GTP        -0.8763
      8 O2B         1.5297   -2.3994   -6.4745 O.co2     1 GTP        -0.8763
      9 O3A         2.0523   -0.5065   -4.8941 O.3       1 GTP        -0.8005
     10 PA          2.3336    0.9636   -4.2390 P.3       1 GTP         1.5754
     11 O1A         3.3392    1.6960   -5.1008 O.co2     1 GTP        -0.8771
     12 O2A         1.0067    1.5946   -3.8772 O.co2     1 GTP        -0.8771
     13 O5'         3.0213    0.5153   -2.8245 O.3       1 GTP        -0.5809
     14 C5'         2.2816   -0.2918   -1.9206 C.3       1 GTP         0.1986
     15 C4'         2.7248    0.0226   -0.4980 C.3       1 GTP         0.0418
     16 O4'         2.4697    1.4219   -0.2462 O.3       1 GTP        -0.3505
     17 C3'         1.9404   -0.7419    0.5596 C.3       1 GTP         0.0909
     18 O3'         2.7418   -0.8086    1.7389 O.3       1 GTP        -0.6187
     19 C2'         0.7477    0.1630    0.7858 C.3       1 GTP         0.0706
     20 O2'         0.1373   -0.0577    2.0407 O.3       1 GTP        -0.6294
     21 C1'         1.3733    1.5427    0.6747 C.3       1 GTP         0.3895
     22 N9          0.4520    2.5240    0.1767 N.pl3     1 GTP        -0.4733
     23 C8          0.5427    3.2356   -0.9425 C.ar      1 GTP         0.2958
     24 N7         -0.4919    4.0590   -1.1018 N.pl3     1 GTP        -0.4933
     25 C5         -1.2850    3.8484   -0.0069 C.ar      1 GTP        -0.1494
     26 C6         -2.5644    4.4707    0.3650 C.ar      1 GTP         0.7954
     27 O6         -3.0718    5.3200   -0.3599 O.2       1 GTP        -0.5729
     28 N1         -3.1239    4.0269    1.5647 N.2       1 GTP        -0.7443
     29 C2         -2.5133    3.1079    2.2858 C.ar      1 GTP         0.8831
     30 N2         -3.0239    2.6409    3.4697 N.pl3     1 GTP        -0.9204
     31 N3         -1.3076    2.5223    1.9320 N.pl3     1 GTP        -0.7173
     32 C4         -0.7246    2.9211    0.7753 C.ar      1 GTP         0.2626
     33 HOG3        3.7680    1.7587   -8.8364 H         1 GTP         0.4102
     34 H5'         1.2163   -0.0770   -2.0471 H         1 GTP         0.0289
     35 H5''        2.4655   -1.3443   -2.1563 H         1 GTP         0.0289
     36 H4'         3.8044   -0.1397   -0.4040 H         1 GTP         0.2056
     37 H3'         1.6764   -1.7639    0.2728 H         1 GTP         0.1140
     38 HO3'        2.2232   -1.2979    2.3953 H         1 GTP         0.4287
     39 H2'        -0.0011    0.0027    0.0003 H         1 GTP         0.0809
     40 HO2'       -0.1563   -0.9855    2.0596 H         1 GTP         0.4385
     41 H1'         1.7826    1.9024    1.6451 H         1 GTP         0.0794
     42 H8          1.3539    3.1622   -1.6455 H         1 GTP         0.3821
     43 HN21       -3.8871    3.0143    3.7893 H         1 GTP         0.4411
     44 HN22       -2.5108    1.9472    3.9621 H         1 GTP         0.4411
     45 H45        -0.8530    1.8168    2.4986 H         1 GTP         0.4819
     46 H46        -0.6466    4.6966   -1.8702 H         1 GTP         0.5182
@<TRIPOS>BOND
     1    1    2 2
     2    1    3 1
     3    1    4 1
     4    1    5 1
     5    4   33 1
     6    5    6 1
     7    6    7 2
     8    6    8 1
     9    6    9 1
    10    9   10 1
    11   10   11 2
    12   10   12 1
    13   10   13 1
    14   13   14 1
    15   14   15 1
    16   14   34 1
    17   14   35 1
    18   15   16 1
    19   15   17 1
    20   15   36 1
    21   16   21 1
    22   17   18 1
    23   17   19 1
    24   17   37 1
    25   18   38 1
    26   19   20 1
    27   19   21 1
    28   19   39 1
    29   20   40 1
    30   21   22 1
    31   21   41 1
    32   22   23 ar
    33   22   32 ar
    34   23   24 ar
    35   23   42 1
    36   24   25 ar
    37   24   46 1
    38   25   26 ar
    39   25   32 ar
    40   26   27 2
    41   26   28 ar
    42   28   29 ar
    43   29   30 1
    44   29   31 ar
    45   30   43 1
    46   30   44 1
    47   31   32 ar
    48   31   45 1
@<TRIPOS>SUBSTRUCTURE
     1 GTP         1 GROUP 0 A     ****
@<TRIPOS>MOLECULE
[[[5-(2-amino-6-oxo-7,8-dihydro-3~{H}-purin-8-ylium-9-yl)-3,4-dihydroxy-tetrahydrofuran-2-yl]methoxy-oxido-phosphoryl]oxy-oxido-phosphoryl] hydrogen phosphate
   46    48     1     0     0
SMALL
USER_CHARGES

@<TRIPOS>ATOM
      1 PG          4.8656   -3.4035   -6.5655 P.3       1 GTP         1.5447
      2 O1G         3.3735   -3.2639   -6.7690 O.co2     1 GTP        -0.8705
      3 O2G         5.8427   -2.8817   -7.5954 O.co2     1 GTP        -0.8705
      4 O3G         5.2052   -4.9745   -6.2780 O.3       1 GTP        -0.7914
      5 O3B         5.2618   -2.7942   -5.1041 O.3       1 GTP        -0.8116
      6 PB          5.2054   -1.2550   -4.5625 P.3       1 GTP         1.6738
      7 O1B         5.5480   -1.2466   -3.0894 O.co2     1 GTP        -0.8763
      8 O2B         5.9227   -0.3589   -5.5474 O.co2     1 GTP        -0.8763
      9 O3A         3.6096   -0.9687   -4.7528 O.3       1 GTP        -0.8005
     10 PA          2.7407    0.3769   -4.4297 P.3       1 GTP         1.5754
     11 O1A         3.3568    1.5435   -5.1712 O.co2     1 GTP        -0.8771
     12 O2A         1.2702    0.0493   -4.5704 O.co2     1 GTP        -0.8771
     13 O5'         3.0213    0.5153   -2.8245 O.3       1 GTP        -0.5809
     14 C5'         2.2816   -0.2918   -1.9206 C.3       1 GTP         0.1986
     15 C4'         2.7248    0.0226   -0.4980 C.3       1 GTP         0.0418
     16 O4'         2.4697    1.4219   -0.2462 O.3       1 GTP        -0.3505
     17 C3'         1.9404   -0.7419    0.5596 C.3       1 GTP         0.0909
     18 O3'         2.7418   -0.8086    1.7389 O.3       1 GTP        -0.6187
     19 C2'         0.7477    0.1630    0.7858 C.3       1 GTP         0.0706
     20 O2'         0.1373   -0.0577    2.0407 O.3       1 GTP        -0.6294
     21 C1'         1.3733    1.5427    0.6747 C.3       1 GTP         0.3895
     22 N9          0.4520    2.5240    0.1767 N.pl3     1 GTP        -0.4733
     23 C8         -0.2136    2.5096   -0.9739 C.ar      1 GTP         0.2958
     24 N7         -0.9896    3.5820   -1.1212 N.pl3     1 GTP        -0.4933
     25 C5         -0.7962    4.3186    0.0156 C.ar      1 GTP        -0.1494
     26 C6         -1.3875    5.6031    0.4192 C.ar      1 GTP         0.7954
     27 O6         -2.1869    6.1731   -0.3158 O.2       1 GTP        -0.5729
     28 N1         -0.9745    6.0930    1.6597 N.2       1 GTP        -0.7443
     29 C2         -0.1105    5.4166    2.3900 C.ar      1 GTP         0.8831
     30 N2          0.3241    5.8571    3.6138 N.pl3     1 GTP        -0.9204
     31 N3          0.4444    4.2053    2.0072 N.pl3     1 GTP        -0.7173
     32 C4          0.0746    3.6889    0.8098 C.ar      1 GTP         0.2626
     33 HOG3        6.1398   -5.2296   -6.1243 H         1 GTP         0.4102
     34 H5'         1.2163   -0.0770   -2.0471 H         1 GTP         0.0289
     35 H5''        2.4655   -1.3443   -2.1563 H         1 GTP         0.0289
     36 H4'         3.8044   -0.1397   -0.4040 H         1 GTP         0.2056
     37 H3'         1.6764   -1.7639    0.2728 H         1 GTP         0.1140
     38 HO3'        2.2232   -1.2979    2.3953 H         1 GTP         0.4287
     39 H2'        -0.0011    0.0027    0.0003 H         1 GTP         0.0809
     40 HO2'       -0.6141    0.5574    2.1082 H         1 GTP         0.4385
     41 H1'         1.7826    1.9024    1.6451 H         1 GTP         0.0794
     42 H8         -0.1415    1.7265   -1.7082 H         1 GTP         0.3821
     43 HN21       -0.0303    6.7197    3.9559 H         1 GTP         0.4411
     44 HN22        0.9765    5.2967    4.1108 H         1 GTP         0.4411
     45 H45         1.1068    3.6990    2.5819 H         1 GTP         0.4819
     46 H46        -1.5877    3.7943   -1.9074 H         1 GTP         0.5182
@<TRIPOS>BOND
     1    1    2 2
     2    1    3 1
     3    1    4 1
     4    1    5 1
     5    4   33 1
     6    5    6 1
     7    6    7 2
     8    6    8 1
     9    6    9 1
    10    9   10 1
    11   10   11 2
    12   10   12 1
    13   10   13 1
    14   13   14 1
    15   14   15 1
    16   14   34 1
    17   14   35 1
    18   15   16 1
    19   15   17 1
    20   15   36 1
    21   16   21 1
    22   17   18 1
    23   17   19 1
    24   17   37 1
    25   18   38 1
    26   19   20 1
    27   19   21 1
    28   19   39 1
    29   20   40 1
    30   21   22 1
    31   21   41 1
    32   22   23 ar
    33   22   32 ar
    34   23   24 ar
    35   23   42 1
    36   24   25 ar
    37   24   46 1
    38   25   26 ar
    39   25   32 ar
    40   26   27 2
    41   26   28 ar
    42   28   29 ar
    43   29   30 1
    44   29   31 ar
    45   30   43 1
    46   30   44 1
    47   31   32 ar
    48   31   45 1
@<TRIPOS>SUBSTRUCTURE
     1 GTP         1 GROUP 0 A     ****
@<TRIPOS>MOLECULE
[[[5-(2-amino-6-oxo-7,8-dihydro-3~{H}-purin-8-ylium-9-yl)-3,4-dihydroxy-tetrahydrofuran-2-yl]methoxy-oxido-phosphoryl]oxy-oxido-phosphoryl] hydrogen phosphate
   46    48     1     0     0
SMALL
USER_CHARGES

@<TRIPOS>ATOM
      1 PG         -0.7989    0.4596   -5.5253 P.3       1 GTP         1.5447
      2 O1G         0.6258    0.9673   -5.5313 O.co2     1 GTP        -0.8705
      3 O2G        -1.7574    0.8207   -6.6382 O.co2     1 GTP        -0.8705
      4 O3G        -1.4860    0.8597   -4.0992 O.3       1 GTP        -0.7914
      5 O3B        -0.7840   -1.1624   -5.3454 O.3       1 GTP        -0.8116
      6 PB         -0.0573   -2.0821   -4.2089 P.3       1 GTP         1.6738
      7 O1B        -0.4962   -1.6022   -2.8434 O.co2     1 GTP        -0.8763
      8 O2B        -0.1644   -3.5368   -4.6090 O.co2     1 GTP        -0.8763
      9 O3A         1.4933   -1.6431   -4.4688 O.3       1 GTP        -0.8005
     10 PA          2.8603   -2.1317   -3.7189 P.3       1 GTP         1.5754
     11 O1A         2.9465   -3.6405   -3.7989 O.co2     1 GTP        -0.8771
     12 O2A         4.0054   -1.2571   -4.1810 O.co2     1 GTP        -0.8771
     13 O5'         2.5245   -1.6648   -2.1878 O.3       1 GTP        -0.5809
     14 C5'         2.2816   -0.2918   -1.9206 C.3       1 GTP         0.1986
     15 C4'         2.7248    0.0226   -0.4980 C.3       1 GTP         0.0418
     16 O4'         2.4697    1.4219   -0.2462 O.3       1 GTP        -0.3505
     17 C3'         1.9404   -0.7419    0.5596 C.3       1 GTP         0.0909
     18 O3'         2.7418   -0.8086    1.7389 O.3       1 GTP        -0.6187
     19 C2'         0.7477    0.1630    0.7858 C.3       1 GTP         0.0706
     20 O2'         0.1373   -0.0577    2.0407 O.3       1 GTP        -0.6294
     21 C1'         1.3733    1.5427    0.6747 C.3       1 GTP         0.3895
     22 N9          0.4520    2.5240    0.1767 N.pl3     1 GTP        -0.4733
     23 C8          0.2012    2.8401   -1.0899 C.ar      1 GTP         0.2958
     24 N7         -0.7168    3.7990   -1.1981 N.pl3     1 GTP        -0.4933
     25 C5         -1.0645    4.1043    0.0896 C.ar      1 GTP        -0.1494
     26 C6         -2.0336    5.0870    0.5973 C.ar      1 GTP         0.7954
     27 O6         -2.6730    5.7839   -0.1834 O.2       1 GTP        -0.5729
     28 N1         -2.1539    5.1517    1.9868 N.2       1 GTP        -0.7443
     29 C2         -1.4288    4.3650    2.7566 C.ar      1 GTP         0.8831
     30 N2         -1.5126    4.3922    4.1250 N.pl3     1 GTP        -0.9204
     31 N3         -0.5167    3.4388    2.2748 N.pl3     1 GTP        -0.7173
     32 C4         -0.3638    3.3392    0.9318 C.ar      1 GTP         0.2626
     33 HOG3       -2.4179    0.5978   -3.9401 H         1 GTP         0.4102
     34 H5'         2.8432    0.3119   -2.6398 H         1 GTP         0.0289
     35 H5''        1.2128   -0.0927   -2.0428 H         1 GTP         0.0289
     36 H4'         3.8044   -0.1397   -0.4040 H         1 GTP         0.2056
     37 H3'         1.6764   -1.7639    0.2728 H         1 GTP         0.1140
     38 HO3'        2.2232   -1.2979    2.3953 H         1 GTP         0.4287
     39 H2'        -0.0011    0.0027    0.0003 H         1 GTP         0.0809
     40 HO2'       -0.6141    0.5574    2.1082 H         1 GTP         0.4385
     41 H1'         1.7826    1.9024    1.6451 H         1 GTP         0.0794
     42 H8          0.6787    2.3803   -1.9373 H         1 GTP         0.3821
     43 HN21       -2.1462    5.0320    4.5446 H         1 GTP         0.4411
     44 HN22       -0.9365    3.7712    4.6440 H         1 GTP         0.4411
     45 H45         0.0318    2.8419    2.8816 H         1 GTP         0.4819
     46 H46        -1.0718    4.2049   -2.0526 H         1 GTP         0.5182
@<TRIPOS>BOND
     1    1    2 2
     2    1    3 1
     3    1    4 1
     4    1    5 1
     5    4   33 1
     6    5    6 1
     7    6    7 2
     8    6    8 1
     9    6    9 1
    10    9   10 1
    11   10   11 2
    12   10   12 1
    13   10   13 1
    14   13   14 1
    15   14   15 1
    16   14   34 1
    17   14   35 1
    18   15   16 1
    19   15   17 1
    20   15   36 1
    21   16   21 1
    22   17   18 1
    23   17   19 1
    24   17   37 1
    25   18   38 1
    26   19   20 1
    27   19   21 1
    28   19   39 1
    29   20   40 1
    30   21   22 1
    31   21   41 1
    32   22   23 ar
    33   22   32 ar
    34   23   24 ar
    35   23   42 1
    36   24   25 ar
    37   24   46 1
    38   25   26 ar
    39   25   32 ar
    40   26   27 2
    41   26   28 ar
    42   28   29 ar
    43   29   30 1
    44   29   31 ar
    45   30   43 1
    46   30   44 1
    47   31   32 ar
    48   31   45 1
@<TRIPOS>SUBSTRUCTURE
     1 GTP         1 GROUP 0 A     ****
@<TRIPOS>MOLECULE
[[[5-(2-amino-6-oxo-7,8-dihydro-3~{H}-purin-8-ylium-9-yl)-3,4-dihydroxy-tetrahydrofuran-2-yl]methoxy-oxido-phosphoryl]oxy-oxido-phosphoryl] hydrogen phosphate
   46    48     1     0     0
SMALL
USER_CHARGES

@<TRIPOS>ATOM
      1 PG          1.9976    1.6400   -8.6870 P.3       1 GTP         1.5447
      2 O1G         1.3095    0.5696   -9.5044 O.co2     1 GTP        -0.8705
      3 O2G         1.5292    3.0773   -8.7367 O.co2     1 GTP        -0.8705
      4 O3G         3.5948    1.6034   -9.0240 O.3       1 GTP        -0.7914
      5 O3B         2.0632    1.1585   -7.1289 O.3       1 GTP        -0.8116
      6 PB          0.8569    0.9350   -6.0516 P.3       1 GTP         1.6738
      7 O1B         0.2124    2.2720   -5.7611 O.co2     1 GTP        -0.8763
      8 O2B         0.0370   -0.2648   -6.4710 O.co2     1 GTP        -0.8763
      9 O3A         1.7410    0.4642   -4.7626 O.3       1 GTP        -0.8005
     10 PA          2.9232    1.2546   -3.9579 P.3       1 GTP         1.5754
     11 O1A         4.0962    1.4572   -4.8924 O.co2     1 GTP        -0.8771
     12 O2A         2.3071    2.4181   -3.2121 O.co2     1 GTP        -0.8771
     13 O5'         3.2903    0.1346   -2.8241 O.3       1 GTP        -0.5809
     14 C5'         2.2816   -0.2918   -1.9206 C.3       1 GTP         0.1986
     15 C4'         2.7248    0.0226   -0.4980 C.3       1 GTP         0.0418
     16 O4'         2.4697    1.4219   -0.2462 O.3       1 GTP        -0.3505
     17 C3'         1.9404   -0.7419    0.5596 C.3       1 GTP         0.0909
     18 O3'         2.7418   -0.8086    1.7389 O.3       1 GTP        -0.6187
     19 C2'         0.7477    0.1630    0.7858 C.3       1 GTP         0.0706
     20 O2'         0.1373   -0.0577    2.0407 O.3       1 GTP        -0.6294
     21 C1'         1.3733    1.5427    0.6747 C.3       1 GTP         0.3895
     22 N9          0.4520    2.5240    0.1767 N.pl3     1 GTP        -0.4733
     23 C8         -0.2136    2.5096   -0.9739 C.ar      1 GTP         0.2958
     24 N7         -0.9896    3.5820   -1.1212 N.pl3     1 GTP        -0.4933
     25 C5         -0.7962    4.3186    0.0156 C.ar      1 GTP        -0.1494
     26 C6         -1.3875    5.6031    0.4192 C.ar      1 GTP         0.7954
     27 O6         -2.1869    6.1731   -0.3158 O.2       1 GTP        -0.5729
     28 N1         -0.9745    6.0930    1.6597 N.2       1 GTP        -0.7443
     29 C2         -0.1105    5.4166    2.3900 C.ar      1 GTP         0.8831
     30 N2          0.3241    5.8571    3.6138 N.pl3     1 GTP        -0.9204
     31 N3          0.4444    4.2053    2.0072 N.pl3     1 GTP        -0.7173
     32 C4          0.0746    3.6889    0.8098 C.ar      1 GTP         0.2626
     33 HOG3        4.1828    2.2433   -8.5690 H         1 GTP         0.4102
     34 H5'         1.3514    0.2330   -2.1577 H         1 GTP         0.0289
     35 H5''        2.1280   -1.3678   -2.0460 H         1 GTP         0.0289
     36 H4'         3.8044   -0.1397   -0.4040 H         1 GTP         0.2056
     37 H3'         1.6764   -1.7639    0.2728 H         1 GTP         0.1140
     38 HO3'        2.2232   -1.2979    2.3953 H         1 GTP         0.4287
     39 H2'        -0.0011    0.0027    0.0003 H         1 GTP         0.0809
     40 HO2'       -0.6141    0.5574    2.1082 H         1 GTP         0.4385
     41 H1'         1.7826    1.9024    1.6451 H         1 GTP         0.0794
     42 H8         -0.1415    1.7265   -1.7082 H         1 GTP         0.3821
     43 HN21       -0.0303    6.7197    3.9559 H         1 GTP         0.4411
     44 HN22        0.9765    5.2967    4.1108 H         1 GTP         0.4411
     45 H45         1.1068    3.6990    2.5819 H         1 GTP         0.4819
     46 H46        -1.5877    3.7943   -1.9074 H         1 GTP         0.5182
@<TRIPOS>BOND
     1    1    2 2
     2    1    3 1
     3    1    4 1
     4    1    5 1
     5    4   33 1
     6    5    6 1
     7    6    7 2
     8    6    8 1
     9    6    9 1
    10    9   10 1
    11   10   11 2
    12   10   12 1
    13   10   13 1
    14   13   14 1
    15   14   15 1
    16   14   34 1
    17   14   35 1
    18   15   16 1
    19   15   17 1
    20   15   36 1
    21   16   21 1
    22   17   18 1
    23   17   19 1
    24   17   37 1
    25   18   38 1
    26   19   20 1
    27   19   21 1
    28   19   39 1
    29   20   40 1
    30   21   22 1
    31   21   41 1
    32   22   23 ar
    33   22   32 ar
    34   23   24 ar
    35   23   42 1
    36   24   25 ar
    37   24   46 1
    38   25   26 ar
    39   25   32 ar
    40   26   27 2
    41   26   28 ar
    42   28   29 ar
    43   29   30 1
    44   29   31 ar
    45   30   43 1
    46   30   44 1
    47   31   32 ar
    48   31   45 1
@<TRIPOS>SUBSTRUCTURE
     1 GTP         1 GROUP 0 A     ****
@<TRIPOS>MOLECULE
[[[5-(2-amino-6-oxo-7,8-dihydro-3~{H}-purin-8-ylium-9-yl)-3,4-dihydroxy-tetrahydrofuran-2-yl]methoxy-oxido-phosphoryl]oxy-oxido-phosphoryl] hydrogen phosphate
   46    48     1     0     0
SMALL
USER_CHARGES

@<TRIPOS>ATOM
      1 PG          5.6048    4.5917   -4.5475 P.3       1 GTP         1.5447
      2 O1G         6.3683    4.5431   -3.2429 O.co2     1 GTP        -0.8705
      3 O2G         6.3159    4.4177   -5.8711 O.co2     1 GTP        -0.8705
      4 O3G         4.7503    5.9822   -4.5970 O.3       1 GTP        -0.7914
      5 O3B         4.3595    3.5394   -4.4738 O.3       1 GTP        -0.8116
      6 PB          3.1773    3.3946   -3.3571 P.3       1 GTP         1.6738
      7 O1B         3.7991    2.9724   -2.0446 O.co2     1 GTP        -0.8763
      8 O2B         2.2617    4.5949   -3.4495 O.co2     1 GTP        -0.8763
      9 O3A         2.3599    2.1376   -4.0025 O.3       1 GTP        -0.8005
     10 PA          2.8621    0.6170   -4.3270 P.3       1 GTP         1.5754
     11 O1A         1.6809   -0.1909   -4.8193 O.co2     1 GTP        -0.8771
     12 O2A         4.1462    0.6908   -5.1241 O.co2     1 GTP        -0.8771
     13 O5'         3.2903    0.1346   -2.8241 O.3       1 GTP        -0.5809
     14 C5'         2.2816   -0.2918   -1.9206 C.3       1 GTP         0.1986
     15 C4'         2.7248    0.0226   -0.4980 C.3       1 GTP         0.0418
     16 O4'         2.4697    1.4219   -0.2462 O.3       1 GTP        -0.3505
     17 C3'         1.9404   -0.7419    0.5596 C.3       1 GTP         0.0909
     18 O3'         2.7418   -0.8086    1.7389 O.3       1 GTP        -0.6187
     19 C2'         0.7477    0.1630    0.7858 C.3       1 GTP         0.0706
     20 O2'         0.1373   -0.0577    2.0407 O.3       1 GTP        -0.6294
     21 C1'         1.3733    1.5427    0.6747 C.3       1 GTP         0.3895
     22 N9          0.4520    2.5240    0.1767 N.pl3     1 GTP        -0.4733
     23 C8         -0.2136    2.5096   -0.9739 C.ar      1 GTP         0.2958
     24 N7         -0.9896    3.5820   -1.1212 N.pl3     1 GTP        -0.4933
     25 C5         -0.7962    4.3186    0.0156 C.ar      1 GTP        -0.1494
     26 C6         -1.3875    5.6031    0.4192 C.ar      1 GTP         0.7954
     27 O6         -2.1869    6.1731   -0.3158 O.2       1 GTP        -0.5729
     28 N1         -0.9745    6.0930    1.6597 N.2       1 GTP        -0.7443
     29 C2         -0.1105    5.4166    2.3900 C.ar      1 GTP         0.8831
     30 N2          0.3241    5.8571    3.6138 N.pl3     1 GTP        -0.9204
     31 N3          0.4444    4.2053    2.0072 N.pl3     1 GTP        -0.7173
     32 C4          0.0746    3.6889    0.8098 C.ar      1 GTP         0.2626
     33 HOG3        4.1979    6.1629   -5.3872 H         1 GTP         0.4102
     34 H5'         1.3514    0.2330   -2.1577 H         1 GTP         0.0289
     35 H5''        2.1280   -1.3678   -2.0460 H         1 GTP         0.0289
     36 H4'         3.8044   -0.1397   -0.4040 H         1 GTP         0.2056
     37 H3'         1.6764   -1.7639    0.2728 H         1 GTP         0.1140
     38 HO3'        2.2232   -1.2979    2.3953 H         1 GTP         0.4287
     39 H2'        -0.0011    0.0027    0.0003 H         1 GTP         0.0809
     40 HO2'       -0.1563   -0.9855    2.0596 H         1 GTP         0.4385
     41 H1'         1.7826    1.9024    1.6451 H         1 GTP         0.0794
     42 H8         -0.1415    1.7265   -1.7082 H         1 GTP         0.3821
     43 HN21       -0.0303    6.7197    3.9559 H         1 GTP         0.4411
     44 HN22        0.9765    5.2967    4.1108 H         1 GTP         0.4411
     45 H45         1.1068    3.6990    2.5819 H         1 GTP         0.4819
     46 H46        -1.5877    3.7943   -1.9074 H         1 GTP         0.5182
@<TRIPOS>BOND
     1    1    2 2
     2    1    3 1
     3    1    4 1
     4    1    5 1
     5    4   33 1
     6    5    6 1
     7    6    7 2
     8    6    8 1
     9    6    9 1
    10    9   10 1
    11   10   11 2
    12   10   12 1
    13   10   13 1
    14   13   14 1
    15   14   15 1
    16   14   34 1
    17   14   35 1
    18   15   16 1
    19   15   17 1
    20   15   36 1
    21   16   21 1
    22   17   18 1
    23   17   19 1
    24   17   37 1
    25   18   38 1
    26   19   20 1
    27   19   21 1
    28   19   39 1
    29   20   40 1
    30   21   22 1
    31   21   41 1
    32   22   23 ar
    33   22   32 ar
    34   23   24 ar
    35   23   42 1
    36   24   25 ar
    37   24   46 1
    38   25   26 ar
    39   25   32 ar
    40   26   27 2
    41   26   28 ar
    42   28   29 ar
    43   29   30 1
    44   29   31 ar
    45   30   43 1
    46   30   44 1
    47   31   32 ar
    48   31   45 1
@<TRIPOS>SUBSTRUCTURE
     1 GTP         1 GROUP 0 A     ****
@<TRIPOS>MOLECULE
[[[5-(2-amino-6-oxo-7,8-dihydro-3~{H}-purin-8-ylium-9-yl)-3,4-dihydroxy-tetrahydrofuran-2-yl]methoxy-oxido-phosphoryl]oxy-oxido-phosphoryl] hydrogen phosphate
   46    48     1     0     0
SMALL
USER_CHARGES

@<TRIPOS>ATOM
      1 PG         -5.9759   -8.4723    3.5113 P.3       1 GTP         1.5447
      2 O1G        -5.7538   -9.0456    4.8931 O.co2     1 GTP        -0.8705
      3 O2G        -7.3075   -7.8674    3.1256 O.co2     1 GTP        -0.8705
      4 O3G        -5.5848   -9.6109    2.4083 O.3       1 GTP        -0.7914
      5 O3B        -4.7922   -7.3968    3.1858 O.3       1 GTP        -0.8116
      6 PB         -4.4764   -5.9495    3.8722 P.3       1 GTP         1.6738
      7 O1B        -5.6165   -5.0059    3.5604 O.co2     1 GTP        -0.8763
      8 O2B        -3.9961   -6.1699    5.2893 O.co2     1 GTP        -0.8763
      9 O3A        -3.1638   -5.5263    2.9987 O.3       1 GTP        -0.8005
     10 PA         -1.7207   -6.2770    2.8455 P.3       1 GTP         1.5754
     11 O1A        -1.0265   -6.2759    4.1903 O.co2     1 GTP        -0.8771
     12 O2A        -1.9224   -7.5608    2.0704 O.co2     1 GTP        -0.8771
     13 O5'        -0.9724   -5.2440    1.8220 O.3       1 GTP        -0.5809
     14 C5'        -0.7840   -3.8935    2.2172 C.3       1 GTP         0.1986
     15 C4'        -0.0724   -3.1466    1.1027 C.3       1 GTP         0.0418
     16 O4'        -0.8674   -3.1929   -0.0945 O.3       1 GTP        -0.3505
     17 C3'         0.1338   -1.6715    1.4027 C.3       1 GTP         0.0909
     18 O3'         1.2893   -1.4445    2.1808 O.3       1 GTP        -0.6187
     19 C2'         0.2158   -1.0724    0.0128 C.3       1 GTP         0.0706
     20 O2'         1.5141   -1.2448   -0.5513 O.3       1 GTP        -0.6294
     21 C1'        -0.7897   -1.9176   -0.7583 C.3       1 GTP         0.3895
     22 N9         -2.1040   -1.3333   -0.7704 N.pl3     1 GTP        -0.4733
     23 C8         -3.0774   -1.4939    0.1205 C.ar      1 GTP         0.2958
     24 N7         -4.1709   -0.8031   -0.1972 N.pl3     1 GTP        -0.4933
     25 C5         -3.8606   -0.1662   -1.3678 C.ar      1 GTP        -0.1494
     26 C6         -4.6738    0.7391   -2.1934 C.ar      1 GTP         0.7954
     27 O6         -5.8186    1.0214   -1.8562 O.2       1 GTP        -0.5729
     28 N1         -4.0520    1.2260   -3.3448 N.2       1 GTP        -0.7443
     29 C2         -2.8155    0.8734   -3.6351 C.ar      1 GTP         0.8831
     30 N2         -2.1637    1.3257   -4.7536 N.pl3     1 GTP        -0.9204
     31 N3         -2.0511    0.0205   -2.8541 N.pl3     1 GTP        -0.7173
     32 C4         -2.6117   -0.4790   -1.7258 C.ar      1 GTP         0.2626
     33 HOG3       -5.6759   -9.3900    1.4569 H         1 GTP         0.4102
     34 H5'        -1.7618   -3.4448    2.4164 H         1 GTP         0.0289
     35 H5''       -0.1874   -3.8744    3.1341 H         1 GTP         0.0289
     36 H4'         0.8874   -3.6466    0.8805 H         1 GTP         0.2056
     37 H3'        -0.7376   -1.2333    1.9867 H         1 GTP         0.1140
     38 HO3'        1.3408   -0.4870    2.3219 H         1 GTP         0.4287
     39 H2'        -0.0384   -0.0310    0.0096 H         1 GTP         0.0809
     40 HO2'        2.1463   -0.7958    0.0370 H         1 GTP         0.4385
     41 H1'        -0.4769   -2.1002   -1.8093 H         1 GTP         0.0794
     42 H8         -3.0010   -2.1083    1.0004 H         1 GTP         0.3821
     43 HN21       -2.6485    1.9422   -5.3633 H         1 GTP         0.4411
     44 HN22       -1.2319    1.0195   -4.9110 H         1 GTP         0.4411
     45 H45        -1.1018   -0.2391   -3.0927 H         1 GTP         0.4819
     46 H46        -5.0365   -0.7653    0.3226 H         1 GTP         0.5182
@<TRIPOS>BOND
     1    1    2 2
     2    1    3 1
     3    1    4 1
     4    1    5 1
     5    4   33 1
     6    5    6 1
     7    6    7 2
     8    6    8 1
     9    6    9 1
    10    9   10 1
    11   10   11 2
    12   10   12 1
    13   10   13 1
    14   13   14 1
    15   14   15 1
    16   14   34 1
    17   14   35 1
    18   15   16 1
    19   15   17 1
    20   15   36 1
    21   16   21 1
    22   17   18 1
    23   17   19 1
    24   17   37 1
    25   18   38 1
    26   19   20 1
    27   19   21 1
    28   19   39 1
    29   20   40 1
    30   21   22 1
    31   21   41 1
    32   22   23 ar
    33   22   32 ar
    34   23   24 ar
    35   23   42 1
    36   24   25 ar
    37   24   46 1
    38   25   26 ar
    39   25   32 ar
    40   26   27 2
    41   26   28 ar
    42   28   29 ar
    43   29   30 1
    44   29   31 ar
    45   30   43 1
    46   30   44 1
    47   31   32 ar
    48   31   45 1
@<TRIPOS>SUBSTRUCTURE
     1 GTP         1 GROUP 0 A     ****
@<TRIPOS>MOLECULE
[[[5-(2-amino-6-oxo-7,8-dihydro-3~{H}-purin-8-ylium-9-yl)-3,4-dihydroxy-tetrahydrofuran-2-yl]methoxy-oxido-phosphoryl]oxy-oxido-phosphoryl] hydrogen phosphate
   46    48     1     0     0
SMALL
USER_CHARGES

@<TRIPOS>ATOM
      1 PG         -1.1461   -1.0416   -5.1972 P.3       1 GTP         1.5447
      2 O1G        -1.2241   -2.3314   -4.4112 O.co2     1 GTP        -0.8705
      3 O2G        -1.3067    0.2971   -4.5119 O.co2     1 GTP        -0.8705
      4 O3G        -2.2101   -1.1222   -6.4331 O.3       1 GTP        -0.7914
      5 O3B         0.2372   -1.0300   -6.0632 O.3       1 GTP        -0.8116
      6 PB          1.7878   -0.9613   -5.5565 P.3       1 GTP         1.6738
      7 O1B         2.0253   -2.0821   -4.5691 O.co2     1 GTP        -0.8763
      8 O2B         2.6893   -0.7565   -6.7536 O.co2     1 GTP        -0.8763
      9 O3A         1.7410    0.4642   -4.7626 O.3       1 GTP        -0.8005
     10 PA          2.9232    1.2546   -3.9579 P.3       1 GTP         1.5754
     11 O1A         4.0962    1.4572   -4.8924 O.co2     1 GTP        -0.8771
     12 O2A         2.3071    2.4181   -3.2121 O.co2     1 GTP        -0.8771
     13 O5'         3.2903    0.1346   -2.8241 O.3       1 GTP        -0.5809
     14 C5'         2.2816   -0.2918   -1.9206 C.3       1 GTP         0.1986
     15 C4'         2.7248    0.0226   -0.4980 C.3       1 GTP         0.0418
     16 O4'         2.4697    1.4219   -0.2462 O.3       1 GTP        -0.3505
     17 C3'         1.9404   -0.7419    0.5596 C.3       1 GTP         0.0909
     18 O3'         2.7418   -0.8086    1.7389 O.3       1 GTP        -0.6187
     19 C2'         0.7477    0.1630    0.7858 C.3       1 GTP         0.0706
     20 O2'         0.1373   -0.0577    2.0407 O.3       1 GTP        -0.6294
     21 C1'         1.3733    1.5427    0.6747 C.3       1 GTP         0.3895
     22 N9          0.4520    2.5240    0.1767 N.pl3     1 GTP        -0.4733
     23 C8         -0.2136    2.5096   -0.9739 C.ar      1 GTP         0.2958
     24 N7         -0.9896    3.5820   -1.1212 N.pl3     1 GTP        -0.4933
     25 C5         -0.7962    4.3186    0.0156 C.ar      1 GTP        -0.1494
     26 C6         -1.3875    5.6031    0.4192 C.ar      1 GTP         0.7954
     27 O6         -2.1869    6.1731   -0.3158 O.2       1 GTP        -0.5729
     28 N1         -0.9745    6.0930    1.6597 N.2       1 GTP        -0.7443
     29 C2         -0.1105    5.4166    2.3900 C.ar      1 GTP         0.8831
     30 N2          0.3241    5.8571    3.6138 N.pl3     1 GTP        -0.9204
     31 N3          0.4444    4.2053    2.0072 N.pl3     1 GTP        -0.7173
     32 C4          0.0746    3.6889    0.8098 C.ar      1 GTP         0.2626
     33 HOG3       -2.2792   -0.3551   -7.0405 H         1 GTP         0.4102
     34 H5'         1.3514    0.2330   -2.1577 H         1 GTP         0.0289
     35 H5''        2.1280   -1.3678   -2.0460 H         1 GTP         0.0289
     36 H4'         3.8044   -0.1397   -0.4040 H         1 GTP         0.2056
     37 H3'         1.6764   -1.7639    0.2728 H         1 GTP         0.1140
     38 HO3'        2.2232   -1.2979    2.3953 H         1 GTP         0.4287
     39 H2'        -0.0011    0.0027    0.0003 H         1 GTP         0.0809
     40 HO2'       -0.6141    0.5574    2.1082 H         1 GTP         0.4385
     41 H1'         1.7826    1.9024    1.6451 H         1 GTP         0.0794
     42 H8         -0.1415    1.7265   -1.7082 H         1 GTP         0.3821
     43 HN21       -0.0303    6.7197    3.9559 H         1 GTP         0.4411
     44 HN22        0.9765    5.2967    4.1108 H         1 GTP         0.4411
     45 H45         1.1068    3.6990    2.5819 H         1 GTP         0.4819
     46 H46        -1.5877    3.7943   -1.9074 H         1 GTP         0.5182
@<TRIPOS>BOND
     1    1    2 2
     2    1    3 1
     3    1    4 1
     4    1    5 1
     5    4   33 1
     6    5    6 1
     7    6    7 2
     8    6    8 1
     9    6    9 1
    10    9   10 1
    11   10   11 2
    12   10   12 1
    13   10   13 1
    14   13   14 1
    15   14   15 1
    16   14   34 1
    17   14   35 1
    18   15   16 1
    19   15   17 1
    20   15   36 1
    21   16   21 1
    22   17   18 1
    23   17   19 1
    24   17   37 1
    25   18   38 1
    26   19   20 1
    27   19   21 1
    28   19   39 1
    29   20   40 1
    30   21   22 1
    31   21   41 1
    32   22   23 ar
    33   22   32 ar
    34   23   24 ar
    35   23   42 1
    36   24   25 ar
    37   24   46 1
    38   25   26 ar
    39   25   32 ar
    40   26   27 2
    41   26   28 ar
    42   28   29 ar
    43   29   30 1
    44   29   31 ar
    45   30   43 1
    46   30   44 1
    47   31   32 ar
    48   31   45 1
@<TRIPOS>SUBSTRUCTURE
     1 GTP         1 GROUP 0 A     ****
@<TRIPOS>MOLECULE
[[[5-(2-amino-6-oxo-7,8-dihydro-3~{H}-purin-8-ylium-9-yl)-3,4-dihydroxy-tetrahydrofuran-2-yl]methoxy-oxido-phosphoryl]oxy-oxido-phosphoryl] hydrogen phosphate
   46    48     1     0     0
SMALL
USER_CHARGES

@<TRIPOS>ATOM
      1 PG          2.2917   -4.8289   -6.3847 P.3       1 GTP         1.5447
      2 O1G         0.8432   -4.5983   -6.7535 O.co2     1 GTP        -0.8705
      3 O2G         3.3533   -4.9673   -7.4531 O.co2     1 GTP        -0.8705
      4 O3G         2.3754   -6.1281   -5.3993 O.3       1 GTP        -0.7914
      5 O3B         2.7580   -3.6822   -5.3210 O.3       1 GTP        -0.8116
      6 PB          4.1520   -3.5373   -4.4835 P.3       1 GTP         1.6738
      7 O1B         4.2527   -4.6877   -3.5068 O.co2     1 GTP        -0.8763
      8 O2B         5.2739   -3.2147   -5.4452 O.co2     1 GTP        -0.8763
      9 O3A         3.8274   -2.1590   -3.6712 O.3       1 GTP        -0.8005
     10 PA          3.4844   -0.6652   -4.2374 P.3       1 GTP         1.5754
     11 O1A         4.6940   -0.1355   -4.9767 O.co2     1 GTP        -0.8771
     12 O2A         2.1200   -0.6965   -4.8909 O.co2     1 GTP        -0.8771
     13 O5'         3.2903    0.1346   -2.8241 O.3       1 GTP        -0.5809
     14 C5'         2.2816   -0.2918   -1.9206 C.3       1 GTP         0.1986
     15 C4'         2.7248    0.0226   -0.4980 C.3       1 GTP         0.0418
     16 O4'         2.4697    1.4219   -0.2462 O.3       1 GTP        -0.3505
     17 C3'         1.9404   -0.7419    0.5596 C.3       1 GTP         0.0909
     18 O3'         2.7418   -0.8086    1.7389 O.3       1 GTP        -0.6187
     19 C2'         0.7477    0.1630    0.7858 C.3       1 GTP         0.0706
     20 O2'         0.1373   -0.0577    2.0407 O.3       1 GTP        -0.6294
     21 C1'         1.3733    1.5427    0.6747 C.3       1 GTP         0.3895
     22 N9          0.4520    2.5240    0.1767 N.pl3     1 GTP        -0.4733
     23 C8          0.2012    2.8401   -1.0899 C.ar      1 GTP         0.2958
     24 N7         -0.7168    3.7990   -1.1981 N.pl3     1 GTP        -0.4933
     25 C5         -1.0645    4.1043    0.0896 C.ar      1 GTP        -0.1494
     26 C6         -2.0336    5.0870    0.5973 C.ar      1 GTP         0.7954
     27 O6         -2.6730    5.7839   -0.1834 O.2       1 GTP        -0.5729
     28 N1         -2.1539    5.1517    1.9868 N.2       1 GTP        -0.7443
     29 C2         -1.4288    4.3650    2.7566 C.ar      1 GTP         0.8831
     30 N2         -1.5126    4.3922    4.1250 N.pl3     1 GTP        -0.9204
     31 N3         -0.5167    3.4388    2.2748 N.pl3     1 GTP        -0.7173
     32 C4         -0.3638    3.3392    0.9318 C.ar      1 GTP         0.2626
     33 HOG3        3.2559   -6.4084   -5.0700 H         1 GTP         0.4102
     34 H5'         1.3514    0.2330   -2.1577 H         1 GTP         0.0289
     35 H5''        2.1280   -1.3678   -2.0460 H         1 GTP         0.0289
     36 H4'         3.8044   -0.1397   -0.4040 H         1 GTP         0.2056
     37 H3'         1.6764   -1.7639    0.2728 H         1 GTP         0.1140
     38 HO3'        3.5554   -1.2733    1.4914 H         1 GTP         0.4287
     39 H2'        -0.0011    0.0027    0.0003 H         1 GTP         0.0809
     40 HO2'       -0.6141    0.5574    2.1082 H         1 GTP         0.4385
     41 H1'         1.7826    1.9024    1.6451 H         1 GTP         0.0794
     42 H8          0.6787    2.3803   -1.9373 H         1 GTP         0.3821
     43 HN21       -2.1462    5.0320    4.5446 H         1 GTP         0.4411
     44 HN22       -0.9365    3.7712    4.6440 H         1 GTP         0.4411
     45 H45         0.0318    2.8419    2.8816 H         1 GTP         0.4819
     46 H46        -1.0718    4.2049   -2.0526 H         1 GTP         0.5182
@<TRIPOS>BOND
     1    1    2 2
     2    1    3 1
     3    1    4 1
     4    1    5 1
     5    4   33 1
     6    5    6 1
     7    6    7 2
     8    6    8 1
     9    6    9 1
    10    9   10 1
    11   10   11 2
    12   10   12 1
    13   10   13 1
    14   13   14 1
    15   14   15 1
    16   14   34 1
    17   14   35 1
    18   15   16 1
    19   15   17 1
    20   15   36 1
    21   16   21 1
    22   17   18 1
    23   17   19 1
    24   17   37 1
    25   18   38 1
    26   19   20 1
    27   19   21 1
    28   19   39 1
    29   20   40 1
    30   21   22 1
    31   21   41 1
    32   22   23 ar
    33   22   32 ar
    34   23   24 ar
    35   23   42 1
    36   24   25 ar
    37   24   46 1
    38   25   26 ar
    39   25   32 ar
    40   26   27 2
    41   26   28 ar
    42   28   29 ar
    43   29   30 1
    44   29   31 ar
    45   30   43 1
    46   30   44 1
    47   31   32 ar
    48   31   45 1
@<TRIPOS>SUBSTRUCTURE
     1 GTP         1 GROUP 0 A     ****
@<TRIPOS>MOLECULE
[[[5-(2-amino-6-oxo-7,8-dihydro-3~{H}-purin-8-ylium-9-yl)-3,4-dihydroxy-tetrahydrofuran-2-yl]methoxy-oxido-phosphoryl]oxy-oxido-phosphoryl] hydrogen phosphate
   46    48     1     0     0
SMALL
USER_CHARGES

@<TRIPOS>ATOM
      1 PG         -1.2563    0.5848   -5.7007 P.3       1 GTP         1.5447
      2 O1G        -1.0073    1.6681   -6.7263 O.co2     1 GTP        -0.8705
      3 O2G        -2.6602    0.1129   -5.3937 O.co2     1 GTP        -0.8705
      4 O3G        -0.5383    1.0210   -4.3007 O.3       1 GTP        -0.7914
      5 O3B        -0.3299   -0.7100   -6.0600 O.3       1 GTP        -0.8116
      6 PB          1.2796   -0.8054   -6.3174 P.3       1 GTP         1.6738
      7 O1B         1.6595   -2.2605   -6.4776 O.co2     1 GTP        -0.8763
      8 O2B         1.6778    0.2342   -7.3413 O.co2     1 GTP        -0.8763
      9 O3A         1.8086   -0.2594   -4.8729 O.3       1 GTP        -0.8005
     10 PA          3.3343   -0.0514   -4.3264 P.3       1 GTP         1.5754
     11 O1A         4.0106   -1.4028   -4.2454 O.co2     1 GTP        -0.8771
     12 O2A         3.9675    1.0961   -5.0826 O.co2     1 GTP        -0.8771
     13 O5'         3.0213    0.5153   -2.8245 O.3       1 GTP        -0.5809
     14 C5'         2.2816   -0.2918   -1.9206 C.3       1 GTP         0.1986
     15 C4'         2.7248    0.0226   -0.4980 C.3       1 GTP         0.0418
     16 O4'         2.4697    1.4219   -0.2462 O.3       1 GTP        -0.3505
     17 C3'         1.9404   -0.7419    0.5596 C.3       1 GTP         0.0909
     18 O3'         2.7418   -0.8086    1.7389 O.3       1 GTP        -0.6187
     19 C2'         0.7477    0.1630    0.7858 C.3       1 GTP         0.0706
     20 O2'         0.1373   -0.0577    2.0407 O.3       1 GTP        -0.6294
     21 C1'         1.3733    1.5427    0.6747 C.3       1 GTP         0.3895
     22 N9          0.4520    2.5240    0.1767 N.pl3     1 GTP        -0.4733
     23 C8          0.5427    3.2356   -0.9425 C.ar      1 GTP         0.2958
     24 N7         -0.4919    4.0590   -1.1018 N.pl3     1 GTP        -0.4933
     25 C5         -1.2850    3.8484   -0.0069 C.ar      1 GTP        -0.1494
     26 C6         -2.5644    4.4707    0.3650 C.ar      1 GTP         0.7954
     27 O6         -3.0718    5.3200   -0.3599 O.2       1 GTP        -0.5729
     28 N1         -3.1239    4.0269    1.5647 N.2       1 GTP        -0.7443
     29 C2         -2.5133    3.1079    2.2858 C.ar      1 GTP         0.8831
     30 N2         -3.0239    2.6409    3.4697 N.pl3     1 GTP        -0.9204
     31 N3         -1.3076    2.5223    1.9320 N.pl3     1 GTP        -0.7173
     32 C4         -0.7246    2.9211    0.7753 C.ar      1 GTP         0.2626
     33 HOG3       -0.6098    0.4168   -3.5312 H         1 GTP         0.4102
     34 H5'         1.2163   -0.0770   -2.0471 H         1 GTP         0.0289
     35 H5''        2.4655   -1.3443   -2.1563 H         1 GTP         0.0289
     36 H4'         3.8044   -0.1397   -0.4040 H         1 GTP         0.2056
     37 H3'         1.6764   -1.7639    0.2728 H         1 GTP         0.1140
     38 HO3'        2.2232   -1.2979    2.3953 H         1 GTP         0.4287
     39 H2'        -0.0011    0.0027    0.0003 H         1 GTP         0.0809
     40 HO2'       -0.1563   -0.9855    2.0596 H         1 GTP         0.4385
     41 H1'         1.7826    1.9024    1.6451 H         1 GTP         0.0794
     42 H8          1.3539    3.1622   -1.6455 H         1 GTP         0.3821
     43 HN21       -3.8871    3.0143    3.7893 H         1 GTP         0.4411
     44 HN22       -2.5108    1.9472    3.9621 H         1 GTP         0.4411
     45 H45        -0.8530    1.8168    2.4986 H         1 GTP         0.4819
     46 H46        -0.6466    4.6966   -1.8702 H         1 GTP         0.5182
@<TRIPOS>BOND
     1    1    2 2
     2    1    3 1
     3    1    4 1
     4    1    5 1
     5    4   33 1
     6    5    6 1
     7    6    7 2
     8    6    8 1
     9    6    9 1
    10    9   10 1
    11   10   11 2
    12   10   12 1
    13   10   13 1
    14   13   14 1
    15   14   15 1
    16   14   34 1
    17   14   35 1
    18   15   16 1
    19   15   17 1
    20   15   36 1
    21   16   21 1
    22   17   18 1
    23   17   19 1
    24   17   37 1
    25   18   38 1
    26   19   20 1
    27   19   21 1
    28   19   39 1
    29   20   40 1
    30   21   22 1
    31   21   41 1
    32   22   23 ar
    33   22   32 ar
    34   23   24 ar
    35   23   42 1
    36   24   25 ar
    37   24   46 1
    38   25   26 ar
    39   25   32 ar
    40   26   27 2
    41   26   28 ar
    42   28   29 ar
    43   29   30 1
    44   29   31 ar
    45   30   43 1
    46   30   44 1
    47   31   32 ar
    48   31   45 1
@<TRIPOS>SUBSTRUCTURE
     1 GTP         1 GROUP 0 A     ****
@<TRIPOS>MOLECULE
[[[5-(2-amino-6-oxo-7,8-dihydro-3~{H}-purin-8-ylium-9-yl)-3,4-dihydroxy-tetrahydrofuran-2-yl]methoxy-oxido-phosphoryl]oxy-oxido-phosphoryl] hydrogen phosphate
   46    48     1     0     0
SMALL
USER_CHARGES

@<TRIPOS>ATOM
      1 PG          3.3521   -4.9565   -2.0158 P.3       1 GTP         1.5447
      2 O1G         3.9850   -6.0494   -1.1837 O.co2     1 GTP        -0.8705
      3 O2G         2.8189   -3.6973   -1.3693 O.co2     1 GTP        -0.8705
      4 O3G         2.1651   -5.6163   -2.9223 O.3       1 GTP        -0.7914
      5 O3B         4.3772   -4.5415   -3.2161 O.3       1 GTP        -0.8116
      6 PB          4.1520   -3.5373   -4.4835 P.3       1 GTP         1.6738
      7 O1B         5.4623   -3.3904   -5.2245 O.co2     1 GTP        -0.8763
      8 O2B         2.8769   -3.9243   -5.1990 O.co2     1 GTP        -0.8763
      9 O3A         3.8274   -2.1590   -3.6712 O.3       1 GTP        -0.8005
     10 PA          3.4844   -0.6652   -4.2374 P.3       1 GTP         1.5754
     11 O1A         4.6940   -0.1355   -4.9767 O.co2     1 GTP        -0.8771
     12 O2A         2.1200   -0.6965   -4.8909 O.co2     1 GTP        -0.8771
     13 O5'         3.2903    0.1346   -2.8241 O.3       1 GTP        -0.5809
     14 C5'         2.2816   -0.2918   -1.9206 C.3       1 GTP         0.1986
     15 C4'         2.7248    0.0226   -0.4980 C.3       1 GTP         0.0418
     16 O4'         2.4697    1.4219   -0.2462 O.3       1 GTP        -0.3505
     17 C3'         1.9404   -0.7419    0.5596 C.3       1 GTP         0.0909
     18 O3'         2.7418   -0.8086    1.7389 O.3       1 GTP        -0.6187
     19 C2'         0.7477    0.1630    0.7858 C.3       1 GTP         0.0706
     20 O2'         0.1373   -0.0577    2.0407 O.3       1 GTP        -0.6294
     21 C1'         1.3733    1.5427    0.6747 C.3       1 GTP         0.3895
     22 N9          0.4520    2.5240    0.1767 N.pl3     1 GTP        -0.4733
     23 C8          0.2012    2.8401   -1.0899 C.ar      1 GTP         0.2958
     24 N7         -0.7168    3.7990   -1.1981 N.pl3     1 GTP        -0.4933
     25 C5         -1.0645    4.1043    0.0896 C.ar      1 GTP        -0.1494
     26 C6         -2.0336    5.0870    0.5973 C.ar      1 GTP         0.7954
     27 O6         -2.6730    5.7839   -0.1834 O.2       1 GTP        -0.5729
     28 N1         -2.1539    5.1517    1.9868 N.2       1 GTP        -0.7443
     29 C2         -1.4288    4.3650    2.7566 C.ar      1 GTP         0.8831
     30 N2         -1.5126    4.3922    4.1250 N.pl3     1 GTP        -0.9204
     31 N3         -0.5167    3.4388    2.2748 N.pl3     1 GTP        -0.7173
     32 C4         -0.3638    3.3392    0.9318 C.ar      1 GTP         0.2626
     33 HOG3        1.6551   -5.0307   -3.5217 H         1 GTP         0.4102
     34 H5'         1.3514    0.2330   -2.1577 H         1 GTP         0.0289
     35 H5''        2.1280   -1.3678   -2.0460 H         1 GTP         0.0289
     36 H4'         3.8044   -0.1397   -0.4040 H         1 GTP         0.2056
     37 H3'         1.6764   -1.7639    0.2728 H         1 GTP         0.1140
     38 HO3'        2.2232   -1.2979    2.3953 H         1 GTP         0.4287
     39 H2'        -0.0011    0.0027    0.0003 H         1 GTP         0.0809
     40 HO2'       -0.6141    0.5574    2.1082 H         1 GTP         0.4385
     41 H1'         1.7826    1.9024    1.6451 H         1 GTP         0.0794
     42 H8          0.6787    2.3803   -1.9373 H         1 GTP         0.3821
     43 HN21       -2.1462    5.0320    4.5446 H         1 GTP         0.4411
     44 HN22       -0.9365    3.7712    4.6440 H         1 GTP         0.4411
     45 H45         0.0318    2.8419    2.8816 H         1 GTP         0.4819
     46 H46        -1.0718    4.2049   -2.0526 H         1 GTP         0.5182
@<TRIPOS>BOND
     1    1    2 2
     2    1    3 1
     3    1    4 1
     4    1    5 1
     5    4   33 1
     6    5    6 1
     7    6    7 2
     8    6    8 1
     9    6    9 1
    10    9   10 1
    11   10   11 2
    12   10   12 1
    13   10   13 1
    14   13   14 1
    15   14   15 1
    16   14   34 1
    17   14   35 1
    18   15   16 1
    19   15   17 1
    20   15   36 1
    21   16   21 1
    22   17   18 1
    23   17   19 1
    24   17   37 1
    25   18   38 1
    26   19   20 1
    27   19   21 1
    28   19   39 1
    29   20   40 1
    30   21   22 1
    31   21   41 1
    32   22   23 ar
    33   22   32 ar
    34   23   24 ar
    35   23   42 1
    36   24   25 ar
    37   24   46 1
    38   25   26 ar
    39   25   32 ar
    40   26   27 2
    41   26   28 ar
    42   28   29 ar
    43   29   30 1
    44   29   31 ar
    45   30   43 1
    46   30   44 1
    47   31   32 ar
    48   31   45 1
@<TRIPOS>SUBSTRUCTURE
     1 GTP         1 GROUP 0 A     ****
@<TRIPOS>MOLECULE
[[[5-(2-amino-6-oxo-7,8-dihydro-3~{H}-purin-8-ylium-9-yl)-3,4-dihydroxy-tetrahydrofuran-2-yl]methoxy-oxido-phosphoryl]oxy-oxido-phosphoryl] hydrogen phosphate
   46    48     1     0     0
SMALL
USER_CHARGES

@<TRIPOS>ATOM
      1 PG         -0.4502    4.5507   -5.0191 P.3       1 GTP         1.5447
      2 O1G        -1.7466    3.7908   -5.1903 O.co2     1 GTP        -0.8705
      3 O2G        -0.4301    5.9178   -4.3724 O.co2     1 GTP        -0.8705
      4 O3G         0.2863    4.6539   -6.4727 O.3       1 GTP        -0.7914
      5 O3B         0.6318    3.5915   -4.2620 O.3       1 GTP        -0.8116
      6 PB          1.9515    3.9906   -3.3876 P.3       1 GTP         1.6738
      7 O1B         2.9596    4.6478   -4.3036 O.co2     1 GTP        -0.8763
      8 O2B         1.5091    4.6449   -2.0977 O.co2     1 GTP        -0.8763
      9 O3A         2.4676    2.4927   -2.9940 O.3       1 GTP        -0.8005
     10 PA          2.9232    1.2546   -3.9579 P.3       1 GTP         1.5754
     11 O1A         1.7279    0.8049   -4.7699 O.co2     1 GTP        -0.8771
     12 O2A         4.2314    1.6172   -4.6264 O.co2     1 GTP        -0.8771
     13 O5'         3.2903    0.1346   -2.8241 O.3       1 GTP        -0.5809
     14 C5'         2.2816   -0.2918   -1.9206 C.3       1 GTP         0.1986
     15 C4'         2.7248    0.0226   -0.4980 C.3       1 GTP         0.0418
     16 O4'         2.4697    1.4219   -0.2462 O.3       1 GTP        -0.3505
     17 C3'         1.9404   -0.7419    0.5596 C.3       1 GTP         0.0909
     18 O3'         2.7418   -0.8086    1.7389 O.3       1 GTP        -0.6187
     19 C2'         0.7477    0.1630    0.7858 C.3       1 GTP         0.0706
     20 O2'         0.1373   -0.0577    2.0407 O.3       1 GTP        -0.6294
     21 C1'         1.3733    1.5427    0.6747 C.3       1 GTP         0.3895
     22 N9          0.4520    2.5240    0.1767 N.pl3     1 GTP        -0.4733
     23 C8         -0.2136    2.5096   -0.9739 C.ar      1 GTP         0.2958
     24 N7         -0.9896    3.5820   -1.1212 N.pl3     1 GTP        -0.4933
     25 C5         -0.7962    4.3186    0.0156 C.ar      1 GTP        -0.1494
     26 C6         -1.3875    5.6031    0.4192 C.ar      1 GTP         0.7954
     27 O6         -2.1869    6.1731   -0.3158 O.2       1 GTP        -0.5729
     28 N1         -0.9745    6.0930    1.6597 N.2       1 GTP        -0.7443
     29 C2         -0.1105    5.4166    2.3900 C.ar      1 GTP         0.8831
     30 N2          0.3241    5.8571    3.6138 N.pl3     1 GTP        -0.9204
     31 N3          0.4444    4.2053    2.0072 N.pl3     1 GTP        -0.7173
     32 C4          0.0746    3.6889    0.8098 C.ar      1 GTP         0.2626
     33 HOG3        1.1465    5.1222   -6.5281 H         1 GTP         0.4102
     34 H5'         1.3514    0.2330   -2.1577 H         1 GTP         0.0289
     35 H5''        2.1280   -1.3678   -2.0460 H         1 GTP         0.0289
     36 H4'         3.8044   -0.1397   -0.4040 H         1 GTP         0.2056
     37 H3'         1.6764   -1.7639    0.2728 H         1 GTP         0.1140
     38 HO3'        2.2232   -1.2979    2.3953 H         1 GTP         0.4287
     39 H2'        -0.0011    0.0027    0.0003 H         1 GTP         0.0809
     40 HO2'       -0.1563   -0.9855    2.0596 H         1 GTP         0.4385
     41 H1'         1.7826    1.9024    1.6451 H         1 GTP         0.0794
     42 H8         -0.1415    1.7265   -1.7082 H         1 GTP         0.3821
     43 HN21       -0.0303    6.7197    3.9559 H         1 GTP         0.4411
     44 HN22        0.9765    5.2967    4.1108 H         1 GTP         0.4411
     45 H45         1.1068    3.6990    2.5819 H         1 GTP         0.4819
     46 H46        -1.5877    3.7943   -1.9074 H         1 GTP         0.5182
@<TRIPOS>BOND
     1    1    2 2
     2    1    3 1
     3    1    4 1
     4    1    5 1
     5    4   33 1
     6    5    6 1
     7    6    7 2
     8    6    8 1
     9    6    9 1
    10    9   10 1
    11   10   11 2
    12   10   12 1
    13   10   13 1
    14   13   14 1
    15   14   15 1
    16   14   34 1
    17   14   35 1
    18   15   16 1
    19   15   17 1
    20   15   36 1
    21   16   21 1
    22   17   18 1
    23   17   19 1
    24   17   37 1
    25   18   38 1
    26   19   20 1
    27   19   21 1
    28   19   39 1
    29   20   40 1
    30   21   22 1
    31   21   41 1
    32   22   23 ar
    33   22   32 ar
    34   23   24 ar
    35   23   42 1
    36   24   25 ar
    37   24   46 1
    38   25   26 ar
    39   25   32 ar
    40   26   27 2
    41   26   28 ar
    42   28   29 ar
    43   29   30 1
    44   29   31 ar
    45   30   43 1
    46   30   44 1
    47   31   32 ar
    48   31   45 1
@<TRIPOS>SUBSTRUCTURE
     1 GTP         1 GROUP 0 A     ****
@<TRIPOS>MOLECULE
[[[5-(2-amino-6-oxo-7,8-dihydro-3~{H}-purin-8-ylium-9-yl)-3,4-dihydroxy-tetrahydrofuran-2-yl]methoxy-oxido-phosphoryl]oxy-oxido-phosphoryl] hydrogen phosphate
   46    48     1     0     0
SMALL
USER_CHARGES

@<TRIPOS>ATOM
      1 PG          4.0136   -1.2135   -8.6843 P.3       1 GTP         1.5447
      2 O1G         5.2113   -2.1358   -8.7339 O.co2     1 GTP        -0.8705
      3 O2G         2.7741   -1.5045   -9.5008 O.co2     1 GTP        -0.8705
      4 O3G         4.5130    0.3037   -9.0227 O.3       1 GTP        -0.7914
      5 O3B         3.5804   -0.9889   -7.1269 O.3       1 GTP        -0.8116
      6 PB          2.9657   -2.0498   -6.0488 P.3       1 GTP         1.6738
      7 O1B         1.5934   -2.4782   -6.5185 O.co2     1 GTP        -0.8763
      8 O2B         4.0312   -3.0614   -5.6897 O.co2     1 GTP        -0.8763
      9 O3A         2.8162   -1.0576   -4.7611 O.3       1 GTP        -0.8005
     10 PA          3.9554   -0.2064   -3.9565 P.3       1 GTP         1.5754
     11 O1A         4.9156   -1.1760   -3.3022 O.co2     1 GTP        -0.8771
     12 O2A         4.4556    0.9034   -4.8553 O.co2     1 GTP        -0.8771
     13 O5'         3.0213    0.5153   -2.8245 O.3       1 GTP        -0.5809
     14 C5'         2.2816   -0.2918   -1.9206 C.3       1 GTP         0.1986
     15 C4'         2.7248    0.0226   -0.4980 C.3       1 GTP         0.0418
     16 O4'         2.4697    1.4219   -0.2462 O.3       1 GTP        -0.3505
     17 C3'         1.9404   -0.7419    0.5596 C.3       1 GTP         0.0909
     18 O3'         2.7418   -0.8086    1.7389 O.3       1 GTP        -0.6187
     19 C2'         0.7477    0.1630    0.7858 C.3       1 GTP         0.0706
     20 O2'         0.1373   -0.0577    2.0407 O.3       1 GTP        -0.6294
     21 C1'         1.3733    1.5427    0.6747 C.3       1 GTP         0.3895
     22 N9          0.4520    2.5240    0.1767 N.pl3     1 GTP        -0.4733
     23 C8         -0.2136    2.5096   -0.9739 C.ar      1 GTP         0.2958
     24 N7         -0.9896    3.5820   -1.1212 N.pl3     1 GTP        -0.4933
     25 C5         -0.7962    4.3186    0.0156 C.ar      1 GTP        -0.1494
     26 C6         -1.3875    5.6031    0.4192 C.ar      1 GTP         0.7954
     27 O6         -2.1869    6.1731   -0.3158 O.2       1 GTP        -0.5729
     28 N1         -0.9745    6.0930    1.6597 N.2       1 GTP        -0.7443
     29 C2         -0.1105    5.4166    2.3900 C.ar      1 GTP         0.8831
     30 N2          0.3241    5.8571    3.6138 N.pl3     1 GTP        -0.9204
     31 N3          0.4444    4.2053    2.0072 N.pl3     1 GTP        -0.7173
     32 C4          0.0746    3.6889    0.8098 C.ar      1 GTP         0.2626
     33 HOG3        3.8469    1.0238   -9.0298 H         1 GTP         0.4102
     34 H5'         1.2163   -0.0770   -2.0471 H         1 GTP         0.0289
     35 H5''        2.4655   -1.3443   -2.1563 H         1 GTP         0.0289
     36 H4'         3.8044   -0.1397   -0.4040 H         1 GTP         0.2056
     37 H3'         1.6764   -1.7639    0.2728 H         1 GTP         0.1140
     38 HO3'        2.2232   -1.2979    2.3953 H         1 GTP         0.4287
     39 H2'        -0.0011    0.0027    0.0003 H         1 GTP         0.0809
     40 HO2'       -0.6141    0.5574    2.1082 H         1 GTP         0.4385
     41 H1'         1.7826    1.9024    1.6451 H         1 GTP         0.0794
     42 H8         -0.1415    1.7265   -1.7082 H         1 GTP         0.3821
     43 HN21       -0.0303    6.7197    3.9559 H         1 GTP         0.4411
     44 HN22        0.9765    5.2967    4.1108 H         1 GTP         0.4411
     45 H45         1.1068    3.6990    2.5819 H         1 GTP         0.4819
     46 H46        -1.5877    3.7943   -1.9074 H         1 GTP         0.5182
@<TRIPOS>BOND
     1    1    2 2
     2    1    3 1
     3    1    4 1
     4    1    5 1
     5    4   33 1
     6    5    6 1
     7    6    7 2
     8    6    8 1
     9    6    9 1
    10    9   10 1
    11   10   11 2
    12   10   12 1
    13   10   13 1
    14   13   14 1
    15   14   15 1
    16   14   34 1
    17   14   35 1
    18   15   16 1
    19   15   17 1
    20   15   36 1
    21   16   21 1
    22   17   18 1
    23   17   19 1
    24   17   37 1
    25   18   38 1
    26   19   20 1
    27   19   21 1
    28   19   39 1
    29   20   40 1
    30   21   22 1
    31   21   41 1
    32   22   23 ar
    33   22   32 ar
    34   23   24 ar
    35   23   42 1
    36   24   25 ar
    37   24   46 1
    38   25   26 ar
    39   25   32 ar
    40   26   27 2
    41   26   28 ar
    42   28   29 ar
    43   29   30 1
    44   29   31 ar
    45   30   43 1
    46   30   44 1
    47   31   32 ar
    48   31   45 1
@<TRIPOS>SUBSTRUCTURE
     1 GTP         1 GROUP 0 A     ****
@<TRIPOS>MOLECULE
[[[5-(2-amino-6-oxo-7,8-dihydro-3~{H}-purin-8-ylium-9-yl)-3,4-dihydroxy-tetrahydrofuran-2-yl]methoxy-oxido-phosphoryl]oxy-oxido-phosphoryl] hydrogen phosphate
   46    48     1     0     0
SMALL
USER_CHARGES

@<TRIPOS>ATOM
      1 PG          7.1661   -1.0280   -6.0480 P.3       1 GTP         1.5447
      2 O1G         7.9199   -0.2532   -4.9901 O.co2     1 GTP        -0.8705
      3 O2G         7.6885   -2.3507   -6.5628 O.co2     1 GTP        -0.8705
      4 O3G         6.9026   -0.0429   -7.3232 O.3       1 GTP        -0.7914
      5 O3B         5.6199   -1.2226   -5.5631 O.3       1 GTP        -0.8116
      6 PB          5.0152   -2.0896   -4.3188 P.3       1 GTP         1.6738
      7 O1B         5.2682   -3.5572   -4.5823 O.co2     1 GTP        -0.8763
      8 O2B         5.4250   -1.4367   -3.0175 O.co2     1 GTP        -0.8763
      9 O3A         3.4281   -1.7650   -4.5203 O.3       1 GTP        -0.8005
     10 PA          2.1372   -2.2718   -3.6563 P.3       1 GTP         1.5754
     11 O1A         0.8958   -1.5923   -4.1925 O.co2     1 GTP        -0.8771
     12 O2A         2.2074   -3.7770   -3.5183 O.co2     1 GTP        -0.8771
     13 O5'         2.5245   -1.6648   -2.1878 O.3       1 GTP        -0.5809
     14 C5'         2.2816   -0.2918   -1.9206 C.3       1 GTP         0.1986
     15 C4'         2.7248    0.0226   -0.4980 C.3       1 GTP         0.0418
     16 O4'         2.4697    1.4219   -0.2462 O.3       1 GTP        -0.3505
     17 C3'         1.9404   -0.7419    0.5596 C.3       1 GTP         0.0909
     18 O3'         2.7418   -0.8086    1.7389 O.3       1 GTP        -0.6187
     19 C2'         0.7477    0.1630    0.7858 C.3       1 GTP         0.0706
     20 O2'         0.1373   -0.0577    2.0407 O.3       1 GTP        -0.6294
     21 C1'         1.3733    1.5427    0.6747 C.3       1 GTP         0.3895
     22 N9          0.4520    2.5240    0.1767 N.pl3     1 GTP        -0.4733
     23 C8          0.5427    3.2356   -0.9425 C.ar      1 GTP         0.2958
     24 N7         -0.4919    4.0590   -1.1018 N.pl3     1 GTP        -0.4933
     25 C5         -1.2850    3.8484   -0.0069 C.ar      1 GTP        -0.1494
     26 C6         -2.5644    4.4707    0.3650 C.ar      1 GTP         0.7954
     27 O6         -3.0718    5.3200   -0.3599 O.2       1 GTP        -0.5729
     28 N1         -3.1239    4.0269    1.5647 N.2       1 GTP        -0.7443
     29 C2         -2.5133    3.1079    2.2858 C.ar      1 GTP         0.8831
     30 N2         -3.0239    2.6409    3.4697 N.pl3     1 GTP        -0.9204
     31 N3         -1.3076    2.5223    1.9320 N.pl3     1 GTP        -0.7173
     32 C4         -0.7246    2.9211    0.7753 C.ar      1 GTP         0.2626
     33 HOG3        6.4204   -0.4017   -8.0985 H         1 GTP         0.4102
     34 H5'         2.8432    0.3119   -2.6398 H         1 GTP         0.0289
     35 H5''        1.2128   -0.0927   -2.0428 H         1 GTP         0.0289
     36 H4'         3.8044   -0.1397   -0.4040 H         1 GTP         0.2056
     37 H3'         1.6764   -1.7639    0.2728 H         1 GTP         0.1140
     38 HO3'        2.2232   -1.2979    2.3953 H         1 GTP         0.4287
     39 H2'        -0.0011    0.0027    0.0003 H         1 GTP         0.0809
     40 HO2'       -0.1563   -0.9855    2.0596 H         1 GTP         0.4385
     41 H1'         1.7826    1.9024    1.6451 H         1 GTP         0.0794
     42 H8          1.3539    3.1622   -1.6455 H         1 GTP         0.3821
     43 HN21       -3.8871    3.0143    3.7893 H         1 GTP         0.4411
     44 HN22       -2.5108    1.9472    3.9621 H         1 GTP         0.4411
     45 H45        -0.8530    1.8168    2.4986 H         1 GTP         0.4819
     46 H46        -0.6466    4.6966   -1.8702 H         1 GTP         0.5182
@<TRIPOS>BOND
     1    1    2 2
     2    1    3 1
     3    1    4 1
     4    1    5 1
     5    4   33 1
     6    5    6 1
     7    6    7 2
     8    6    8 1
     9    6    9 1
    10    9   10 1
    11   10   11 2
    12   10   12 1
    13   10   13 1
    14   13   14 1
    15   14   15 1
    16   14   34 1
    17   14   35 1
    18   15   16 1
    19   15   17 1
    20   15   36 1
    21   16   21 1
    22   17   18 1
    23   17   19 1
    24   17   37 1
    25   18   38 1
    26   19   20 1
    27   19   21 1
    28   19   39 1
    29   20   40 1
    30   21   22 1
    31   21   41 1
    32   22   23 ar
    33   22   32 ar
    34   23   24 ar
    35   23   42 1
    36   24   25 ar
    37   24   46 1
    38   25   26 ar
    39   25   32 ar
    40   26   27 2
    41   26   28 ar
    42   28   29 ar
    43   29   30 1
    44   29   31 ar
    45   30   43 1
    46   30   44 1
    47   31   32 ar
    48   31   45 1
@<TRIPOS>SUBSTRUCTURE
     1 GTP         1 GROUP 0 A     ****
@<TRIPOS>MOLECULE
[[[5-(2-amino-6-oxo-7,8-dihydro-3~{H}-purin-8-ylium-9-yl)-3,4-dihydroxy-tetrahydrofuran-2-yl]methoxy-oxido-phosphoryl]oxy-oxido-phosphoryl] hydrogen phosphate
   46    48     1     0     0
SMALL
USER_CHARGES

@<TRIPOS>ATOM
      1 PG          1.8324    1.1128   -6.4893 P.3       1 GTP         1.5447
      2 O1G         0.4871    0.9022   -5.8311 O.co2     1 GTP        -0.8705
      3 O2G         2.7971    2.1557   -5.9701 O.co2     1 GTP        -0.8705
      4 O3G         1.5947    1.3744   -8.0834 O.3       1 GTP        -0.7914
      5 O3B         2.6060   -0.3210   -6.5874 O.3       1 GTP        -0.8116
      6 PB          3.1956   -1.2747   -5.4007 P.3       1 GTP         1.6738
      7 O1B         3.6974   -2.5615   -6.0170 O.co2     1 GTP        -0.8763
      8 O2B         4.0665   -0.4426   -4.4860 O.co2     1 GTP        -0.8763
      9 O3A         1.8113   -1.5642   -4.5853 O.3       1 GTP        -0.8005
     10 PA          1.5544   -2.4558   -3.2404 P.3       1 GTP         1.5754
     11 O1A         0.1056   -2.3088   -2.8286 O.co2     1 GTP        -0.8771
     12 O2A         2.1769   -3.8208   -3.4380 O.co2     1 GTP        -0.8771
     13 O5'         2.5245   -1.6648   -2.1878 O.3       1 GTP        -0.5809
     14 C5'         2.2816   -0.2918   -1.9206 C.3       1 GTP         0.1986
     15 C4'         2.7248    0.0226   -0.4980 C.3       1 GTP         0.0418
     16 O4'         2.4697    1.4219   -0.2462 O.3       1 GTP        -0.3505
     17 C3'         1.9404   -0.7419    0.5596 C.3       1 GTP         0.0909
     18 O3'         2.7418   -0.8086    1.7389 O.3       1 GTP        -0.6187
     19 C2'         0.7477    0.1630    0.7858 C.3       1 GTP         0.0706
     20 O2'         0.1373   -0.0577    2.0407 O.3       1 GTP        -0.6294
     21 C1'         1.3733    1.5427    0.6747 C.3       1 GTP         0.3895
     22 N9          0.4520    2.5240    0.1767 N.pl3     1 GTP        -0.4733
     23 C8          0.2012    2.8401   -1.0899 C.ar      1 GTP         0.2958
     24 N7         -0.7168    3.7990   -1.1981 N.pl3     1 GTP        -0.4933
     25 C5         -1.0645    4.1043    0.0896 C.ar      1 GTP        -0.1494
     26 C6         -2.0336    5.0870    0.5973 C.ar      1 GTP         0.7954
     27 O6         -2.6730    5.7839   -0.1834 O.2       1 GTP        -0.5729
     28 N1         -2.1539    5.1517    1.9868 N.2       1 GTP        -0.7443
     29 C2         -1.4288    4.3650    2.7566 C.ar      1 GTP         0.8831
     30 N2         -1.5126    4.3922    4.1250 N.pl3     1 GTP        -0.9204
     31 N3         -0.5167    3.4388    2.2748 N.pl3     1 GTP        -0.7173
     32 C4         -0.3638    3.3392    0.9318 C.ar      1 GTP         0.2626
     33 HOG3        2.3781    1.5296   -8.6530 H         1 GTP         0.4102
     34 H5'         2.8432    0.3119   -2.6398 H         1 GTP         0.0289
     35 H5''        1.2128   -0.0927   -2.0428 H         1 GTP         0.0289
     36 H4'         3.8044   -0.1397   -0.4040 H         1 GTP         0.2056
     37 H3'         1.6764   -1.7639    0.2728 H         1 GTP         0.1140
     38 HO3'        2.2232   -1.2979    2.3953 H         1 GTP         0.4287
     39 H2'        -0.0011    0.0027    0.0003 H         1 GTP         0.0809
     40 HO2'       -0.1563   -0.9855    2.0596 H         1 GTP         0.4385
     41 H1'         1.7826    1.9024    1.6451 H         1 GTP         0.0794
     42 H8          0.6787    2.3803   -1.9373 H         1 GTP         0.3821
     43 HN21       -2.1462    5.0320    4.5446 H         1 GTP         0.4411
     44 HN22       -0.9365    3.7712    4.6440 H         1 GTP         0.4411
     45 H45         0.0318    2.8419    2.8816 H         1 GTP         0.4819
     46 H46        -1.0718    4.2049   -2.0526 H         1 GTP         0.5182
@<TRIPOS>BOND
     1    1    2 2
     2    1    3 1
     3    1    4 1
     4    1    5 1
     5    4   33 1
     6    5    6 1
     7    6    7 2
     8    6    8 1
     9    6    9 1
    10    9   10 1
    11   10   11 2
    12   10   12 1
    13   10   13 1
    14   13   14 1
    15   14   15 1
    16   14   34 1
    17   14   35 1
    18   15   16 1
    19   15   17 1
    20   15   36 1
    21   16   21 1
    22   17   18 1
    23   17   19 1
    24   17   37 1
    25   18   38 1
    26   19   20 1
    27   19   21 1
    28   19   39 1
    29   20   40 1
    30   21   22 1
    31   21   41 1
    32   22   23 ar
    33   22   32 ar
    34   23   24 ar
    35   23   42 1
    36   24   25 ar
    37   24   46 1
    38   25   26 ar
    39   25   32 ar
    40   26   27 2
    41   26   28 ar
    42   28   29 ar
    43   29   30 1
    44   29   31 ar
    45   30   43 1
    46   30   44 1
    47   31   32 ar
    48   31   45 1
@<TRIPOS>SUBSTRUCTURE
     1 GTP         1 GROUP 0 A     ****
@<TRIPOS>MOLECULE
[[[5-(2-amino-6-oxo-7,8-dihydro-3~{H}-purin-8-ylium-9-yl)-3,4-dihydroxy-tetrahydrofuran-2-yl]methoxy-oxido-phosphoryl]oxy-oxido-phosphoryl] hydrogen phosphate
   46    48     1     0     0
SMALL
USER_CHARGES

@<TRIPOS>ATOM
      1 PG          4.6799   -1.5335   -8.4247 P.3       1 GTP         1.5447
      2 O1G         5.5399   -0.3685   -8.8614 O.co2     1 GTP        -0.8705
      3 O2G         5.1888   -2.9545   -8.5215 O.co2     1 GTP        -0.8705
      4 O3G         3.2478   -1.4415   -9.2034 O.3       1 GTP        -0.7914
      5 O3B         4.1517   -1.2632   -6.9043 O.3       1 GTP        -0.8116
      6 PB          3.0816   -2.1054   -6.0036 P.3       1 GTP         1.6738
      7 O1B         1.7177   -2.0028   -6.6492 O.co2     1 GTP        -0.8763
      8 O2B         3.6872   -3.4430   -5.6408 O.co2     1 GTP        -0.8763
      9 O3A         3.1119   -1.1996   -4.6459 O.3       1 GTP        -0.8005
     10 PA          2.7407    0.3769   -4.4297 P.3       1 GTP         1.5754
     11 O1A         3.7274    1.2201   -5.2081 O.co2     1 GTP        -0.8771
     12 O2A         1.2486    0.5523   -4.6100 O.co2     1 GTP        -0.8771
     13 O5'         3.0213    0.5153   -2.8245 O.3       1 GTP        -0.5809
     14 C5'         2.2816   -0.2918   -1.9206 C.3       1 GTP         0.1986
     15 C4'         2.7248    0.0226   -0.4980 C.3       1 GTP         0.0418
     16 O4'         2.4697    1.4219   -0.2462 O.3       1 GTP        -0.3505
     17 C3'         1.9404   -0.7419    0.5596 C.3       1 GTP         0.0909
     18 O3'         2.7418   -0.8086    1.7389 O.3       1 GTP        -0.6187
     19 C2'         0.7477    0.1630    0.7858 C.3       1 GTP         0.0706
     20 O2'         0.1373   -0.0577    2.0407 O.3       1 GTP        -0.6294
     21 C1'         1.3733    1.5427    0.6747 C.3       1 GTP         0.3895
     22 N9          0.4520    2.5240    0.1767 N.pl3     1 GTP        -0.4733
     23 C8          0.5427    3.2356   -0.9425 C.ar      1 GTP         0.2958
     24 N7         -0.4919    4.0590   -1.1018 N.pl3     1 GTP        -0.4933
     25 C5         -1.2850    3.8484   -0.0069 C.ar      1 GTP        -0.1494
     26 C6         -2.5644    4.4707    0.3650 C.ar      1 GTP         0.7954
     27 O6         -3.0718    5.3200   -0.3599 O.2       1 GTP        -0.5729
     28 N1         -3.1239    4.0269    1.5647 N.2       1 GTP        -0.7443
     29 C2         -2.5133    3.1079    2.2858 C.ar      1 GTP         0.8831
     30 N2         -3.0239    2.6409    3.4697 N.pl3     1 GTP        -0.9204
     31 N3         -1.3076    2.5223    1.9320 N.pl3     1 GTP        -0.7173
     32 C4         -0.7246    2.9211    0.7753 C.ar      1 GTP         0.2626
     33 HOG3        2.5744   -2.1323   -9.0256 H         1 GTP         0.4102
     34 H5'         1.2163   -0.0770   -2.0471 H         1 GTP         0.0289
     35 H5''        2.4655   -1.3443   -2.1563 H         1 GTP         0.0289
     36 H4'         3.8044   -0.1397   -0.4040 H         1 GTP         0.2056
     37 H3'         1.6764   -1.7639    0.2728 H         1 GTP         0.1140
     38 HO3'        2.2232   -1.2979    2.3953 H         1 GTP         0.4287
     39 H2'        -0.0011    0.0027    0.0003 H         1 GTP         0.0809
     40 HO2'       -0.1563   -0.9855    2.0596 H         1 GTP         0.4385
     41 H1'         1.7826    1.9024    1.6451 H         1 GTP         0.0794
     42 H8          1.3539    3.1622   -1.6455 H         1 GTP         0.3821
     43 HN21       -3.8871    3.0143    3.7893 H         1 GTP         0.4411
     44 HN22       -2.5108    1.9472    3.9621 H         1 GTP         0.4411
     45 H45        -0.8530    1.8168    2.4986 H         1 GTP         0.4819
     46 H46        -0.6466    4.6966   -1.8702 H         1 GTP         0.5182
@<TRIPOS>BOND
     1    1    2 2
     2    1    3 1
     3    1    4 1
     4    1    5 1
     5    4   33 1
     6    5    6 1
     7    6    7 2
     8    6    8 1
     9    6    9 1
    10    9   10 1
    11   10   11 2
    12   10   12 1
    13   10   13 1
    14   13   14 1
    15   14   15 1
    16   14   34 1
    17   14   35 1
    18   15   16 1
    19   15   17 1
    20   15   36 1
    21   16   21 1
    22   17   18 1
    23   17   19 1
    24   17   37 1
    25   18   38 1
    26   19   20 1
    27   19   21 1
    28   19   39 1
    29   20   40 1
    30   21   22 1
    31   21   41 1
    32   22   23 ar
    33   22   32 ar
    34   23   24 ar
    35   23   42 1
    36   24   25 ar
    37   24   46 1
    38   25   26 ar
    39   25   32 ar
    40   26   27 2
    41   26   28 ar
    42   28   29 ar
    43   29   30 1
    44   29   31 ar
    45   30   43 1
    46   30   44 1
    47   31   32 ar
    48   31   45 1
@<TRIPOS>SUBSTRUCTURE
     1 GTP         1 GROUP 0 A     ****
@<TRIPOS>MOLECULE
[[[5-(2-amino-6-oxo-7,8-dihydro-3~{H}-purin-8-ylium-9-yl)-3,4-dihydroxy-tetrahydrofuran-2-yl]methoxy-oxido-phosphoryl]oxy-oxido-phosphoryl] hydrogen phosphate
   46    48     1     0     0
SMALL
USER_CHARGES

@<TRIPOS>ATOM
      1 PG         -0.8176    0.7972   -5.8873 P.3       1 GTP         1.5447
      2 O1G        -1.8220    1.0017   -6.9995 O.co2     1 GTP        -0.8705
      3 O2G        -0.6141   -0.5662   -5.2648 O.co2     1 GTP        -0.8705
      4 O3G        -1.1366    1.8683   -4.6970 O.3       1 GTP        -0.7914
      5 O3B         0.6295    1.3823   -6.3642 O.3       1 GTP        -0.8116
      6 PB          2.0155    1.5603   -5.5198 P.3       1 GTP         1.6738
      7 O1B         3.1034    2.0192   -6.4649 O.co2     1 GTP        -0.8763
      8 O2B         1.7186    2.3008   -4.2349 O.co2     1 GTP        -0.8763
      9 O3A         2.2729    0.0019   -5.1075 O.3       1 GTP        -0.8005
     10 PA          3.4844   -0.6652   -4.2374 P.3       1 GTP         1.5754
     11 O1A         3.1940   -2.1385   -4.0491 O.co2     1 GTP        -0.8771
     12 O2A         4.8053   -0.1947   -4.8061 O.co2     1 GTP        -0.8771
     13 O5'         3.2903    0.1346   -2.8241 O.3       1 GTP        -0.5809
     14 C5'         2.2816   -0.2918   -1.9206 C.3       1 GTP         0.1986
     15 C4'         2.7248    0.0226   -0.4980 C.3       1 GTP         0.0418
     16 O4'         2.4697    1.4219   -0.2462 O.3       1 GTP        -0.3505
     17 C3'         1.9404   -0.7419    0.5596 C.3       1 GTP         0.0909
     18 O3'         2.7418   -0.8086    1.7389 O.3       1 GTP        -0.6187
     19 C2'         0.7477    0.1630    0.7858 C.3       1 GTP         0.0706
     20 O2'         0.1373   -0.0577    2.0407 O.3       1 GTP        -0.6294
     21 C1'         1.3733    1.5427    0.6747 C.3       1 GTP         0.3895
     22 N9          0.4520    2.5240    0.1767 N.pl3     1 GTP        -0.4733
     23 C8          0.2012    2.8401   -1.0899 C.ar      1 GTP         0.2958
     24 N7         -0.7168    3.7990   -1.1981 N.pl3     1 GTP        -0.4933
     25 C5         -1.0645    4.1043    0.0896 C.ar      1 GTP        -0.1494
     26 C6         -2.0336    5.0870    0.5973 C.ar      1 GTP         0.7954
     27 O6         -2.6730    5.7839   -0.1834 O.2       1 GTP        -0.5729
     28 N1         -2.1539    5.1517    1.9868 N.2       1 GTP        -0.7443
     29 C2         -1.4288    4.3650    2.7566 C.ar      1 GTP         0.8831
     30 N2         -1.5126    4.3922    4.1250 N.pl3     1 GTP        -0.9204
     31 N3         -0.5167    3.4388    2.2748 N.pl3     1 GTP        -0.7173
     32 C4         -0.3638    3.3392    0.9318 C.ar      1 GTP         0.2626
     33 HOG3       -0.5671    1.8619   -3.8982 H         1 GTP         0.4102
     34 H5'         1.3514    0.2330   -2.1577 H         1 GTP         0.0289
     35 H5''        2.1280   -1.3678   -2.0460 H         1 GTP         0.0289
     36 H4'         3.8044   -0.1397   -0.4040 H         1 GTP         0.2056
     37 H3'         1.6764   -1.7639    0.2728 H         1 GTP         0.1140
     38 HO3'        2.2232   -1.2979    2.3953 H         1 GTP         0.4287
     39 H2'        -0.0011    0.0027    0.0003 H         1 GTP         0.0809
     40 HO2'       -0.6141    0.5574    2.1082 H         1 GTP         0.4385
     41 H1'         1.7826    1.9024    1.6451 H         1 GTP         0.0794
     42 H8          0.6787    2.3803   -1.9373 H         1 GTP         0.3821
     43 HN21       -2.1462    5.0320    4.5446 H         1 GTP         0.4411
     44 HN22       -0.9365    3.7712    4.6440 H         1 GTP         0.4411
     45 H45         0.0318    2.8419    2.8816 H         1 GTP         0.4819
     46 H46        -1.0718    4.2049   -2.0526 H         1 GTP         0.5182
@<TRIPOS>BOND
     1    1    2 2
     2    1    3 1
     3    1    4 1
     4    1    5 1
     5    4   33 1
     6    5    6 1
     7    6    7 2
     8    6    8 1
     9    6    9 1
    10    9   10 1
    11   10   11 2
    12   10   12 1
    13   10   13 1
    14   13   14 1
    15   14   15 1
    16   14   34 1
    17   14   35 1
    18   15   16 1
    19   15   17 1
    20   15   36 1
    21   16   21 1
    22   17   18 1
    23   17   19 1
    24   17   37 1
    25   18   38 1
    26   19   20 1
    27   19   21 1
    28   19   39 1
    29   20   40 1
    30   21   22 1
    31   21   41 1
    32   22   23 ar
    33   22   32 ar
    34   23   24 ar
    35   23   42 1
    36   24   25 ar
    37   24   46 1
    38   25   26 ar
    39   25   32 ar
    40   26   27 2
    41   26   28 ar
    42   28   29 ar
    43   29   30 1
    44   29   31 ar
    45   30   43 1
    46   30   44 1
    47   31   32 ar
    48   31   45 1
@<TRIPOS>SUBSTRUCTURE
     1 GTP         1 GROUP 0 A     ****
@<TRIPOS>MOLECULE
[[[5-(2-amino-6-oxo-7,8-dihydro-3~{H}-purin-8-ylium-9-yl)-3,4-dihydroxy-tetrahydrofuran-2-yl]methoxy-oxido-phosphoryl]oxy-oxido-phosphoryl] hydrogen phosphate
   46    48     1     0     0
SMALL
USER_CHARGES

@<TRIPOS>ATOM
      1 PG          1.8727    1.1219   -6.4756 P.3       1 GTP         1.5447
      2 O1G         2.2109    1.3257   -5.0157 O.co2     1 GTP        -0.8705
      3 O2G         2.6073    1.8823   -7.5572 O.co2     1 GTP        -0.8705
      4 O3G         0.2692    1.3573   -6.6743 O.3       1 GTP        -0.7914
      5 O3B         1.9319   -0.4730   -6.8170 O.3       1 GTP        -0.8116
      6 PB          1.1870   -1.7278   -6.0847 P.3       1 GTP         1.6738
      7 O1B        -0.2998   -1.4531   -6.0457 O.co2     1 GTP        -0.8763
      8 O2B         1.7388   -3.0217   -6.6406 O.co2     1 GTP        -0.8763
      9 O3A         1.8113   -1.5642   -4.5853 O.3       1 GTP        -0.8005
     10 PA          1.5544   -2.4558   -3.2404 P.3       1 GTP         1.5754
     11 O1A         0.1056   -2.3088   -2.8286 O.co2     1 GTP        -0.8771
     12 O2A         2.1769   -3.8208   -3.4380 O.co2     1 GTP        -0.8771
     13 O5'         2.5245   -1.6648   -2.1878 O.3       1 GTP        -0.5809
     14 C5'         2.2816   -0.2918   -1.9206 C.3       1 GTP         0.1986
     15 C4'         2.7248    0.0226   -0.4980 C.3       1 GTP         0.0418
     16 O4'         2.4697    1.4219   -0.2462 O.3       1 GTP        -0.3505
     17 C3'         1.9404   -0.7419    0.5596 C.3       1 GTP         0.0909
     18 O3'         2.7418   -0.8086    1.7389 O.3       1 GTP        -0.6187
     19 C2'         0.7477    0.1630    0.7858 C.3       1 GTP         0.0706
     20 O2'         0.1373   -0.0577    2.0407 O.3       1 GTP        -0.6294
     21 C1'         1.3733    1.5427    0.6747 C.3       1 GTP         0.3895
     22 N9          0.4520    2.5240    0.1767 N.pl3     1 GTP        -0.4733
     23 C8         -0.2136    2.5096   -0.9739 C.ar      1 GTP         0.2958
     24 N7         -0.9896    3.5820   -1.1212 N.pl3     1 GTP        -0.4933
     25 C5         -0.7962    4.3186    0.0156 C.ar      1 GTP        -0.1494
     26 C6         -1.3875    5.6031    0.4192 C.ar      1 GTP         0.7954
     27 O6         -2.1869    6.1731   -0.3158 O.2       1 GTP        -0.5729
     28 N1         -0.9745    6.0930    1.6597 N.2       1 GTP        -0.7443
     29 C2         -0.1105    5.4166    2.3900 C.ar      1 GTP         0.8831
     30 N2          0.3241    5.8571    3.6138 N.pl3     1 GTP        -0.9204
     31 N3          0.4444    4.2053    2.0072 N.pl3     1 GTP        -0.7173
     32 C4          0.0746    3.6889    0.8098 C.ar      1 GTP         0.2626
     33 HOG3       -0.1089    1.2603   -7.5743 H         1 GTP         0.4102
     34 H5'         2.8432    0.3119   -2.6398 H         1 GTP         0.0289
     35 H5''        1.2128   -0.0927   -2.0428 H         1 GTP         0.0289
     36 H4'         3.8044   -0.1397   -0.4040 H         1 GTP         0.2056
     37 H3'         1.6764   -1.7639    0.2728 H         1 GTP         0.1140
     38 HO3'        2.2232   -1.2979    2.3953 H         1 GTP         0.4287
     39 H2'        -0.0011    0.0027    0.0003 H         1 GTP         0.0809
     40 HO2'       -0.1563   -0.9855    2.0596 H         1 GTP         0.4385
     41 H1'         1.7826    1.9024    1.6451 H         1 GTP         0.0794
     42 H8         -0.1415    1.7265   -1.7082 H         1 GTP         0.3821
     43 HN21       -0.0303    6.7197    3.9559 H         1 GTP         0.4411
     44 HN22        0.9765    5.2967    4.1108 H         1 GTP         0.4411
     45 H45         1.1068    3.6990    2.5819 H         1 GTP         0.4819
     46 H46        -1.5877    3.7943   -1.9074 H         1 GTP         0.5182
@<TRIPOS>BOND
     1    1    2 2
     2    1    3 1
     3    1    4 1
     4    1    5 1
     5    4   33 1
     6    5    6 1
     7    6    7 2
     8    6    8 1
     9    6    9 1
    10    9   10 1
    11   10   11 2
    12   10   12 1
    13   10   13 1
    14   13   14 1
    15   14   15 1
    16   14   34 1
    17   14   35 1
    18   15   16 1
    19   15   17 1
    20   15   36 1
    21   16   21 1
    22   17   18 1
    23   17   19 1
    24   17   37 1
    25   18   38 1
    26   19   20 1
    27   19   21 1
    28   19   39 1
    29   20   40 1
    30   21   22 1
    31   21   41 1
    32   22   23 ar
    33   22   32 ar
    34   23   24 ar
    35   23   42 1
    36   24   25 ar
    37   24   46 1
    38   25   26 ar
    39   25   32 ar
    40   26   27 2
    41   26   28 ar
    42   28   29 ar
    43   29   30 1
    44   29   31 ar
    45   30   43 1
    46   30   44 1
    47   31   32 ar
    48   31   45 1
@<TRIPOS>SUBSTRUCTURE
     1 GTP         1 GROUP 0 A     ****
@<TRIPOS>MOLECULE
[[[5-(2-amino-6-oxo-7,8-dihydro-3~{H}-purin-8-ylium-9-yl)-3,4-dihydroxy-tetrahydrofuran-2-yl]methoxy-oxido-phosphoryl]oxy-oxido-phosphoryl] hydrogen phosphate
   46    48     1     0     0
SMALL
USER_CHARGES

@<TRIPOS>ATOM
      1 PG          1.5182   -4.1314   -7.7748 P.3       1 GTP         1.5447
      2 O1G         0.0570   -4.5016   -7.8983 O.co2     1 GTP        -0.8705
      3 O2G         2.2538   -3.4766   -8.9227 O.co2     1 GTP        -0.8705
      4 O3G         2.3520   -5.4574   -7.3138 O.3       1 GTP        -0.7914
      5 O3B         1.7259   -3.2297   -6.4304 O.3       1 GTP        -0.8116
      6 PB          1.1870   -1.7278   -6.0847 P.3       1 GTP         1.6738
      7 O1B         1.8556   -0.7455   -7.0204 O.co2     1 GTP        -0.8763
      8 O2B        -0.3161   -1.7684   -5.9217 O.co2     1 GTP        -0.8763
      9 O3A         1.8113   -1.5642   -4.5853 O.3       1 GTP        -0.8005
     10 PA          1.5544   -2.4558   -3.2404 P.3       1 GTP         1.5754
     11 O1A         0.1056   -2.3088   -2.8286 O.co2     1 GTP        -0.8771
     12 O2A         2.1769   -3.8208   -3.4380 O.co2     1 GTP        -0.8771
     13 O5'         2.5245   -1.6648   -2.1878 O.3       1 GTP        -0.5809
     14 C5'         2.2816   -0.2918   -1.9206 C.3       1 GTP         0.1986
     15 C4'         2.7248    0.0226   -0.4980 C.3       1 GTP         0.0418
     16 O4'         2.4697    1.4219   -0.2462 O.3       1 GTP        -0.3505
     17 C3'         1.9404   -0.7419    0.5596 C.3       1 GTP         0.0909
     18 O3'         2.7418   -0.8086    1.7389 O.3       1 GTP        -0.6187
     19 C2'         0.7477    0.1630    0.7858 C.3       1 GTP         0.0706
     20 O2'         0.1373   -0.0577    2.0407 O.3       1 GTP        -0.6294
     21 C1'         1.3733    1.5427    0.6747 C.3       1 GTP         0.3895
     22 N9          0.4520    2.5240    0.1767 N.pl3     1 GTP        -0.4733
     23 C8          0.5427    3.2356   -0.9425 C.ar      1 GTP         0.2958
     24 N7         -0.4919    4.0590   -1.1018 N.pl3     1 GTP        -0.4933
     25 C5         -1.2850    3.8484   -0.0069 C.ar      1 GTP        -0.1494
     26 C6         -2.5644    4.4707    0.3650 C.ar      1 GTP         0.7954
     27 O6         -3.0718    5.3200   -0.3599 O.2       1 GTP        -0.5729
     28 N1         -3.1239    4.0269    1.5647 N.2       1 GTP        -0.7443
     29 C2         -2.5133    3.1079    2.2858 C.ar      1 GTP         0.8831
     30 N2         -3.0239    2.6409    3.4697 N.pl3     1 GTP        -0.9204
     31 N3         -1.3076    2.5223    1.9320 N.pl3     1 GTP        -0.7173
     32 C4         -0.7246    2.9211    0.7753 C.ar      1 GTP         0.2626
     33 HOG3        3.3219   -5.3791   -7.1892 H         1 GTP         0.4102
     34 H5'         2.8432    0.3119   -2.6398 H         1 GTP         0.0289
     35 H5''        1.2128   -0.0927   -2.0428 H         1 GTP         0.0289
     36 H4'         3.8044   -0.1397   -0.4040 H         1 GTP         0.2056
     37 H3'         1.6764   -1.7639    0.2728 H         1 GTP         0.1140
     38 HO3'        2.2232   -1.2979    2.3953 H         1 GTP         0.4287
     39 H2'        -0.0011    0.0027    0.0003 H         1 GTP         0.0809
     40 HO2'       -0.1563   -0.9855    2.0596 H         1 GTP         0.4385
     41 H1'         1.7826    1.9024    1.6451 H         1 GTP         0.0794
     42 H8          1.3539    3.1622   -1.6455 H         1 GTP         0.3821
     43 HN21       -3.8871    3.0143    3.7893 H         1 GTP         0.4411
     44 HN22       -2.5108    1.9472    3.9621 H         1 GTP         0.4411
     45 H45        -0.8530    1.8168    2.4986 H         1 GTP         0.4819
     46 H46        -0.6466    4.6966   -1.8702 H         1 GTP         0.5182
@<TRIPOS>BOND
     1    1    2 2
     2    1    3 1
     3    1    4 1
     4    1    5 1
     5    4   33 1
     6    5    6 1
     7    6    7 2
     8    6    8 1
     9    6    9 1
    10    9   10 1
    11   10   11 2
    12   10   12 1
    13   10   13 1
    14   13   14 1
    15   14   15 1
    16   14   34 1
    17   14   35 1
    18   15   16 1
    19   15   17 1
    20   15   36 1
    21   16   21 1
    22   17   18 1
    23   17   19 1
    24   17   37 1
    25   18   38 1
    26   19   20 1
    27   19   21 1
    28   19   39 1
    29   20   40 1
    30   21   22 1
    31   21   41 1
    32   22   23 ar
    33   22   32 ar
    34   23   24 ar
    35   23   42 1
    36   24   25 ar
    37   24   46 1
    38   25   26 ar
    39   25   32 ar
    40   26   27 2
    41   26   28 ar
    42   28   29 ar
    43   29   30 1
    44   29   31 ar
    45   30   43 1
    46   30   44 1
    47   31   32 ar
    48   31   45 1
@<TRIPOS>SUBSTRUCTURE
     1 GTP         1 GROUP 0 A     ****
@<TRIPOS>MOLECULE
[[[5-(2-amino-6-oxo-7,8-dihydro-3~{H}-purin-8-ylium-9-yl)-3,4-dihydroxy-tetrahydrofuran-2-yl]methoxy-oxido-phosphoryl]oxy-oxido-phosphoryl] hydrogen phosphate
   46    48     1     0     0
SMALL
USER_CHARGES

@<TRIPOS>ATOM
      1 PG          6.6436   -0.9497   -7.6249 P.3       1 GTP         1.5447
      2 O1G         6.0107   -1.7125   -8.7673 O.co2     1 GTP        -0.8705
      3 O2G         7.2909    0.3979   -7.8542 O.co2     1 GTP        -0.8705
      4 O3G         7.7246   -1.9251   -6.8859 O.3       1 GTP        -0.7914
      5 O3B         5.5611   -0.8168   -6.4107 O.3       1 GTP        -0.8116
      6 PB          4.6951   -1.9732   -5.6502 P.3       1 GTP         1.6738
      7 O1B         3.7265   -2.5827   -6.6391 O.co2     1 GTP        -0.8763
      8 O2B         5.6316   -2.8304   -4.8282 O.co2     1 GTP        -0.8763
      9 O3A         3.8774   -1.0356   -4.5933 O.3       1 GTP        -0.8005
     10 PA          4.4374   -0.0466   -3.4193 P.3       1 GTP         1.5754
     11 O1A         5.1480   -0.8824   -2.3769 O.co2     1 GTP        -0.8771
     12 O2A         5.1179    1.1389   -4.0684 O.co2     1 GTP        -0.8771
     13 O5'         3.0213    0.5153   -2.8245 O.3       1 GTP        -0.5809
     14 C5'         2.2816   -0.2918   -1.9206 C.3       1 GTP         0.1986
     15 C4'         2.7248    0.0226   -0.4980 C.3       1 GTP         0.0418
     16 O4'         2.4697    1.4219   -0.2462 O.3       1 GTP        -0.3505
     17 C3'         1.9404   -0.7419    0.5596 C.3       1 GTP         0.0909
     18 O3'         2.7418   -0.8086    1.7389 O.3       1 GTP        -0.6187
     19 C2'         0.7477    0.1630    0.7858 C.3       1 GTP         0.0706
     20 O2'         0.1373   -0.0577    2.0407 O.3       1 GTP        -0.6294
     21 C1'         1.3733    1.5427    0.6747 C.3       1 GTP         0.3895
     22 N9          0.4520    2.5240    0.1767 N.pl3     1 GTP        -0.4733
     23 C8          0.2012    2.8401   -1.0899 C.ar      1 GTP         0.2958
     24 N7         -0.7168    3.7990   -1.1981 N.pl3     1 GTP        -0.4933
     25 C5         -1.0645    4.1043    0.0896 C.ar      1 GTP        -0.1494
     26 C6         -2.0336    5.0870    0.5973 C.ar      1 GTP         0.7954
     27 O6         -2.6730    5.7839   -0.1834 O.2       1 GTP        -0.5729
     28 N1         -2.1539    5.1517    1.9868 N.2       1 GTP        -0.7443
     29 C2         -1.4288    4.3650    2.7566 C.ar      1 GTP         0.8831
     30 N2         -1.5126    4.3922    4.1250 N.pl3     1 GTP        -0.9204
     31 N3         -0.5167    3.4388    2.2748 N.pl3     1 GTP        -0.7173
     32 C4         -0.3638    3.3392    0.9318 C.ar      1 GTP         0.2626
     33 HOG3        8.2231   -1.5725   -6.1181 H         1 GTP         0.4102
     34 H5'         1.2163   -0.0770   -2.0471 H         1 GTP         0.0289
     35 H5''        2.4655   -1.3443   -2.1563 H         1 GTP         0.0289
     36 H4'         3.8044   -0.1397   -0.4040 H         1 GTP         0.2056
     37 H3'         1.6764   -1.7639    0.2728 H         1 GTP         0.1140
     38 HO3'        2.2232   -1.2979    2.3953 H         1 GTP         0.4287
     39 H2'        -0.0011    0.0027    0.0003 H         1 GTP         0.0809
     40 HO2'       -0.1563   -0.9855    2.0596 H         1 GTP         0.4385
     41 H1'         1.7826    1.9024    1.6451 H         1 GTP         0.0794
     42 H8          0.6787    2.3803   -1.9373 H         1 GTP         0.3821
     43 HN21       -2.1462    5.0320    4.5446 H         1 GTP         0.4411
     44 HN22       -0.9365    3.7712    4.6440 H         1 GTP         0.4411
     45 H45         0.0318    2.8419    2.8816 H         1 GTP         0.4819
     46 H46        -1.0718    4.2049   -2.0526 H         1 GTP         0.5182
@<TRIPOS>BOND
     1    1    2 2
     2    1    3 1
     3    1    4 1
     4    1    5 1
     5    4   33 1
     6    5    6 1
     7    6    7 2
     8    6    8 1
     9    6    9 1
    10    9   10 1
    11   10   11 2
    12   10   12 1
    13   10   13 1
    14   13   14 1
    15   14   15 1
    16   14   34 1
    17   14   35 1
    18   15   16 1
    19   15   17 1
    20   15   36 1
    21   16   21 1
    22   17   18 1
    23   17   19 1
    24   17   37 1
    25   18   38 1
    26   19   20 1
    27   19   21 1
    28   19   39 1
    29   20   40 1
    30   21   22 1
    31   21   41 1
    32   22   23 ar
    33   22   32 ar
    34   23   24 ar
    35   23   42 1
    36   24   25 ar
    37   24   46 1
    38   25   26 ar
    39   25   32 ar
    40   26   27 2
    41   26   28 ar
    42   28   29 ar
    43   29   30 1
    44   29   31 ar
    45   30   43 1
    46   30   44 1
    47   31   32 ar
    48   31   45 1
@<TRIPOS>SUBSTRUCTURE
     1 GTP         1 GROUP 0 A     ****
@<TRIPOS>MOLECULE
[[[5-(2-amino-6-oxo-7,8-dihydro-3~{H}-purin-8-ylium-9-yl)-3,4-dihydroxy-tetrahydrofuran-2-yl]methoxy-oxido-phosphoryl]oxy-oxido-phosphoryl] hydrogen phosphate
   46    48     1     0     0
SMALL
USER_CHARGES

@<TRIPOS>ATOM
      1 PG          0.8790    4.1893   -6.7468 P.3       1 GTP         1.5447
      2 O1G        -0.5563    4.6461   -6.6102 O.co2     1 GTP        -0.8705
      3 O2G         2.0241    5.1622   -6.5736 O.co2     1 GTP        -0.8705
      4 O3G         1.0497    3.4389   -8.1869 O.3       1 GTP        -0.7914
      5 O3B         1.1232    2.9054   -5.7692 O.3       1 GTP        -0.8116
      6 PB          0.2960    1.5021   -5.6594 P.3       1 GTP         1.6738
      7 O1B        -1.0996    1.8000   -5.1582 O.co2     1 GTP        -0.8763
      8 O2B         0.5303    0.6918   -6.9148 O.co2     1 GTP        -0.8763
      9 O3A         1.1584    0.7817   -4.4753 O.3       1 GTP        -0.8005
     10 PA          2.7407    0.3769   -4.4297 P.3       1 GTP         1.5754
     11 O1A         2.8866   -1.0655   -4.8640 O.co2     1 GTP        -0.8771
     12 O2A         3.5415    1.4776   -5.0906 O.co2     1 GTP        -0.8771
     13 O5'         3.0213    0.5153   -2.8245 O.3       1 GTP        -0.5809
     14 C5'         2.2816   -0.2918   -1.9206 C.3       1 GTP         0.1986
     15 C4'         2.7248    0.0226   -0.4980 C.3       1 GTP         0.0418
     16 O4'         2.4697    1.4219   -0.2462 O.3       1 GTP        -0.3505
     17 C3'         1.9404   -0.7419    0.5596 C.3       1 GTP         0.0909
     18 O3'         2.7418   -0.8086    1.7389 O.3       1 GTP        -0.6187
     19 C2'         0.7477    0.1630    0.7858 C.3       1 GTP         0.0706
     20 O2'         0.1373   -0.0577    2.0407 O.3       1 GTP        -0.6294
     21 C1'         1.3733    1.5427    0.6747 C.3       1 GTP         0.3895
     22 N9          0.4520    2.5240    0.1767 N.pl3     1 GTP        -0.4733
     23 C8         -0.2136    2.5096   -0.9739 C.ar      1 GTP         0.2958
     24 N7         -0.9896    3.5820   -1.1212 N.pl3     1 GTP        -0.4933
     25 C5         -0.7962    4.3186    0.0156 C.ar      1 GTP        -0.1494
     26 C6         -1.3875    5.6031    0.4192 C.ar      1 GTP         0.7954
     27 O6         -2.1869    6.1731   -0.3158 O.2       1 GTP        -0.5729
     28 N1         -0.9745    6.0930    1.6597 N.2       1 GTP        -0.7443
     29 C2         -0.1105    5.4166    2.3900 C.ar      1 GTP         0.8831
     30 N2          0.3241    5.8571    3.6138 N.pl3     1 GTP        -0.9204
     31 N3          0.4444    4.2053    2.0072 N.pl3     1 GTP        -0.7173
     32 C4          0.0746    3.6889    0.8098 C.ar      1 GTP         0.2626
     33 HOG3        1.9317    3.0824   -8.4259 H         1 GTP         0.4102
     34 H5'         1.2163   -0.0770   -2.0471 H         1 GTP         0.0289
     35 H5''        2.4655   -1.3443   -2.1563 H         1 GTP         0.0289
     36 H4'         3.8044   -0.1397   -0.4040 H         1 GTP         0.2056
     37 H3'         1.6764   -1.7639    0.2728 H         1 GTP         0.1140
     38 HO3'        2.2232   -1.2979    2.3953 H         1 GTP         0.4287
     39 H2'        -0.0011    0.0027    0.0003 H         1 GTP         0.0809
     40 HO2'       -0.1563   -0.9855    2.0596 H         1 GTP         0.4385
     41 H1'         1.7826    1.9024    1.6451 H         1 GTP         0.0794
     42 H8         -0.1415    1.7265   -1.7082 H         1 GTP         0.3821
     43 HN21       -0.0303    6.7197    3.9559 H         1 GTP         0.4411
     44 HN22        0.9765    5.2967    4.1108 H         1 GTP         0.4411
     45 H45         1.1068    3.6990    2.5819 H         1 GTP         0.4819
     46 H46        -1.5877    3.7943   -1.9074 H         1 GTP         0.5182
@<TRIPOS>BOND
     1    1    2 2
     2    1    3 1
     3    1    4 1
     4    1    5 1
     5    4   33 1
     6    5    6 1
     7    6    7 2
     8    6    8 1
     9    6    9 1
    10    9   10 1
    11   10   11 2
    12   10   12 1
    13   10   13 1
    14   13   14 1
    15   14   15 1
    16   14   34 1
    17   14   35 1
    18   15   16 1
    19   15   17 1
    20   15   36 1
    21   16   21 1
    22   17   18 1
    23   17   19 1
    24   17   37 1
    25   18   38 1
    26   19   20 1
    27   19   21 1
    28   19   39 1
    29   20   40 1
    30   21   22 1
    31   21   41 1
    32   22   23 ar
    33   22   32 ar
    34   23   24 ar
    35   23   42 1
    36   24   25 ar
    37   24   46 1
    38   25   26 ar
    39   25   32 ar
    40   26   27 2
    41   26   28 ar
    42   28   29 ar
    43   29   30 1
    44   29   31 ar
    45   30   43 1
    46   30   44 1
    47   31   32 ar
    48   31   45 1
@<TRIPOS>SUBSTRUCTURE
     1 GTP         1 GROUP 0 A     ****
@<TRIPOS>MOLECULE
[[[5-(2-amino-6-oxo-7,8-dihydro-3~{H}-purin-8-ylium-9-yl)-3,4-dihydroxy-tetrahydrofuran-2-yl]methoxy-oxido-phosphoryl]oxy-oxido-phosphoryl] hydrogen phosphate
   46    48     1     0     0
SMALL
USER_CHARGES

@<TRIPOS>ATOM
      1 PG         -0.8473    0.4039   -7.4196 P.3       1 GTP         1.5447
      2 O1G        -0.1757    0.9464   -8.6614 O.co2     1 GTP        -0.8705
      3 O2G        -1.8118   -0.7583   -7.5023 O.co2     1 GTP        -0.8705
      4 O3G        -1.5879    1.6383   -6.6491 O.3       1 GTP        -0.7914
      5 O3B         0.2941    0.0655   -6.3031 O.3       1 GTP        -0.8116
      6 PB          1.4668   -1.0703   -6.3172 P.3       1 GTP         1.6738
      7 O1B         0.8190   -2.4365   -6.2779 O.co2     1 GTP        -0.8763
      8 O2B         2.4904   -0.7095   -7.3705 O.co2     1 GTP        -0.8763
      9 O3A         2.1568   -0.7522   -4.8724 O.3       1 GTP        -0.8005
     10 PA          2.8621    0.6170   -4.3270 P.3       1 GTP         1.5754
     11 O1A         4.0956    0.8937   -5.1591 O.co2     1 GTP        -0.8771
     12 O2A         1.7927    1.6709   -4.1390 O.co2     1 GTP        -0.8771
     13 O5'         3.2903    0.1346   -2.8241 O.3       1 GTP        -0.5809
     14 C5'         2.2816   -0.2918   -1.9206 C.3       1 GTP         0.1986
     15 C4'         2.7248    0.0226   -0.4980 C.3       1 GTP         0.0418
     16 O4'         2.4697    1.4219   -0.2462 O.3       1 GTP        -0.3505
     17 C3'         1.9404   -0.7419    0.5596 C.3       1 GTP         0.0909
     18 O3'         2.7418   -0.8086    1.7389 O.3       1 GTP        -0.6187
     19 C2'         0.7477    0.1630    0.7858 C.3       1 GTP         0.0706
     20 O2'         0.1373   -0.0577    2.0407 O.3       1 GTP        -0.6294
     21 C1'         1.3733    1.5427    0.6747 C.3       1 GTP         0.3895
     22 N9          0.4520    2.5240    0.1767 N.pl3     1 GTP        -0.4733
     23 C8         -0.2136    2.5096   -0.9739 C.ar      1 GTP         0.2958
     24 N7         -0.9896    3.5820   -1.1212 N.pl3     1 GTP        -0.4933
     25 C5         -0.7962    4.3186    0.0156 C.ar      1 GTP        -0.1494
     26 C6         -1.3875    5.6031    0.4192 C.ar      1 GTP         0.7954
     27 O6         -2.1869    6.1731   -0.3158 O.2       1 GTP        -0.5729
     28 N1         -0.9745    6.0930    1.6597 N.2       1 GTP        -0.7443
     29 C2         -0.1105    5.4166    2.3900 C.ar      1 GTP         0.8831
     30 N2          0.3241    5.8571    3.6138 N.pl3     1 GTP        -0.9204
     31 N3          0.4444    4.2053    2.0072 N.pl3     1 GTP        -0.7173
     32 C4          0.0746    3.6889    0.8098 C.ar      1 GTP         0.2626
     33 HOG3       -2.0726    1.4463   -5.8181 H         1 GTP         0.4102
     34 H5'         1.3514    0.2330   -2.1577 H         1 GTP         0.0289
     35 H5''        2.1280   -1.3678   -2.0460 H         1 GTP         0.0289
     36 H4'         3.8044   -0.1397   -0.4040 H         1 GTP         0.2056
     37 H3'         1.6764   -1.7639    0.2728 H         1 GTP         0.1140
     38 HO3'        2.2232   -1.2979    2.3953 H         1 GTP         0.4287
     39 H2'        -0.0011    0.0027    0.0003 H         1 GTP         0.0809
     40 HO2'       -0.6141    0.5574    2.1082 H         1 GTP         0.4385
     41 H1'         1.7826    1.9024    1.6451 H         1 GTP         0.0794
     42 H8         -0.1415    1.7265   -1.7082 H         1 GTP         0.3821
     43 HN21       -0.0303    6.7197    3.9559 H         1 GTP         0.4411
     44 HN22        0.9765    5.2967    4.1108 H         1 GTP         0.4411
     45 H45         1.1068    3.6990    2.5819 H         1 GTP         0.4819
     46 H46        -1.5877    3.7943   -1.9074 H         1 GTP         0.5182
@<TRIPOS>BOND
     1    1    2 2
     2    1    3 1
     3    1    4 1
     4    1    5 1
     5    4   33 1
     6    5    6 1
     7    6    7 2
     8    6    8 1
     9    6    9 1
    10    9   10 1
    11   10   11 2
    12   10   12 1
    13   10   13 1
    14   13   14 1
    15   14   15 1
    16   14   34 1
    17   14   35 1
    18   15   16 1
    19   15   17 1
    20   15   36 1
    21   16   21 1
    22   17   18 1
    23   17   19 1
    24   17   37 1
    25   18   38 1
    26   19   20 1
    27   19   21 1
    28   19   39 1
    29   20   40 1
    30   21   22 1
    31   21   41 1
    32   22   23 ar
    33   22   32 ar
    34   23   24 ar
    35   23   42 1
    36   24   25 ar
    37   24   46 1
    38   25   26 ar
    39   25   32 ar
    40   26   27 2
    41   26   28 ar
    42   28   29 ar
    43   29   30 1
    44   29   31 ar
    45   30   43 1
    46   30   44 1
    47   31   32 ar
    48   31   45 1
@<TRIPOS>SUBSTRUCTURE
     1 GTP         1 GROUP 0 A     ****
@<TRIPOS>MOLECULE
[[[5-(2-amino-6-oxo-7,8-dihydro-3~{H}-purin-8-ylium-9-yl)-3,4-dihydroxy-tetrahydrofuran-2-yl]methoxy-oxido-phosphoryl]oxy-oxido-phosphoryl] hydrogen phosphate
   46    48     1     0     0
SMALL
USER_CHARGES

@<TRIPOS>ATOM
      1 PG          5.4729   -4.1979   -6.4703 P.3       1 GTP         1.5447
      2 O1G         4.3775   -5.1274   -6.9432 O.co2     1 GTP        -0.8705
      3 O2G         6.4919   -3.6410   -7.4394 O.co2     1 GTP        -0.8705
      4 O3G         6.2679   -4.9173   -5.2388 O.3       1 GTP        -0.7914
      5 O3B         4.8006   -2.9629   -5.6418 O.3       1 GTP        -0.8116
      6 PB          3.8313   -1.7576   -6.1646 P.3       1 GTP         1.6738
      7 O1B         4.6166   -0.8815   -7.1150 O.co2     1 GTP        -0.8763
      8 O2B         2.4877   -2.3365   -6.5484 O.co2     1 GTP        -0.8763
      9 O3A         3.6096   -0.9687   -4.7528 O.3       1 GTP        -0.8005
     10 PA          2.7407    0.3769   -4.4297 P.3       1 GTP         1.5754
     11 O1A         3.3568    1.5435   -5.1712 O.co2     1 GTP        -0.8771
     12 O2A         1.2702    0.0493   -4.5704 O.co2     1 GTP        -0.8771
     13 O5'         3.0213    0.5153   -2.8245 O.3       1 GTP        -0.5809
     14 C5'         2.2816   -0.2918   -1.9206 C.3       1 GTP         0.1986
     15 C4'         2.7248    0.0226   -0.4980 C.3       1 GTP         0.0418
     16 O4'         2.4697    1.4219   -0.2462 O.3       1 GTP        -0.3505
     17 C3'         1.9404   -0.7419    0.5596 C.3       1 GTP         0.0909
     18 O3'         2.7418   -0.8086    1.7389 O.3       1 GTP        -0.6187
     19 C2'         0.7477    0.1630    0.7858 C.3       1 GTP         0.0706
     20 O2'         0.1373   -0.0577    2.0407 O.3       1 GTP        -0.6294
     21 C1'         1.3733    1.5427    0.6747 C.3       1 GTP         0.3895
     22 N9          0.4520    2.5240    0.1767 N.pl3     1 GTP        -0.4733
     23 C8         -0.2136    2.5096   -0.9739 C.ar      1 GTP         0.2958
     24 N7         -0.9896    3.5820   -1.1212 N.pl3     1 GTP        -0.4933
     25 C5         -0.7962    4.3186    0.0156 C.ar      1 GTP        -0.1494
     26 C6         -1.3875    5.6031    0.4192 C.ar      1 GTP         0.7954
     27 O6         -2.1869    6.1731   -0.3158 O.2       1 GTP        -0.5729
     28 N1         -0.9745    6.0930    1.6597 N.2       1 GTP        -0.7443
     29 C2         -0.1105    5.4166    2.3900 C.ar      1 GTP         0.8831
     30 N2          0.3241    5.8571    3.6138 N.pl3     1 GTP        -0.9204
     31 N3          0.4444    4.2053    2.0072 N.pl3     1 GTP        -0.7173
     32 C4          0.0746    3.6889    0.8098 C.ar      1 GTP         0.2626
     33 HOG3        7.0134   -4.4365   -4.8202 H         1 GTP         0.4102
     34 H5'         1.2163   -0.0770   -2.0471 H         1 GTP         0.0289
     35 H5''        2.4655   -1.3443   -2.1563 H         1 GTP         0.0289
     36 H4'         3.8044   -0.1397   -0.4040 H         1 GTP         0.2056
     37 H3'         1.6764   -1.7639    0.2728 H         1 GTP         0.1140
     38 HO3'        2.2232   -1.2979    2.3953 H         1 GTP         0.4287
     39 H2'        -0.0011    0.0027    0.0003 H         1 GTP         0.0809
     40 HO2'       -0.6141    0.5574    2.1082 H         1 GTP         0.4385
     41 H1'         1.7826    1.9024    1.6451 H         1 GTP         0.0794
     42 H8         -0.1415    1.7265   -1.7082 H         1 GTP         0.3821
     43 HN21       -0.0303    6.7197    3.9559 H         1 GTP         0.4411
     44 HN22        0.9765    5.2967    4.1108 H         1 GTP         0.4411
     45 H45         1.1068    3.6990    2.5819 H         1 GTP         0.4819
     46 H46        -1.5877    3.7943   -1.9074 H         1 GTP         0.5182
@<TRIPOS>BOND
     1    1    2 2
     2    1    3 1
     3    1    4 1
     4    1    5 1
     5    4   33 1
     6    5    6 1
     7    6    7 2
     8    6    8 1
     9    6    9 1
    10    9   10 1
    11   10   11 2
    12   10   12 1
    13   10   13 1
    14   13   14 1
    15   14   15 1
    16   14   34 1
    17   14   35 1
    18   15   16 1
    19   15   17 1
    20   15   36 1
    21   16   21 1
    22   17   18 1
    23   17   19 1
    24   17   37 1
    25   18   38 1
    26   19   20 1
    27   19   21 1
    28   19   39 1
    29   20   40 1
    30   21   22 1
    31   21   41 1
    32   22   23 ar
    33   22   32 ar
    34   23   24 ar
    35   23   42 1
    36   24   25 ar
    37   24   46 1
    38   25   26 ar
    39   25   32 ar
    40   26   27 2
    41   26   28 ar
    42   28   29 ar
    43   29   30 1
    44   29   31 ar
    45   30   43 1
    46   30   44 1
    47   31   32 ar
    48   31   45 1
@<TRIPOS>SUBSTRUCTURE
     1 GTP         1 GROUP 0 A     ****
@<TRIPOS>MOLECULE
[[[5-(2-amino-6-oxo-7,8-dihydro-3~{H}-purin-8-ylium-9-yl)-3,4-dihydroxy-tetrahydrofuran-2-yl]methoxy-oxido-phosphoryl]oxy-oxido-phosphoryl] hydrogen phosphate
   46    48     1     0     0
SMALL
USER_CHARGES

@<TRIPOS>ATOM
      1 PG          1.6549   -4.6617   -3.7715 P.3       1 GTP         1.5447
      2 O1G         1.9035   -3.8456   -2.5226 O.co2     1 GTP        -0.8705
      3 O2G         0.2596   -4.8152   -4.3347 O.co2     1 GTP        -0.8705
      4 O3G         2.2930   -6.1489   -3.5548 O.3       1 GTP        -0.7914
      5 O3B         2.6484   -4.1371   -4.9553 O.3       1 GTP        -0.8116
      6 PB          2.6728   -2.7073   -5.7432 P.3       1 GTP         1.6738
      7 O1B         3.8808   -2.6756   -6.6529 O.co2     1 GTP        -0.8763
      8 O2B         1.2840   -2.4054   -6.2605 O.co2     1 GTP        -0.8763
      9 O3A         2.9205   -1.7124   -4.4729 O.3       1 GTP        -0.8005
     10 PA          3.0675   -0.0857   -4.4293 P.3       1 GTP         1.5754
     11 O1A         4.3144    0.3107   -5.1899 O.co2     1 GTP        -0.8771
     12 O2A         1.7243    0.5309   -4.7535 O.co2     1 GTP        -0.8771
     13 O5'         3.2903    0.1346   -2.8241 O.3       1 GTP        -0.5809
     14 C5'         2.2816   -0.2918   -1.9206 C.3       1 GTP         0.1986
     15 C4'         2.7248    0.0226   -0.4980 C.3       1 GTP         0.0418
     16 O4'         2.4697    1.4219   -0.2462 O.3       1 GTP        -0.3505
     17 C3'         1.9404   -0.7419    0.5596 C.3       1 GTP         0.0909
     18 O3'         2.7418   -0.8086    1.7389 O.3       1 GTP        -0.6187
     19 C2'         0.7477    0.1630    0.7858 C.3       1 GTP         0.0706
     20 O2'         0.1373   -0.0577    2.0407 O.3       1 GTP        -0.6294
     21 C1'         1.3733    1.5427    0.6747 C.3       1 GTP         0.3895
     22 N9          0.4520    2.5240    0.1767 N.pl3     1 GTP        -0.4733
     23 C8         -0.2136    2.5096   -0.9739 C.ar      1 GTP         0.2958
     24 N7         -0.9896    3.5820   -1.1212 N.pl3     1 GTP        -0.4933
     25 C5         -0.7962    4.3186    0.0156 C.ar      1 GTP        -0.1494
     26 C6         -1.3875    5.6031    0.4192 C.ar      1 GTP         0.7954
     27 O6         -2.1869    6.1731   -0.3158 O.2       1 GTP        -0.5729
     28 N1         -0.9745    6.0930    1.6597 N.2       1 GTP        -0.7443
     29 C2         -0.1105    5.4166    2.3900 C.ar      1 GTP         0.8831
     30 N2          0.3241    5.8571    3.6138 N.pl3     1 GTP        -0.9204
     31 N3          0.4444    4.2053    2.0072 N.pl3     1 GTP        -0.7173
     32 C4          0.0746    3.6889    0.8098 C.ar      1 GTP         0.2626
     33 HOG3        2.2130   -6.8018   -4.2825 H         1 GTP         0.4102
     34 H5'         1.3514    0.2330   -2.1577 H         1 GTP         0.0289
     35 H5''        2.1280   -1.3678   -2.0460 H         1 GTP         0.0289
     36 H4'         3.8044   -0.1397   -0.4040 H         1 GTP         0.2056
     37 H3'         1.6764   -1.7639    0.2728 H         1 GTP         0.1140
     38 HO3'        2.2232   -1.2979    2.3953 H         1 GTP         0.4287
     39 H2'        -0.0011    0.0027    0.0003 H         1 GTP         0.0809
     40 HO2'       -0.1563   -0.9855    2.0596 H         1 GTP         0.4385
     41 H1'         1.7826    1.9024    1.6451 H         1 GTP         0.0794
     42 H8         -0.1415    1.7265   -1.7082 H         1 GTP         0.3821
     43 HN21       -0.0303    6.7197    3.9559 H         1 GTP         0.4411
     44 HN22        0.9765    5.2967    4.1108 H         1 GTP         0.4411
     45 H45         1.1068    3.6990    2.5819 H         1 GTP         0.4819
     46 H46        -1.5877    3.7943   -1.9074 H         1 GTP         0.5182
@<TRIPOS>BOND
     1    1    2 2
     2    1    3 1
     3    1    4 1
     4    1    5 1
     5    4   33 1
     6    5    6 1
     7    6    7 2
     8    6    8 1
     9    6    9 1
    10    9   10 1
    11   10   11 2
    12   10   12 1
    13   10   13 1
    14   13   14 1
    15   14   15 1
    16   14   34 1
    17   14   35 1
    18   15   16 1
    19   15   17 1
    20   15   36 1
    21   16   21 1
    22   17   18 1
    23   17   19 1
    24   17   37 1
    25   18   38 1
    26   19   20 1
    27   19   21 1
    28   19   39 1
    29   20   40 1
    30   21   22 1
    31   21   41 1
    32   22   23 ar
    33   22   32 ar
    34   23   24 ar
    35   23   42 1
    36   24   25 ar
    37   24   46 1
    38   25   26 ar
    39   25   32 ar
    40   26   27 2
    41   26   28 ar
    42   28   29 ar
    43   29   30 1
    44   29   31 ar
    45   30   43 1
    46   30   44 1
    47   31   32 ar
    48   31   45 1
@<TRIPOS>SUBSTRUCTURE
     1 GTP         1 GROUP 0 A     ****
@<TRIPOS>MOLECULE
[[[5-(2-amino-6-oxo-7,8-dihydro-3~{H}-purin-8-ylium-9-yl)-3,4-dihydroxy-tetrahydrofuran-2-yl]methoxy-oxido-phosphoryl]oxy-oxido-phosphoryl] hydrogen phosphate
   46    48     1     0     0
SMALL
USER_CHARGES

@<TRIPOS>ATOM
      1 PG         -6.6164   -7.6474    0.9976 P.3       1 GTP         1.5447
      2 O1G        -7.6397   -6.7924    0.2839 O.co2     1 GTP        -0.8705
      3 O2G        -6.2208   -9.0024    0.4543 O.co2     1 GTP        -0.8705
      4 O3G        -7.0847   -7.8284    2.5512 O.3       1 GTP        -0.7914
      5 O3B        -5.2674   -6.7635    1.2480 O.3       1 GTP        -0.8116
      6 PB         -5.0903   -5.3033    1.9566 P.3       1 GTP         1.6738
      7 O1B        -5.7863   -4.2641    1.1063 O.co2     1 GTP        -0.8763
      8 O2B        -5.3746   -5.4353    3.4363 O.co2     1 GTP        -0.8763
      9 O3A        -3.4733   -5.1349    1.8088 O.3       1 GTP        -0.8005
     10 PA         -2.2652   -6.0681    2.3913 P.3       1 GTP         1.5754
     11 O1A        -2.2952   -6.0149    3.9035 O.co2     1 GTP        -0.8771
     12 O2A        -2.2759   -7.3899    1.6547 O.co2     1 GTP        -0.8771
     13 O5'        -0.9724   -5.2440    1.8220 O.3       1 GTP        -0.5809
     14 C5'        -0.7840   -3.8935    2.2172 C.3       1 GTP         0.1986
     15 C4'        -0.0724   -3.1466    1.1027 C.3       1 GTP         0.0418
     16 O4'        -0.8674   -3.1929   -0.0945 O.3       1 GTP        -0.3505
     17 C3'         0.1338   -1.6715    1.4027 C.3       1 GTP         0.0909
     18 O3'         1.2893   -1.4445    2.1808 O.3       1 GTP        -0.6187
     19 C2'         0.2158   -1.0724    0.0128 C.3       1 GTP         0.0706
     20 O2'         1.5141   -1.2448   -0.5513 O.3       1 GTP        -0.6294
     21 C1'        -0.7897   -1.9176   -0.7583 C.3       1 GTP         0.3895
     22 N9         -2.1040   -1.3333   -0.7704 N.pl3     1 GTP        -0.4733
     23 C8         -3.0774   -1.4939    0.1205 C.ar      1 GTP         0.2958
     24 N7         -4.1709   -0.8031   -0.1972 N.pl3     1 GTP        -0.4933
     25 C5         -3.8606   -0.1662   -1.3678 C.ar      1 GTP        -0.1494
     26 C6         -4.6738    0.7391   -2.1934 C.ar      1 GTP         0.7954
     27 O6         -5.8186    1.0214   -1.8562 O.2       1 GTP        -0.5729
     28 N1         -4.0520    1.2260   -3.3448 N.2       1 GTP        -0.7443
     29 C2         -2.8155    0.8734   -3.6351 C.ar      1 GTP         0.8831
     30 N2         -2.1637    1.3257   -4.7536 N.pl3     1 GTP        -0.9204
     31 N3         -2.0511    0.0205   -2.8541 N.pl3     1 GTP        -0.7173
     32 C4         -2.6117   -0.4790   -1.7258 C.ar      1 GTP         0.2626
     33 HOG3       -6.5202   -8.3625    3.1499 H         1 GTP         0.4102
     34 H5'        -1.7618   -3.4448    2.4164 H         1 GTP         0.0289
     35 H5''       -0.1874   -3.8744    3.1341 H         1 GTP         0.0289
     36 H4'         0.8874   -3.6466    0.8805 H         1 GTP         0.2056
     37 H3'        -0.7376   -1.2333    1.9867 H         1 GTP         0.1140
     38 HO3'        1.1626   -1.9325    3.0084 H         1 GTP         0.4287
     39 H2'        -0.0384   -0.0310    0.0096 H         1 GTP         0.0809
     40 HO2'        2.1463   -0.7958    0.0370 H         1 GTP         0.4385
     41 H1'        -0.4769   -2.1002   -1.8093 H         1 GTP         0.0794
     42 H8         -3.0010   -2.1083    1.0004 H         1 GTP         0.3821
     43 HN21       -2.6485    1.9422   -5.3633 H         1 GTP         0.4411
     44 HN22       -1.2319    1.0195   -4.9110 H         1 GTP         0.4411
     45 H45        -1.1018   -0.2391   -3.0927 H         1 GTP         0.4819
     46 H46        -5.0365   -0.7653    0.3226 H         1 GTP         0.5182
@<TRIPOS>BOND
     1    1    2 2
     2    1    3 1
     3    1    4 1
     4    1    5 1
     5    4   33 1
     6    5    6 1
     7    6    7 2
     8    6    8 1
     9    6    9 1
    10    9   10 1
    11   10   11 2
    12   10   12 1
    13   10   13 1
    14   13   14 1
    15   14   15 1
    16   14   34 1
    17   14   35 1
    18   15   16 1
    19   15   17 1
    20   15   36 1
    21   16   21 1
    22   17   18 1
    23   17   19 1
    24   17   37 1
    25   18   38 1
    26   19   20 1
    27   19   21 1
    28   19   39 1
    29   20   40 1
    30   21   22 1
    31   21   41 1
    32   22   23 ar
    33   22   32 ar
    34   23   24 ar
    35   23   42 1
    36   24   25 ar
    37   24   46 1
    38   25   26 ar
    39   25   32 ar
    40   26   27 2
    41   26   28 ar
    42   28   29 ar
    43   29   30 1
    44   29   31 ar
    45   30   43 1
    46   30   44 1
    47   31   32 ar
    48   31   45 1
@<TRIPOS>SUBSTRUCTURE
     1 GTP         1 GROUP 0 A     ****
@<TRIPOS>MOLECULE
[[[5-(2-amino-6-oxo-7,8-dihydro-3~{H}-purin-8-ylium-9-yl)-3,4-dihydroxy-tetrahydrofuran-2-yl]methoxy-oxido-phosphoryl]oxy-oxido-phosphoryl] hydrogen phosphate
   46    48     1     0     0
SMALL
USER_CHARGES

@<TRIPOS>ATOM
      1 PG          3.2468    2.3242   -5.8115 P.3       1 GTP         1.5447
      2 O1G         1.9739    2.7119   -6.5305 O.co2     1 GTP        -0.8705
      3 O2G         3.2934    2.2451   -4.3018 O.co2     1 GTP        -0.8705
      4 O3G         4.4480    3.3080   -6.3165 O.3       1 GTP        -0.7914
      5 O3B         3.8008    0.9200   -6.4321 O.3       1 GTP        -0.8116
      6 PB          3.1578   -0.5792   -6.3647 P.3       1 GTP         1.6738
      7 O1B         1.7402   -0.5227   -6.8887 O.co2     1 GTP        -0.8763
      8 O2B         4.1628   -1.5717   -6.9054 O.co2     1 GTP        -0.8763
      9 O3A         3.1328   -0.7809   -4.7450 O.3       1 GTP        -0.8005
     10 PA          2.6196   -2.0516   -3.8552 P.3       1 GTP         1.5754
     11 O1A         1.1298   -2.2200   -4.0616 O.co2     1 GTP        -0.8771
     12 O2A         3.5739   -3.2069   -4.0652 O.co2     1 GTP        -0.8771
     13 O5'         2.9216   -1.4836   -2.3516 O.3       1 GTP        -0.5809
     14 C5'         2.2816   -0.2918   -1.9206 C.3       1 GTP         0.1986
     15 C4'         2.7248    0.0226   -0.4980 C.3       1 GTP         0.0418
     16 O4'         2.4697    1.4219   -0.2462 O.3       1 GTP        -0.3505
     17 C3'         1.9404   -0.7419    0.5596 C.3       1 GTP         0.0909
     18 O3'         2.7418   -0.8086    1.7389 O.3       1 GTP        -0.6187
     19 C2'         0.7477    0.1630    0.7858 C.3       1 GTP         0.0706
     20 O2'         0.1373   -0.0577    2.0407 O.3       1 GTP        -0.6294
     21 C1'         1.3733    1.5427    0.6747 C.3       1 GTP         0.3895
     22 N9          0.4520    2.5240    0.1767 N.pl3     1 GTP        -0.4733
     23 C8         -0.2136    2.5096   -0.9739 C.ar      1 GTP         0.2958
     24 N7         -0.9896    3.5820   -1.1212 N.pl3     1 GTP        -0.4933
     25 C5         -0.7962    4.3186    0.0156 C.ar      1 GTP        -0.1494
     26 C6         -1.3875    5.6031    0.4192 C.ar      1 GTP         0.7954
     27 O6         -2.1869    6.1731   -0.3158 O.2       1 GTP        -0.5729
     28 N1         -0.9745    6.0930    1.6597 N.2       1 GTP        -0.7443
     29 C2         -0.1105    5.4166    2.3900 C.ar      1 GTP         0.8831
     30 N2          0.3241    5.8571    3.6138 N.pl3     1 GTP        -0.9204
     31 N3          0.4444    4.2053    2.0072 N.pl3     1 GTP        -0.7173
     32 C4          0.0746    3.6889    0.8098 C.ar      1 GTP         0.2626
     33 HOG3        5.3446    3.1820   -5.9389 H         1 GTP         0.4102
     34 H5'         2.5589    0.5217   -2.5976 H         1 GTP         0.0289
     35 H5''        1.1982   -0.4388   -1.9617 H         1 GTP         0.0289
     36 H4'         3.8044   -0.1397   -0.4040 H         1 GTP         0.2056
     37 H3'         1.6764   -1.7639    0.2728 H         1 GTP         0.1140
     38 HO3'        2.2232   -1.2979    2.3953 H         1 GTP         0.4287
     39 H2'        -0.0011    0.0027    0.0003 H         1 GTP         0.0809
     40 HO2'       -0.6141    0.5574    2.1082 H         1 GTP         0.4385
     41 H1'         1.7826    1.9024    1.6451 H         1 GTP         0.0794
     42 H8         -0.1415    1.7265   -1.7082 H         1 GTP         0.3821
     43 HN21       -0.0303    6.7197    3.9559 H         1 GTP         0.4411
     44 HN22        0.9765    5.2967    4.1108 H         1 GTP         0.4411
     45 H45         1.1068    3.6990    2.5819 H         1 GTP         0.4819
     46 H46        -1.5877    3.7943   -1.9074 H         1 GTP         0.5182
@<TRIPOS>BOND
     1    1    2 2
     2    1    3 1
     3    1    4 1
     4    1    5 1
     5    4   33 1
     6    5    6 1
     7    6    7 2
     8    6    8 1
     9    6    9 1
    10    9   10 1
    11   10   11 2
    12   10   12 1
    13   10   13 1
    14   13   14 1
    15   14   15 1
    16   14   34 1
    17   14   35 1
    18   15   16 1
    19   15   17 1
    20   15   36 1
    21   16   21 1
    22   17   18 1
    23   17   19 1
    24   17   37 1
    25   18   38 1
    26   19   20 1
    27   19   21 1
    28   19   39 1
    29   20   40 1
    30   21   22 1
    31   21   41 1
    32   22   23 ar
    33   22   32 ar
    34   23   24 ar
    35   23   42 1
    36   24   25 ar
    37   24   46 1
    38   25   26 ar
    39   25   32 ar
    40   26   27 2
    41   26   28 ar
    42   28   29 ar
    43   29   30 1
    44   29   31 ar
    45   30   43 1
    46   30   44 1
    47   31   32 ar
    48   31   45 1
@<TRIPOS>SUBSTRUCTURE
     1 GTP         1 GROUP 0 A     ****
@<TRIPOS>MOLECULE
[[[5-(2-amino-6-oxo-7,8-dihydro-3~{H}-purin-8-ylium-9-yl)-3,4-dihydroxy-tetrahydrofuran-2-yl]methoxy-oxido-phosphoryl]oxy-oxido-phosphoryl] hydrogen phosphate
   46    48     1     0     0
SMALL
USER_CHARGES

@<TRIPOS>ATOM
      1 PG          3.3359   -4.1714   -6.8553 P.3       1 GTP         1.5447
      2 O1G         4.0193   -3.6955   -8.1178 O.co2     1 GTP        -0.8705
      3 O2G         3.6544   -5.5258   -6.2623 O.co2     1 GTP        -0.8705
      4 O3G         1.7206   -4.0656   -7.0685 O.3       1 GTP        -0.7914
      5 O3B         3.5068   -3.0337   -5.6976 O.3       1 GTP        -0.8116
      6 PB          4.8510   -2.5203   -4.9260 P.3       1 GTP         1.6738
      7 O1B         5.3944   -3.6576   -4.0902 O.co2     1 GTP        -0.8763
      8 O2B         5.7254   -1.7692   -5.9053 O.co2     1 GTP        -0.8763
      9 O3A         4.1796   -1.3979   -3.9491 O.3       1 GTP        -0.8005
     10 PA          3.3343   -0.0514   -4.3264 P.3       1 GTP         1.5754
     11 O1A         4.2455    0.9036   -5.0666 O.co2     1 GTP        -0.8771
     12 O2A         1.9982   -0.4643   -4.9043 O.co2     1 GTP        -0.8771
     13 O5'         3.0213    0.5153   -2.8245 O.3       1 GTP        -0.5809
     14 C5'         2.2816   -0.2918   -1.9206 C.3       1 GTP         0.1986
     15 C4'         2.7248    0.0226   -0.4980 C.3       1 GTP         0.0418
     16 O4'         2.4697    1.4219   -0.2462 O.3       1 GTP        -0.3505
     17 C3'         1.9404   -0.7419    0.5596 C.3       1 GTP         0.0909
     18 O3'         2.7418   -0.8086    1.7389 O.3       1 GTP        -0.6187
     19 C2'         0.7477    0.1630    0.7858 C.3       1 GTP         0.0706
     20 O2'         0.1373   -0.0577    2.0407 O.3       1 GTP        -0.6294
     21 C1'         1.3733    1.5427    0.6747 C.3       1 GTP         0.3895
     22 N9          0.4520    2.5240    0.1767 N.pl3     1 GTP        -0.4733
     23 C8         -0.2136    2.5096   -0.9739 C.ar      1 GTP         0.2958
     24 N7         -0.9896    3.5820   -1.1212 N.pl3     1 GTP        -0.4933
     25 C5         -0.7962    4.3186    0.0156 C.ar      1 GTP        -0.1494
     26 C6         -1.3875    5.6031    0.4192 C.ar      1 GTP         0.7954
     27 O6         -2.1869    6.1731   -0.3158 O.2       1 GTP        -0.5729
     28 N1         -0.9745    6.0930    1.6597 N.2       1 GTP        -0.7443
     29 C2         -0.1105    5.4166    2.3900 C.ar      1 GTP         0.8831
     30 N2          0.3241    5.8571    3.6138 N.pl3     1 GTP        -0.9204
     31 N3          0.4444    4.2053    2.0072 N.pl3     1 GTP        -0.7173
     32 C4          0.0746    3.6889    0.8098 C.ar      1 GTP         0.2626
     33 HOG3        1.1334   -4.3404   -6.3322 H         1 GTP         0.4102
     34 H5'         1.2163   -0.0770   -2.0471 H         1 GTP         0.0289
     35 H5''        2.4655   -1.3443   -2.1563 H         1 GTP         0.0289
     36 H4'         3.8044   -0.1397   -0.4040 H         1 GTP         0.2056
     37 H3'         1.6764   -1.7639    0.2728 H         1 GTP         0.1140
     38 HO3'        2.2232   -1.2979    2.3953 H         1 GTP         0.4287
     39 H2'        -0.0011    0.0027    0.0003 H         1 GTP         0.0809
     40 HO2'       -0.1563   -0.9855    2.0596 H         1 GTP         0.4385
     41 H1'         1.7826    1.9024    1.6451 H         1 GTP         0.0794
     42 H8         -0.1415    1.7265   -1.7082 H         1 GTP         0.3821
     43 HN21       -0.0303    6.7197    3.9559 H         1 GTP         0.4411
     44 HN22        0.9765    5.2967    4.1108 H         1 GTP         0.4411
     45 H45         1.1068    3.6990    2.5819 H         1 GTP         0.4819
     46 H46        -1.5877    3.7943   -1.9074 H         1 GTP         0.5182
@<TRIPOS>BOND
     1    1    2 2
     2    1    3 1
     3    1    4 1
     4    1    5 1
     5    4   33 1
     6    5    6 1
     7    6    7 2
     8    6    8 1
     9    6    9 1
    10    9   10 1
    11   10   11 2
    12   10   12 1
    13   10   13 1
    14   13   14 1
    15   14   15 1
    16   14   34 1
    17   14   35 1
    18   15   16 1
    19   15   17 1
    20   15   36 1
    21   16   21 1
    22   17   18 1
    23   17   19 1
    24   17   37 1
    25   18   38 1
    26   19   20 1
    27   19   21 1
    28   19   39 1
    29   20   40 1
    30   21   22 1
    31   21   41 1
    32   22   23 ar
    33   22   32 ar
    34   23   24 ar
    35   23   42 1
    36   24   25 ar
    37   24   46 1
    38   25   26 ar
    39   25   32 ar
    40   26   27 2
    41   26   28 ar
    42   28   29 ar
    43   29   30 1
    44   29   31 ar
    45   30   43 1
    46   30   44 1
    47   31   32 ar
    48   31   45 1
@<TRIPOS>SUBSTRUCTURE
     1 GTP         1 GROUP 0 A     ****
@<TRIPOS>MOLECULE
[[[5-(2-amino-6-oxo-7,8-dihydro-3~{H}-purin-8-ylium-9-yl)-3,4-dihydroxy-tetrahydrofuran-2-yl]methoxy-oxido-phosphoryl]oxy-oxido-phosphoryl] hydrogen phosphate
   46    48     1     0     0
SMALL
USER_CHARGES

@<TRIPOS>ATOM
      1 PG          2.2560   -1.8894   -7.3197 P.3       1 GTP         1.5447
      2 O1G         1.4210   -2.9457   -8.0086 O.co2     1 GTP        -0.8705
      3 O2G         1.6092   -0.8245   -6.4622 O.co2     1 GTP        -0.8705
      4 O3G         3.1914   -1.1561   -8.4392 O.3       1 GTP        -0.7914
      5 O3B         3.4321   -2.6213   -6.4568 O.3       1 GTP        -0.8116
      6 PB          4.6951   -1.9732   -5.6502 P.3       1 GTP         1.6738
      7 O1B         5.4088   -3.0758   -4.9003 O.co2     1 GTP        -0.8763
      8 O2B         5.4388   -1.0327   -6.5721 O.co2     1 GTP        -0.8763
      9 O3A         3.8774   -1.0356   -4.5933 O.3       1 GTP        -0.8005
     10 PA          4.4374   -0.0466   -3.4193 P.3       1 GTP         1.5754
     11 O1A         5.1480   -0.8824   -2.3769 O.co2     1 GTP        -0.8771
     12 O2A         5.1179    1.1389   -4.0684 O.co2     1 GTP        -0.8771
     13 O5'         3.0213    0.5153   -2.8245 O.3       1 GTP        -0.5809
     14 C5'         2.2816   -0.2918   -1.9206 C.3       1 GTP         0.1986
     15 C4'         2.7248    0.0226   -0.4980 C.3       1 GTP         0.0418
     16 O4'         2.4697    1.4219   -0.2462 O.3       1 GTP        -0.3505
     17 C3'         1.9404   -0.7419    0.5596 C.3       1 GTP         0.0909
     18 O3'         2.7418   -0.8086    1.7389 O.3       1 GTP        -0.6187
     19 C2'         0.7477    0.1630    0.7858 C.3       1 GTP         0.0706
     20 O2'         0.1373   -0.0577    2.0407 O.3       1 GTP        -0.6294
     21 C1'         1.3733    1.5427    0.6747 C.3       1 GTP         0.3895
     22 N9          0.4520    2.5240    0.1767 N.pl3     1 GTP        -0.4733
     23 C8          0.2012    2.8401   -1.0899 C.ar      1 GTP         0.2958
     24 N7         -0.7168    3.7990   -1.1981 N.pl3     1 GTP        -0.4933
     25 C5         -1.0645    4.1043    0.0896 C.ar      1 GTP        -0.1494
     26 C6         -2.0336    5.0870    0.5973 C.ar      1 GTP         0.7954
     27 O6         -2.6730    5.7839   -0.1834 O.2       1 GTP        -0.5729
     28 N1         -2.1539    5.1517    1.9868 N.2       1 GTP        -0.7443
     29 C2         -1.4288    4.3650    2.7566 C.ar      1 GTP         0.8831
     30 N2         -1.5126    4.3922    4.1250 N.pl3     1 GTP        -0.9204
     31 N3         -0.5167    3.4388    2.2748 N.pl3     1 GTP        -0.7173
     32 C4         -0.3638    3.3392    0.9318 C.ar      1 GTP         0.2626
     33 HOG3        3.7956   -0.4408   -8.1468 H         1 GTP         0.4102
     34 H5'         1.2163   -0.0770   -2.0471 H         1 GTP         0.0289
     35 H5''        2.4655   -1.3443   -2.1563 H         1 GTP         0.0289
     36 H4'         3.8044   -0.1397   -0.4040 H         1 GTP         0.2056
     37 H3'         1.6764   -1.7639    0.2728 H         1 GTP         0.1140
     38 HO3'        2.2232   -1.2979    2.3953 H         1 GTP         0.4287
     39 H2'        -0.0011    0.0027    0.0003 H         1 GTP         0.0809
     40 HO2'       -0.6141    0.5574    2.1082 H         1 GTP         0.4385
     41 H1'         1.7826    1.9024    1.6451 H         1 GTP         0.0794
     42 H8          0.6787    2.3803   -1.9373 H         1 GTP         0.3821
     43 HN21       -2.1462    5.0320    4.5446 H         1 GTP         0.4411
     44 HN22       -0.9365    3.7712    4.6440 H         1 GTP         0.4411
     45 H45         0.0318    2.8419    2.8816 H         1 GTP         0.4819
     46 H46        -1.0718    4.2049   -2.0526 H         1 GTP         0.5182
@<TRIPOS>BOND
     1    1    2 2
     2    1    3 1
     3    1    4 1
     4    1    5 1
     5    4   33 1
     6    5    6 1
     7    6    7 2
     8    6    8 1
     9    6    9 1
    10    9   10 1
    11   10   11 2
    12   10   12 1
    13   10   13 1
    14   13   14 1
    15   14   15 1
    16   14   34 1
    17   14   35 1
    18   15   16 1
    19   15   17 1
    20   15   36 1
    21   16   21 1
    22   17   18 1
    23   17   19 1
    24   17   37 1
    25   18   38 1
    26   19   20 1
    27   19   21 1
    28   19   39 1
    29   20   40 1
    30   21   22 1
    31   21   41 1
    32   22   23 ar
    33   22   32 ar
    34   23   24 ar
    35   23   42 1
    36   24   25 ar
    37   24   46 1
    38   25   26 ar
    39   25   32 ar
    40   26   27 2
    41   26   28 ar
    42   28   29 ar
    43   29   30 1
    44   29   31 ar
    45   30   43 1
    46   30   44 1
    47   31   32 ar
    48   31   45 1
@<TRIPOS>SUBSTRUCTURE
     1 GTP         1 GROUP 0 A     ****
@<TRIPOS>MOLECULE
[[[5-(2-amino-6-oxo-7,8-dihydro-3~{H}-purin-8-ylium-9-yl)-3,4-dihydroxy-tetrahydrofuran-2-yl]methoxy-oxido-phosphoryl]oxy-oxido-phosphoryl] hydrogen phosphate
   46    48     1     0     0
SMALL
USER_CHARGES

@<TRIPOS>ATOM
      1 PG          0.6607   -2.5885   -7.6312 P.3       1 GTP         1.5447
      2 O1G        -0.8100   -2.2955   -7.4342 O.co2     1 GTP        -0.8705
      3 O2G         1.3593   -2.2254   -8.9226 O.co2     1 GTP        -0.8705
      4 O3G         0.9189   -4.1723   -7.3296 O.3       1 GTP        -0.7914
      5 O3B         1.4998   -1.9593   -6.3807 O.3       1 GTP        -0.8116
      6 PB          3.0816   -2.1054   -6.0036 P.3       1 GTP         1.6738
      7 O1B         3.3653   -3.5493   -5.6541 O.co2     1 GTP        -0.8763
      8 O2B         3.9047   -1.3635   -7.0330 O.co2     1 GTP        -0.8763
      9 O3A         3.1119   -1.1996   -4.6459 O.3       1 GTP        -0.8005
     10 PA          2.7407    0.3769   -4.4297 P.3       1 GTP         1.5754
     11 O1A         3.7274    1.2201   -5.2081 O.co2     1 GTP        -0.8771
     12 O2A         1.2486    0.5523   -4.6100 O.co2     1 GTP        -0.8771
     13 O5'         3.0213    0.5153   -2.8245 O.3       1 GTP        -0.5809
     14 C5'         2.2816   -0.2918   -1.9206 C.3       1 GTP         0.1986
     15 C4'         2.7248    0.0226   -0.4980 C.3       1 GTP         0.0418
     16 O4'         2.4697    1.4219   -0.2462 O.3       1 GTP        -0.3505
     17 C3'         1.9404   -0.7419    0.5596 C.3       1 GTP         0.0909
     18 O3'         2.7418   -0.8086    1.7389 O.3       1 GTP        -0.6187
     19 C2'         0.7477    0.1630    0.7858 C.3       1 GTP         0.0706
     20 O2'         0.1373   -0.0577    2.0407 O.3       1 GTP        -0.6294
     21 C1'         1.3733    1.5427    0.6747 C.3       1 GTP         0.3895
     22 N9          0.4520    2.5240    0.1767 N.pl3     1 GTP        -0.4733
     23 C8          0.5427    3.2356   -0.9425 C.ar      1 GTP         0.2958
     24 N7         -0.4919    4.0590   -1.1018 N.pl3     1 GTP        -0.4933
     25 C5         -1.2850    3.8484   -0.0069 C.ar      1 GTP        -0.1494
     26 C6         -2.5644    4.4707    0.3650 C.ar      1 GTP         0.7954
     27 O6         -3.0718    5.3200   -0.3599 O.2       1 GTP        -0.5729
     28 N1         -3.1239    4.0269    1.5647 N.2       1 GTP        -0.7443
     29 C2         -2.5133    3.1079    2.2858 C.ar      1 GTP         0.8831
     30 N2         -3.0239    2.6409    3.4697 N.pl3     1 GTP        -0.9204
     31 N3         -1.3076    2.5223    1.9320 N.pl3     1 GTP        -0.7173
     32 C4         -0.7246    2.9211    0.7753 C.ar      1 GTP         0.2626
     33 HOG3        1.8318   -4.5211   -7.4153 H         1 GTP         0.4102
     34 H5'         1.2163   -0.0770   -2.0471 H         1 GTP         0.0289
     35 H5''        2.4655   -1.3443   -2.1563 H         1 GTP         0.0289
     36 H4'         3.8044   -0.1397   -0.4040 H         1 GTP         0.2056
     37 H3'         1.6764   -1.7639    0.2728 H         1 GTP         0.1140
     38 HO3'        2.2232   -1.2979    2.3953 H         1 GTP         0.4287
     39 H2'        -0.0011    0.0027    0.0003 H         1 GTP         0.0809
     40 HO2'       -0.1563   -0.9855    2.0596 H         1 GTP         0.4385
     41 H1'         1.7826    1.9024    1.6451 H         1 GTP         0.0794
     42 H8          1.3539    3.1622   -1.6455 H         1 GTP         0.3821
     43 HN21       -3.8871    3.0143    3.7893 H         1 GTP         0.4411
     44 HN22       -2.5108    1.9472    3.9621 H         1 GTP         0.4411
     45 H45        -0.8530    1.8168    2.4986 H         1 GTP         0.4819
     46 H46        -0.6466    4.6966   -1.8702 H         1 GTP         0.5182
@<TRIPOS>BOND
     1    1    2 2
     2    1    3 1
     3    1    4 1
     4    1    5 1
     5    4   33 1
     6    5    6 1
     7    6    7 2
     8    6    8 1
     9    6    9 1
    10    9   10 1
    11   10   11 2
    12   10   12 1
    13   10   13 1
    14   13   14 1
    15   14   15 1
    16   14   34 1
    17   14   35 1
    18   15   16 1
    19   15   17 1
    20   15   36 1
    21   16   21 1
    22   17   18 1
    23   17   19 1
    24   17   37 1
    25   18   38 1
    26   19   20 1
    27   19   21 1
    28   19   39 1
    29   20   40 1
    30   21   22 1
    31   21   41 1
    32   22   23 ar
    33   22   32 ar
    34   23   24 ar
    35   23   42 1
    36   24   25 ar
    37   24   46 1
    38   25   26 ar
    39   25   32 ar
    40   26   27 2
    41   26   28 ar
    42   28   29 ar
    43   29   30 1
    44   29   31 ar
    45   30   43 1
    46   30   44 1
    47   31   32 ar
    48   31   45 1
@<TRIPOS>SUBSTRUCTURE
     1 GTP         1 GROUP 0 A     ****
@<TRIPOS>MOLECULE
[[[5-(2-amino-6-oxo-7,8-dihydro-3~{H}-purin-8-ylium-9-yl)-3,4-dihydroxy-tetrahydrofuran-2-yl]methoxy-oxido-phosphoryl]oxy-oxido-phosphoryl] hydrogen phosphate
   46    48     1     0     0
SMALL
USER_CHARGES

@<TRIPOS>ATOM
      1 PG          1.3387    0.8603   -6.7511 P.3       1 GTP         1.5447
      2 O1G         2.1716    1.9269   -7.4264 O.co2     1 GTP        -0.8705
      3 O2G        -0.1085    0.6453   -7.1347 O.co2     1 GTP        -0.8705
      4 O3G         1.4189    1.0849   -5.1358 O.3       1 GTP        -0.7914
      5 O3B         2.1273   -0.5658   -6.8412 O.3       1 GTP        -0.8116
      6 PB          1.7691   -2.0041   -6.1567 P.3       1 GTP         1.6738
      7 O1B         0.3554   -2.3836   -6.5374 O.co2     1 GTP        -0.8763
      8 O2B         2.9277   -2.9531   -6.3680 O.co2     1 GTP        -0.8763
      9 O3A         1.8113   -1.5642   -4.5853 O.3       1 GTP        -0.8005
     10 PA          1.5544   -2.4558   -3.2404 P.3       1 GTP         1.5754
     11 O1A         0.1056   -2.3088   -2.8286 O.co2     1 GTP        -0.8771
     12 O2A         2.1769   -3.8208   -3.4380 O.co2     1 GTP        -0.8771
     13 O5'         2.5245   -1.6648   -2.1878 O.3       1 GTP        -0.5809
     14 C5'         2.2816   -0.2918   -1.9206 C.3       1 GTP         0.1986
     15 C4'         2.7248    0.0226   -0.4980 C.3       1 GTP         0.0418
     16 O4'         2.4697    1.4219   -0.2462 O.3       1 GTP        -0.3505
     17 C3'         1.9404   -0.7419    0.5596 C.3       1 GTP         0.0909
     18 O3'         2.7418   -0.8086    1.7389 O.3       1 GTP        -0.6187
     19 C2'         0.7477    0.1630    0.7858 C.3       1 GTP         0.0706
     20 O2'         0.1373   -0.0577    2.0407 O.3       1 GTP        -0.6294
     21 C1'         1.3733    1.5427    0.6747 C.3       1 GTP         0.3895
     22 N9          0.4520    2.5240    0.1767 N.pl3     1 GTP        -0.4733
     23 C8          0.2012    2.8401   -1.0899 C.ar      1 GTP         0.2958
     24 N7         -0.7168    3.7990   -1.1981 N.pl3     1 GTP        -0.4933
     25 C5         -1.0645    4.1043    0.0896 C.ar      1 GTP        -0.1494
     26 C6         -2.0336    5.0870    0.5973 C.ar      1 GTP         0.7954
     27 O6         -2.6730    5.7839   -0.1834 O.2       1 GTP        -0.5729
     28 N1         -2.1539    5.1517    1.9868 N.2       1 GTP        -0.7443
     29 C2         -1.4288    4.3650    2.7566 C.ar      1 GTP         0.8831
     30 N2         -1.5126    4.3922    4.1250 N.pl3     1 GTP        -0.9204
     31 N3         -0.5167    3.4388    2.2748 N.pl3     1 GTP        -0.7173
     32 C4         -0.3638    3.3392    0.9318 C.ar      1 GTP         0.2626
     33 HOG3        0.9266    0.4677   -4.5536 H         1 GTP         0.4102
     34 H5'         2.8432    0.3119   -2.6398 H         1 GTP         0.0289
     35 H5''        1.2128   -0.0927   -2.0428 H         1 GTP         0.0289
     36 H4'         3.8044   -0.1397   -0.4040 H         1 GTP         0.2056
     37 H3'         1.6764   -1.7639    0.2728 H         1 GTP         0.1140
     38 HO3'        2.2232   -1.2979    2.3953 H         1 GTP         0.4287
     39 H2'        -0.0011    0.0027    0.0003 H         1 GTP         0.0809
     40 HO2'       -0.1563   -0.9855    2.0596 H         1 GTP         0.4385
     41 H1'         1.7826    1.9024    1.6451 H         1 GTP         0.0794
     42 H8          0.6787    2.3803   -1.9373 H         1 GTP         0.3821
     43 HN21       -2.1462    5.0320    4.5446 H         1 GTP         0.4411
     44 HN22       -0.9365    3.7712    4.6440 H         1 GTP         0.4411
     45 H45         0.0318    2.8419    2.8816 H         1 GTP         0.4819
     46 H46        -1.0718    4.2049   -2.0526 H         1 GTP         0.5182
@<TRIPOS>BOND
     1    1    2 2
     2    1    3 1
     3    1    4 1
     4    1    5 1
     5    4   33 1
     6    5    6 1
     7    6    7 2
     8    6    8 1
     9    6    9 1
    10    9   10 1
    11   10   11 2
    12   10   12 1
    13   10   13 1
    14   13   14 1
    15   14   15 1
    16   14   34 1
    17   14   35 1
    18   15   16 1
    19   15   17 1
    20   15   36 1
    21   16   21 1
    22   17   18 1
    23   17   19 1
    24   17   37 1
    25   18   38 1
    26   19   20 1
    27   19   21 1
    28   19   39 1
    29   20   40 1
    30   21   22 1
    31   21   41 1
    32   22   23 ar
    33   22   32 ar
    34   23   24 ar
    35   23   42 1
    36   24   25 ar
    37   24   46 1
    38   25   26 ar
    39   25   32 ar
    40   26   27 2
    41   26   28 ar
    42   28   29 ar
    43   29   30 1
    44   29   31 ar
    45   30   43 1
    46   30   44 1
    47   31   32 ar
    48   31   45 1
@<TRIPOS>SUBSTRUCTURE
     1 GTP         1 GROUP 0 A     ****
@<TRIPOS>MOLECULE
[[[5-(2-amino-6-oxo-7,8-dihydro-3~{H}-purin-8-ylium-9-yl)-3,4-dihydroxy-tetrahydrofuran-2-yl]methoxy-oxido-phosphoryl]oxy-oxido-phosphoryl] hydrogen phosphate
   46    48     1     0     0
SMALL
USER_CHARGES

@<TRIPOS>ATOM
      1 PG         -0.5249   -1.3860   -7.5277 P.3       1 GTP         1.5447
      2 O1G         0.0204   -2.7876   -7.6880 O.co2     1 GTP        -0.8705
      3 O2G        -2.0132   -1.1387   -7.4193 O.co2     1 GTP        -0.8705
      4 O3G         0.0685   -0.4576   -8.7326 O.3       1 GTP        -0.7914
      5 O3B         0.2240   -0.6654   -6.2693 O.3       1 GTP        -0.8116
      6 PB          0.1391    0.8790   -5.7466 P.3       1 GTP         1.6738
      7 O1B         0.7346    1.7821   -6.8037 O.co2     1 GTP        -0.8763
      8 O2B        -1.2381    1.1310   -5.1743 O.co2     1 GTP        -0.8763
      9 O3A         1.1584    0.7817   -4.4753 O.3       1 GTP        -0.8005
     10 PA          2.7407    0.3769   -4.4297 P.3       1 GTP         1.5754
     11 O1A         2.8866   -1.0655   -4.8640 O.co2     1 GTP        -0.8771
     12 O2A         3.5415    1.4776   -5.0906 O.co2     1 GTP        -0.8771
     13 O5'         3.0213    0.5153   -2.8245 O.3       1 GTP        -0.5809
     14 C5'         2.2816   -0.2918   -1.9206 C.3       1 GTP         0.1986
     15 C4'         2.7248    0.0226   -0.4980 C.3       1 GTP         0.0418
     16 O4'         2.4697    1.4219   -0.2462 O.3       1 GTP        -0.3505
     17 C3'         1.9404   -0.7419    0.5596 C.3       1 GTP         0.0909
     18 O3'         2.7418   -0.8086    1.7389 O.3       1 GTP        -0.6187
     19 C2'         0.7477    0.1630    0.7858 C.3       1 GTP         0.0706
     20 O2'         0.1373   -0.0577    2.0407 O.3       1 GTP        -0.6294
     21 C1'         1.3733    1.5427    0.6747 C.3       1 GTP         0.3895
     22 N9          0.4520    2.5240    0.1767 N.pl3     1 GTP        -0.4733
     23 C8         -0.8640    2.5747    0.3578 C.ar      1 GTP         0.2958
     24 N7         -1.4158    3.6263   -0.2452 N.pl3     1 GTP        -0.4933
     25 C5         -0.3734    4.2789   -0.8450 C.ar      1 GTP        -0.1494
     26 C6         -0.3693    5.5074   -1.6532 C.ar      1 GTP         0.7954
     27 O6         -1.4174    6.1047   -1.8742 O.2       1 GTP        -0.5729
     28 N1          0.8803    5.9138   -2.1250 N.2       1 GTP        -0.7443
     29 C2          1.9606    5.2142   -1.8406 C.ar      1 GTP         0.8831
     30 N2          3.2085    5.5738   -2.2809 N.pl3     1 GTP        -0.9204
     31 N3          1.9536    4.0567   -1.0776 N.pl3     1 GTP        -0.7173
     32 C4          0.7633    3.6215   -0.5973 C.ar      1 GTP         0.2626
     33 HOG3       -0.1950    0.4867   -8.7674 H         1 GTP         0.4102
     34 H5'         1.2163   -0.0770   -2.0471 H         1 GTP         0.0289
     35 H5''        2.4655   -1.3443   -2.1563 H         1 GTP         0.0289
     36 H4'         3.8044   -0.1397   -0.4040 H         1 GTP         0.2056
     37 H3'         1.6764   -1.7639    0.2728 H         1 GTP         0.1140
     38 HO3'        2.2232   -1.2979    2.3953 H         1 GTP         0.4287
     39 H2'        -0.0011    0.0027    0.0003 H         1 GTP         0.0809
     40 HO2'       -0.1563   -0.9855    2.0596 H         1 GTP         0.4385
     41 H1'         1.7826    1.9024    1.6451 H         1 GTP         0.0794
     42 H8         -1.4279    1.8548    0.9245 H         1 GTP         0.3821
     43 HN21        3.2933    6.3940   -2.8348 H         1 GTP         0.4411
     44 HN22        3.9794    5.0002   -2.0291 H         1 GTP         0.4411
     45 H45         2.7941    3.5321   -0.8687 H         1 GTP         0.4819
     46 H46        -2.3945    3.8775   -0.2507 H         1 GTP         0.5182
@<TRIPOS>BOND
     1    1    2 2
     2    1    3 1
     3    1    4 1
     4    1    5 1
     5    4   33 1
     6    5    6 1
     7    6    7 2
     8    6    8 1
     9    6    9 1
    10    9   10 1
    11   10   11 2
    12   10   12 1
    13   10   13 1
    14   13   14 1
    15   14   15 1
    16   14   34 1
    17   14   35 1
    18   15   16 1
    19   15   17 1
    20   15   36 1
    21   16   21 1
    22   17   18 1
    23   17   19 1
    24   17   37 1
    25   18   38 1
    26   19   20 1
    27   19   21 1
    28   19   39 1
    29   20   40 1
    30   21   22 1
    31   21   41 1
    32   22   23 ar
    33   22   32 ar
    34   23   24 ar
    35   23   42 1
    36   24   25 ar
    37   24   46 1
    38   25   26 ar
    39   25   32 ar
    40   26   27 2
    41   26   28 ar
    42   28   29 ar
    43   29   30 1
    44   29   31 ar
    45   30   43 1
    46   30   44 1
    47   31   32 ar
    48   31   45 1
@<TRIPOS>SUBSTRUCTURE
     1 GTP         1 GROUP 0 A     ****
@<TRIPOS>MOLECULE
[[[5-(2-amino-6-oxo-7,8-dihydro-3~{H}-purin-8-ylium-9-yl)-3,4-dihydroxy-tetrahydrofuran-2-yl]methoxy-oxido-phosphoryl]oxy-oxido-phosphoryl] hydrogen phosphate
   46    48     1     0     0
SMALL
USER_CHARGES

@<TRIPOS>ATOM
      1 PG          7.0663   -1.5026   -5.6705 P.3       1 GTP         1.5447
      2 O1G         7.8557   -1.0127   -4.4771 O.co2     1 GTP        -0.8705
      3 O2G         7.3358   -2.8624   -6.2756 O.co2     1 GTP        -0.8705
      4 O3G         7.1634   -0.3806   -6.8527 O.3       1 GTP        -0.7914
      5 O3B         5.4727   -1.3767   -5.3412 O.3       1 GTP        -0.8116
      6 PB          4.6092   -0.0895   -4.8281 P.3       1 GTP         1.6738
      7 O1B         5.0724    0.2816   -3.4369 O.co2     1 GTP        -0.8763
      8 O2B         4.5419    0.9341   -5.9395 O.co2     1 GTP        -0.8763
      9 O3A         3.1328   -0.7809   -4.7450 O.3       1 GTP        -0.8005
     10 PA          2.6196   -2.0516   -3.8552 P.3       1 GTP         1.5754
     11 O1A         1.1298   -2.2200   -4.0616 O.co2     1 GTP        -0.8771
     12 O2A         3.5739   -3.2069   -4.0652 O.co2     1 GTP        -0.8771
     13 O5'         2.9216   -1.4836   -2.3516 O.3       1 GTP        -0.5809
     14 C5'         2.2816   -0.2918   -1.9206 C.3       1 GTP         0.1986
     15 C4'         2.7248    0.0226   -0.4980 C.3       1 GTP         0.0418
     16 O4'         2.4697    1.4219   -0.2462 O.3       1 GTP        -0.3505
     17 C3'         1.9404   -0.7419    0.5596 C.3       1 GTP         0.0909
     18 O3'         2.7418   -0.8086    1.7389 O.3       1 GTP        -0.6187
     19 C2'         0.7477    0.1630    0.7858 C.3       1 GTP         0.0706
     20 O2'         0.1373   -0.0577    2.0407 O.3       1 GTP        -0.6294
     21 C1'         1.3733    1.5427    0.6747 C.3       1 GTP         0.3895
     22 N9          0.4520    2.5240    0.1767 N.pl3     1 GTP        -0.4733
     23 C8          0.2012    2.8401   -1.0899 C.ar      1 GTP         0.2958
     24 N7         -0.7168    3.7990   -1.1981 N.pl3     1 GTP        -0.4933
     25 C5         -1.0645    4.1043    0.0896 C.ar      1 GTP        -0.1494
     26 C6         -2.0336    5.0870    0.5973 C.ar      1 GTP         0.7954
     27 O6         -2.6730    5.7839   -0.1834 O.2       1 GTP        -0.5729
     28 N1         -2.1539    5.1517    1.9868 N.2       1 GTP        -0.7443
     29 C2         -1.4288    4.3650    2.7566 C.ar      1 GTP         0.8831
     30 N2         -1.5126    4.3922    4.1250 N.pl3     1 GTP        -0.9204
     31 N3         -0.5167    3.4388    2.2748 N.pl3     1 GTP        -0.7173
     32 C4         -0.3638    3.3392    0.9318 C.ar      1 GTP         0.2626
     33 HOG3        6.6990   -0.5532   -7.6994 H         1 GTP         0.4102
     34 H5'         2.5589    0.5217   -2.5976 H         1 GTP         0.0289
     35 H5''        1.1982   -0.4388   -1.9617 H         1 GTP         0.0289
     36 H4'         3.8044   -0.1397   -0.4040 H         1 GTP         0.2056
     37 H3'         1.6764   -1.7639    0.2728 H         1 GTP         0.1140
     38 HO3'        2.2232   -1.2979    2.3953 H         1 GTP         0.4287
     39 H2'        -0.0011    0.0027    0.0003 H         1 GTP         0.0809
     40 HO2'       -0.6141    0.5574    2.1082 H         1 GTP         0.4385
     41 H1'         1.7826    1.9024    1.6451 H         1 GTP         0.0794
     42 H8          0.6787    2.3803   -1.9373 H         1 GTP         0.3821
     43 HN21       -2.1462    5.0320    4.5446 H         1 GTP         0.4411
     44 HN22       -0.9365    3.7712    4.6440 H         1 GTP         0.4411
     45 H45         0.0318    2.8419    2.8816 H         1 GTP         0.4819
     46 H46        -1.0718    4.2049   -2.0526 H         1 GTP         0.5182
@<TRIPOS>BOND
     1    1    2 2
     2    1    3 1
     3    1    4 1
     4    1    5 1
     5    4   33 1
     6    5    6 1
     7    6    7 2
     8    6    8 1
     9    6    9 1
    10    9   10 1
    11   10   11 2
    12   10   12 1
    13   10   13 1
    14   13   14 1
    15   14   15 1
    16   14   34 1
    17   14   35 1
    18   15   16 1
    19   15   17 1
    20   15   36 1
    21   16   21 1
    22   17   18 1
    23   17   19 1
    24   17   37 1
    25   18   38 1
    26   19   20 1
    27   19   21 1
    28   19   39 1
    29   20   40 1
    30   21   22 1
    31   21   41 1
    32   22   23 ar
    33   22   32 ar
    34   23   24 ar
    35   23   42 1
    36   24   25 ar
    37   24   46 1
    38   25   26 ar
    39   25   32 ar
    40   26   27 2
    41   26   28 ar
    42   28   29 ar
    43   29   30 1
    44   29   31 ar
    45   30   43 1
    46   30   44 1
    47   31   32 ar
    48   31   45 1
@<TRIPOS>SUBSTRUCTURE
     1 GTP         1 GROUP 0 A     ****
@<TRIPOS>MOLECULE
[[[5-(2-amino-6-oxo-7,8-dihydro-3~{H}-purin-8-ylium-9-yl)-3,4-dihydroxy-tetrahydrofuran-2-yl]methoxy-oxido-phosphoryl]oxy-oxido-phosphoryl] hydrogen phosphate
   46    48     1     0     0
SMALL
USER_CHARGES

@<TRIPOS>ATOM
      1 PG          5.6116   -0.1831   -7.3440 P.3       1 GTP         1.5447
      2 O1G         6.7268    0.6485   -6.7505 O.co2     1 GTP        -0.8705
      3 O2G         5.9146   -1.4069   -8.1796 O.co2     1 GTP        -0.8705
      4 O3G         4.6312    0.8008   -8.2022 O.3       1 GTP        -0.7914
      5 O3B         4.5690   -0.5971   -6.1584 O.3       1 GTP        -0.8116
      6 PB          3.1246   -1.3523   -6.2524 P.3       1 GTP         1.6738
      7 O1B         2.1551   -0.4546   -6.9884 O.co2     1 GTP        -0.8763
      8 O2B         3.3456   -2.7893   -6.6693 O.co2     1 GTP        -0.8763
      9 O3A         2.7418   -1.3839   -4.6658 O.3       1 GTP        -0.8005
     10 PA          3.5300   -2.0730   -3.4114 P.3       1 GTP         1.5754
     11 O1A         3.5355   -3.5739   -3.6057 O.co2     1 GTP        -0.8771
     12 O2A         4.8145   -1.3109   -3.1689 O.co2     1 GTP        -0.8771
     13 O5'         2.5245   -1.6648   -2.1878 O.3       1 GTP        -0.5809
     14 C5'         2.2816   -0.2918   -1.9206 C.3       1 GTP         0.1986
     15 C4'         2.7248    0.0226   -0.4980 C.3       1 GTP         0.0418
     16 O4'         2.4697    1.4219   -0.2462 O.3       1 GTP        -0.3505
     17 C3'         1.9404   -0.7419    0.5596 C.3       1 GTP         0.0909
     18 O3'         2.7418   -0.8086    1.7389 O.3       1 GTP        -0.6187
     19 C2'         0.7477    0.1630    0.7858 C.3       1 GTP         0.0706
     20 O2'         0.1373   -0.0577    2.0407 O.3       1 GTP        -0.6294
     21 C1'         1.3733    1.5427    0.6747 C.3       1 GTP         0.3895
     22 N9          0.4520    2.5240    0.1767 N.pl3     1 GTP        -0.4733
     23 C8          0.2012    2.8401   -1.0899 C.ar      1 GTP         0.2958
     24 N7         -0.7168    3.7990   -1.1981 N.pl3     1 GTP        -0.4933
     25 C5         -1.0645    4.1043    0.0896 C.ar      1 GTP        -0.1494
     26 C6         -2.0336    5.0870    0.5973 C.ar      1 GTP         0.7954
     27 O6         -2.6730    5.7839   -0.1834 O.2       1 GTP        -0.5729
     28 N1         -2.1539    5.1517    1.9868 N.2       1 GTP        -0.7443
     29 C2         -1.4288    4.3650    2.7566 C.ar      1 GTP         0.8831
     30 N2         -1.5126    4.3922    4.1250 N.pl3     1 GTP        -0.9204
     31 N3         -0.5167    3.4388    2.2748 N.pl3     1 GTP        -0.7173
     32 C4         -0.3638    3.3392    0.9318 C.ar      1 GTP         0.2626
     33 HOG3        3.8534    0.4077   -8.6527 H         1 GTP         0.4102
     34 H5'         2.8432    0.3119   -2.6398 H         1 GTP         0.0289
     35 H5''        1.2128   -0.0927   -2.0428 H         1 GTP         0.0289
     36 H4'         3.8044   -0.1397   -0.4040 H         1 GTP         0.2056
     37 H3'         1.6764   -1.7639    0.2728 H         1 GTP         0.1140
     38 HO3'        2.2232   -1.2979    2.3953 H         1 GTP         0.4287
     39 H2'        -0.0011    0.0027    0.0003 H         1 GTP         0.0809
     40 HO2'       -0.6141    0.5574    2.1082 H         1 GTP         0.4385
     41 H1'         1.7826    1.9024    1.6451 H         1 GTP         0.0794
     42 H8          0.6787    2.3803   -1.9373 H         1 GTP         0.3821
     43 HN21       -2.1462    5.0320    4.5446 H         1 GTP         0.4411
     44 HN22       -0.9365    3.7712    4.6440 H         1 GTP         0.4411
     45 H45         0.0318    2.8419    2.8816 H         1 GTP         0.4819
     46 H46        -1.0718    4.2049   -2.0526 H         1 GTP         0.5182
@<TRIPOS>BOND
     1    1    2 2
     2    1    3 1
     3    1    4 1
     4    1    5 1
     5    4   33 1
     6    5    6 1
     7    6    7 2
     8    6    8 1
     9    6    9 1
    10    9   10 1
    11   10   11 2
    12   10   12 1
    13   10   13 1
    14   13   14 1
    15   14   15 1
    16   14   34 1
    17   14   35 1
    18   15   16 1
    19   15   17 1
    20   15   36 1
    21   16   21 1
    22   17   18 1
    23   17   19 1
    24   17   37 1
    25   18   38 1
    26   19   20 1
    27   19   21 1
    28   19   39 1
    29   20   40 1
    30   21   22 1
    31   21   41 1
    32   22   23 ar
    33   22   32 ar
    34   23   24 ar
    35   23   42 1
    36   24   25 ar
    37   24   46 1
    38   25   26 ar
    39   25   32 ar
    40   26   27 2
    41   26   28 ar
    42   28   29 ar
    43   29   30 1
    44   29   31 ar
    45   30   43 1
    46   30   44 1
    47   31   32 ar
    48   31   45 1
@<TRIPOS>SUBSTRUCTURE
     1 GTP         1 GROUP 0 A     ****
@<TRIPOS>MOLECULE
[[[5-(2-amino-6-oxo-7,8-dihydro-3~{H}-purin-8-ylium-9-yl)-3,4-dihydroxy-tetrahydrofuran-2-yl]methoxy-oxido-phosphoryl]oxy-oxido-phosphoryl] hydrogen phosphate
   46    48     1     0     0
SMALL
USER_CHARGES

@<TRIPOS>ATOM
      1 PG          0.5297    2.6759   -8.0623 P.3       1 GTP         1.5447
      2 O1G        -0.8846    3.2074   -7.9929 O.co2     1 GTP        -0.8705
      3 O2G         1.6697    3.5574   -8.5219 O.co2     1 GTP        -0.8705
      4 O3G         0.5290    1.3160   -8.9660 O.3       1 GTP        -0.7914
      5 O3B         0.9199    2.0146   -6.6221 O.3       1 GTP        -0.8116
      6 PB          0.1391    0.8790   -5.7466 P.3       1 GTP         1.6738
      7 O1B        -1.1864    1.4459   -5.2892 O.co2     1 GTP        -0.8763
      8 O2B         0.2261   -0.4469   -6.4691 O.co2     1 GTP        -0.8763
      9 O3A         1.1584    0.7817   -4.4753 O.3       1 GTP        -0.8005
     10 PA          2.7407    0.3769   -4.4297 P.3       1 GTP         1.5754
     11 O1A         2.8866   -1.0655   -4.8640 O.co2     1 GTP        -0.8771
     12 O2A         3.5415    1.4776   -5.0906 O.co2     1 GTP        -0.8771
     13 O5'         3.0213    0.5153   -2.8245 O.3       1 GTP        -0.5809
     14 C5'         2.2816   -0.2918   -1.9206 C.3       1 GTP         0.1986
     15 C4'         2.7248    0.0226   -0.4980 C.3       1 GTP         0.0418
     16 O4'         2.4697    1.4219   -0.2462 O.3       1 GTP        -0.3505
     17 C3'         1.9404   -0.7419    0.5596 C.3       1 GTP         0.0909
     18 O3'         2.7418   -0.8086    1.7389 O.3       1 GTP        -0.6187
     19 C2'         0.7477    0.1630    0.7858 C.3       1 GTP         0.0706
     20 O2'         0.1373   -0.0577    2.0407 O.3       1 GTP        -0.6294
     21 C1'         1.3733    1.5427    0.6747 C.3       1 GTP         0.3895
     22 N9          0.4520    2.5240    0.1767 N.pl3     1 GTP        -0.4733
     23 C8         -0.8640    2.5747    0.3578 C.ar      1 GTP         0.2958
     24 N7         -1.4158    3.6263   -0.2452 N.pl3     1 GTP        -0.4933
     25 C5         -0.3734    4.2789   -0.8450 C.ar      1 GTP        -0.1494
     26 C6         -0.3693    5.5074   -1.6532 C.ar      1 GTP         0.7954
     27 O6         -1.4174    6.1047   -1.8742 O.2       1 GTP        -0.5729
     28 N1          0.8803    5.9138   -2.1250 N.2       1 GTP        -0.7443
     29 C2          1.9606    5.2142   -1.8406 C.ar      1 GTP         0.8831
     30 N2          3.2085    5.5738   -2.2809 N.pl3     1 GTP        -0.9204
     31 N3          1.9536    4.0567   -1.0776 N.pl3     1 GTP        -0.7173
     32 C4          0.7633    3.6215   -0.5973 C.ar      1 GTP         0.2626
     33 HOG3        1.3797    0.8482   -9.1062 H         1 GTP         0.4102
     34 H5'         1.2163   -0.0770   -2.0471 H         1 GTP         0.0289
     35 H5''        2.4655   -1.3443   -2.1563 H         1 GTP         0.0289
     36 H4'         3.8044   -0.1397   -0.4040 H         1 GTP         0.2056
     37 H3'         1.6764   -1.7639    0.2728 H         1 GTP         0.1140
     38 HO3'        2.2232   -1.2979    2.3953 H         1 GTP         0.4287
     39 H2'        -0.0011    0.0027    0.0003 H         1 GTP         0.0809
     40 HO2'       -0.1563   -0.9855    2.0596 H         1 GTP         0.4385
     41 H1'         1.7826    1.9024    1.6451 H         1 GTP         0.0794
     42 H8         -1.4279    1.8548    0.9245 H         1 GTP         0.3821
     43 HN21        3.2933    6.3940   -2.8348 H         1 GTP         0.4411
     44 HN22        3.9794    5.0002   -2.0291 H         1 GTP         0.4411
     45 H45         2.7941    3.5321   -0.8687 H         1 GTP         0.4819
     46 H46        -2.3945    3.8775   -0.2507 H         1 GTP         0.5182
@<TRIPOS>BOND
     1    1    2 2
     2    1    3 1
     3    1    4 1
     4    1    5 1
     5    4   33 1
     6    5    6 1
     7    6    7 2
     8    6    8 1
     9    6    9 1
    10    9   10 1
    11   10   11 2
    12   10   12 1
    13   10   13 1
    14   13   14 1
    15   14   15 1
    16   14   34 1
    17   14   35 1
    18   15   16 1
    19   15   17 1
    20   15   36 1
    21   16   21 1
    22   17   18 1
    23   17   19 1
    24   17   37 1
    25   18   38 1
    26   19   20 1
    27   19   21 1
    28   19   39 1
    29   20   40 1
    30   21   22 1
    31   21   41 1
    32   22   23 ar
    33   22   32 ar
    34   23   24 ar
    35   23   42 1
    36   24   25 ar
    37   24   46 1
    38   25   26 ar
    39   25   32 ar
    40   26   27 2
    41   26   28 ar
    42   28   29 ar
    43   29   30 1
    44   29   31 ar
    45   30   43 1
    46   30   44 1
    47   31   32 ar
    48   31   45 1
@<TRIPOS>SUBSTRUCTURE
     1 GTP         1 GROUP 0 A     ****
@<TRIPOS>MOLECULE
[[[5-(2-amino-6-oxo-7,8-dihydro-3~{H}-purin-8-ylium-9-yl)-3,4-dihydroxy-tetrahydrofuran-2-yl]methoxy-oxido-phosphoryl]oxy-oxido-phosphoryl] hydrogen phosphate
   46    48     1     0     0
SMALL
USER_CHARGES

@<TRIPOS>ATOM
      1 PG          6.5320   -3.8105   -5.2354 P.3       1 GTP         1.5447
      2 O1G         7.2392   -3.8895   -3.9008 O.co2     1 GTP        -0.8705
      3 O2G         6.0845   -5.0643   -5.9533 O.co2     1 GTP        -0.8705
      4 O3G         7.4498   -2.9277   -6.2572 O.3       1 GTP        -0.7914
      5 O3B         5.2618   -2.7942   -5.1041 O.3       1 GTP        -0.8116
      6 PB          5.2054   -1.2550   -4.5625 P.3       1 GTP         1.6738
      7 O1B         5.5480   -1.2466   -3.0894 O.co2     1 GTP        -0.8763
      8 O2B         5.9227   -0.3589   -5.5474 O.co2     1 GTP        -0.8763
      9 O3A         3.6096   -0.9687   -4.7528 O.3       1 GTP        -0.8005
     10 PA          2.7407    0.3769   -4.4297 P.3       1 GTP         1.5754
     11 O1A         3.3568    1.5435   -5.1712 O.co2     1 GTP        -0.8771
     12 O2A         1.2702    0.0493   -4.5704 O.co2     1 GTP        -0.8771
     13 O5'         3.0213    0.5153   -2.8245 O.3       1 GTP        -0.5809
     14 C5'         2.2816   -0.2918   -1.9206 C.3       1 GTP         0.1986
     15 C4'         2.7248    0.0226   -0.4980 C.3       1 GTP         0.0418
     16 O4'         2.4697    1.4219   -0.2462 O.3       1 GTP        -0.3505
     17 C3'         1.9404   -0.7419    0.5596 C.3       1 GTP         0.0909
     18 O3'         2.7418   -0.8086    1.7389 O.3       1 GTP        -0.6187
     19 C2'         0.7477    0.1630    0.7858 C.3       1 GTP         0.0706
     20 O2'         0.1373   -0.0577    2.0407 O.3       1 GTP        -0.6294
     21 C1'         1.3733    1.5427    0.6747 C.3       1 GTP         0.3895
     22 N9          0.4520    2.5240    0.1767 N.pl3     1 GTP        -0.4733
     23 C8         -0.2136    2.5096   -0.9739 C.ar      1 GTP         0.2958
     24 N7         -0.9896    3.5820   -1.1212 N.pl3     1 GTP        -0.4933
     25 C5         -0.7962    4.3186    0.0156 C.ar      1 GTP        -0.1494
     26 C6         -1.3875    5.6031    0.4192 C.ar      1 GTP         0.7954
     27 O6         -2.1869    6.1731   -0.3158 O.2       1 GTP        -0.5729
     28 N1         -0.9745    6.0930    1.6597 N.2       1 GTP        -0.7443
     29 C2         -0.1105    5.4166    2.3900 C.ar      1 GTP         0.8831
     30 N2          0.3241    5.8571    3.6138 N.pl3     1 GTP        -0.9204
     31 N3          0.4444    4.2053    2.0072 N.pl3     1 GTP        -0.7173
     32 C4          0.0746    3.6889    0.8098 C.ar      1 GTP         0.2626
     33 HOG3        7.1244   -2.7839   -7.1714 H         1 GTP         0.4102
     34 H5'         1.2163   -0.0770   -2.0471 H         1 GTP         0.0289
     35 H5''        2.4655   -1.3443   -2.1563 H         1 GTP         0.0289
     36 H4'         3.8044   -0.1397   -0.4040 H         1 GTP         0.2056
     37 H3'         1.6764   -1.7639    0.2728 H         1 GTP         0.1140
     38 HO3'        2.2232   -1.2979    2.3953 H         1 GTP         0.4287
     39 H2'        -0.0011    0.0027    0.0003 H         1 GTP         0.0809
     40 HO2'       -0.6141    0.5574    2.1082 H         1 GTP         0.4385
     41 H1'         1.7826    1.9024    1.6451 H         1 GTP         0.0794
     42 H8         -0.1415    1.7265   -1.7082 H         1 GTP         0.3821
     43 HN21       -0.0303    6.7197    3.9559 H         1 GTP         0.4411
     44 HN22        0.9765    5.2967    4.1108 H         1 GTP         0.4411
     45 H45         1.1068    3.6990    2.5819 H         1 GTP         0.4819
     46 H46        -1.5877    3.7943   -1.9074 H         1 GTP         0.5182
@<TRIPOS>BOND
     1    1    2 2
     2    1    3 1
     3    1    4 1
     4    1    5 1
     5    4   33 1
     6    5    6 1
     7    6    7 2
     8    6    8 1
     9    6    9 1
    10    9   10 1
    11   10   11 2
    12   10   12 1
    13   10   13 1
    14   13   14 1
    15   14   15 1
    16   14   34 1
    17   14   35 1
    18   15   16 1
    19   15   17 1
    20   15   36 1
    21   16   21 1
    22   17   18 1
    23   17   19 1
    24   17   37 1
    25   18   38 1
    26   19   20 1
    27   19   21 1
    28   19   39 1
    29   20   40 1
    30   21   22 1
    31   21   41 1
    32   22   23 ar
    33   22   32 ar
    34   23   24 ar
    35   23   42 1
    36   24   25 ar
    37   24   46 1
    38   25   26 ar
    39   25   32 ar
    40   26   27 2
    41   26   28 ar
    42   28   29 ar
    43   29   30 1
    44   29   31 ar
    45   30   43 1
    46   30   44 1
    47   31   32 ar
    48   31   45 1
@<TRIPOS>SUBSTRUCTURE
     1 GTP         1 GROUP 0 A     ****
@<TRIPOS>MOLECULE
[[[5-(2-amino-6-oxo-7,8-dihydro-3~{H}-purin-8-ylium-9-yl)-3,4-dihydroxy-tetrahydrofuran-2-yl]methoxy-oxido-phosphoryl]oxy-oxido-phosphoryl] hydrogen phosphate
   46    48     1     0     0
SMALL
USER_CHARGES

@<TRIPOS>ATOM
      1 PG          7.0744    0.2367   -3.7306 P.3       1 GTP         1.5447
      2 O1G         8.4373    0.5341   -4.3148 O.co2     1 GTP        -0.8705
      3 O2G         5.8211    0.8183   -4.3461 O.co2     1 GTP        -0.8705
      4 O3G         7.0965    0.6167   -2.1428 O.3       1 GTP        -0.7914
      5 O3B         6.8958   -1.3799   -3.5949 O.3       1 GTP        -0.8116
      6 PB          5.7003   -2.2452   -2.8964 P.3       1 GTP         1.6738
      7 O1B         5.9434   -3.7134   -3.1660 O.co2     1 GTP        -0.8763
      8 O2B         5.4689   -1.7252   -1.4952 O.co2     1 GTP        -0.8763
      9 O3A         4.4413   -1.7265   -3.7968 O.3       1 GTP        -0.8005
     10 PA          2.8603   -2.1317   -3.7189 P.3       1 GTP         1.5754
     11 O1A         2.0908   -1.2810   -4.7060 O.co2     1 GTP        -0.8771
     12 O2A         2.7458   -3.6405   -3.7305 O.co2     1 GTP        -0.8771
     13 O5'         2.5245   -1.6648   -2.1878 O.3       1 GTP        -0.5809
     14 C5'         2.2816   -0.2918   -1.9206 C.3       1 GTP         0.1986
     15 C4'         2.7248    0.0226   -0.4980 C.3       1 GTP         0.0418
     16 O4'         2.4697    1.4219   -0.2462 O.3       1 GTP        -0.3505
     17 C3'         1.9404   -0.7419    0.5596 C.3       1 GTP         0.0909
     18 O3'         2.7418   -0.8086    1.7389 O.3       1 GTP        -0.6187
     19 C2'         0.7477    0.1630    0.7858 C.3       1 GTP         0.0706
     20 O2'         0.1373   -0.0577    2.0407 O.3       1 GTP        -0.6294
     21 C1'         1.3733    1.5427    0.6747 C.3       1 GTP         0.3895
     22 N9          0.4520    2.5240    0.1767 N.pl3     1 GTP        -0.4733
     23 C8          0.2012    2.8401   -1.0899 C.ar      1 GTP         0.2958
     24 N7         -0.7168    3.7990   -1.1981 N.pl3     1 GTP        -0.4933
     25 C5         -1.0645    4.1043    0.0896 C.ar      1 GTP        -0.1494
     26 C6         -2.0336    5.0870    0.5973 C.ar      1 GTP         0.7954
     27 O6         -2.6730    5.7839   -0.1834 O.2       1 GTP        -0.5729
     28 N1         -2.1539    5.1517    1.9868 N.2       1 GTP        -0.7443
     29 C2         -1.4288    4.3650    2.7566 C.ar      1 GTP         0.8831
     30 N2         -1.5126    4.3922    4.1250 N.pl3     1 GTP        -0.9204
     31 N3         -0.5167    3.4388    2.2748 N.pl3     1 GTP        -0.7173
     32 C4         -0.3638    3.3392    0.9318 C.ar      1 GTP         0.2626
     33 HOG3        6.2790    0.4792   -1.6184 H         1 GTP         0.4102
     34 H5'         2.8432    0.3119   -2.6398 H         1 GTP         0.0289
     35 H5''        1.2128   -0.0927   -2.0428 H         1 GTP         0.0289
     36 H4'         3.8044   -0.1397   -0.4040 H         1 GTP         0.2056
     37 H3'         1.6764   -1.7639    0.2728 H         1 GTP         0.1140
     38 HO3'        3.5554   -1.2733    1.4914 H         1 GTP         0.4287
     39 H2'        -0.0011    0.0027    0.0003 H         1 GTP         0.0809
     40 HO2'        0.8082    0.1199    2.7232 H         1 GTP         0.4385
     41 H1'         1.7826    1.9024    1.6451 H         1 GTP         0.0794
     42 H8          0.6787    2.3803   -1.9373 H         1 GTP         0.3821
     43 HN21       -2.1462    5.0320    4.5446 H         1 GTP         0.4411
     44 HN22       -0.9365    3.7712    4.6440 H         1 GTP         0.4411
     45 H45         0.0318    2.8419    2.8816 H         1 GTP         0.4819
     46 H46        -1.0718    4.2049   -2.0526 H         1 GTP         0.5182
@<TRIPOS>BOND
     1    1    2 2
     2    1    3 1
     3    1    4 1
     4    1    5 1
     5    4   33 1
     6    5    6 1
     7    6    7 2
     8    6    8 1
     9    6    9 1
    10    9   10 1
    11   10   11 2
    12   10   12 1
    13   10   13 1
    14   13   14 1
    15   14   15 1
    16   14   34 1
    17   14   35 1
    18   15   16 1
    19   15   17 1
    20   15   36 1
    21   16   21 1
    22   17   18 1
    23   17   19 1
    24   17   37 1
    25   18   38 1
    26   19   20 1
    27   19   21 1
    28   19   39 1
    29   20   40 1
    30   21   22 1
    31   21   41 1
    32   22   23 ar
    33   22   32 ar
    34   23   24 ar
    35   23   42 1
    36   24   25 ar
    37   24   46 1
    38   25   26 ar
    39   25   32 ar
    40   26   27 2
    41   26   28 ar
    42   28   29 ar
    43   29   30 1
    44   29   31 ar
    45   30   43 1
    46   30   44 1
    47   31   32 ar
    48   31   45 1
@<TRIPOS>SUBSTRUCTURE
     1 GTP         1 GROUP 0 A     ****
@<TRIPOS>MOLECULE
[[[5-(2-amino-6-oxo-7,8-dihydro-3~{H}-purin-8-ylium-9-yl)-3,4-dihydroxy-tetrahydrofuran-2-yl]methoxy-oxido-phosphoryl]oxy-oxido-phosphoryl] hydrogen phosphate
   46    48     1     0     0
SMALL
USER_CHARGES

@<TRIPOS>ATOM
      1 PG          7.2237   -1.5316   -0.6506 P.3       1 GTP         1.5447
      2 O1G         6.2184   -0.4317   -0.3914 O.co2     1 GTP        -0.8705
      3 O2G         7.7011   -2.4281    0.4701 O.co2     1 GTP        -0.8705
      4 O3G         8.5285   -0.8793   -1.3842 O.3       1 GTP        -0.7914
      5 O3B         6.6885   -2.4615   -1.8804 O.3       1 GTP        -0.8116
      6 PB          6.2090   -2.0356   -3.3818 P.3       1 GTP         1.6738
      7 O1B         7.3110   -1.2295   -4.0323 O.co2     1 GTP        -0.8763
      8 O2B         5.5996   -3.2395   -4.0651 O.co2     1 GTP        -0.8763
      9 O3A         4.9693   -1.0482   -2.9906 O.3       1 GTP        -0.8005
     10 PA          3.9554   -0.2064   -3.9565 P.3       1 GTP         1.5754
     11 O1A         4.7549    0.8313   -4.7144 O.co2     1 GTP        -0.8771
     12 O2A         3.0547   -1.1827   -4.6813 O.co2     1 GTP        -0.8771
     13 O5'         3.0213    0.5153   -2.8245 O.3       1 GTP        -0.5809
     14 C5'         2.2816   -0.2918   -1.9206 C.3       1 GTP         0.1986
     15 C4'         2.7248    0.0226   -0.4980 C.3       1 GTP         0.0418
     16 O4'         2.4697    1.4219   -0.2462 O.3       1 GTP        -0.3505
     17 C3'         1.9404   -0.7419    0.5596 C.3       1 GTP         0.0909
     18 O3'         2.7418   -0.8086    1.7389 O.3       1 GTP        -0.6187
     19 C2'         0.7477    0.1630    0.7858 C.3       1 GTP         0.0706
     20 O2'         0.1373   -0.0577    2.0407 O.3       1 GTP        -0.6294
     21 C1'         1.3733    1.5427    0.6747 C.3       1 GTP         0.3895
     22 N9          0.4520    2.5240    0.1767 N.pl3     1 GTP        -0.4733
     23 C8          0.2012    2.8401   -1.0899 C.ar      1 GTP         0.2958
     24 N7         -0.7168    3.7990   -1.1981 N.pl3     1 GTP        -0.4933
     25 C5         -1.0645    4.1043    0.0896 C.ar      1 GTP        -0.1494
     26 C6         -2.0336    5.0870    0.5973 C.ar      1 GTP         0.7954
     27 O6         -2.6730    5.7839   -0.1834 O.2       1 GTP        -0.5729
     28 N1         -2.1539    5.1517    1.9868 N.2       1 GTP        -0.7443
     29 C2         -1.4288    4.3650    2.7566 C.ar      1 GTP         0.8831
     30 N2         -1.5126    4.3922    4.1250 N.pl3     1 GTP        -0.9204
     31 N3         -0.5167    3.4388    2.2748 N.pl3     1 GTP        -0.7173
     32 C4         -0.3638    3.3392    0.9318 C.ar      1 GTP         0.2626
     33 HOG3        9.2754   -1.4699   -1.6200 H         1 GTP         0.4102
     34 H5'         1.2163   -0.0770   -2.0471 H         1 GTP         0.0289
     35 H5''        2.4655   -1.3443   -2.1563 H         1 GTP         0.0289
     36 H4'         3.8044   -0.1397   -0.4040 H         1 GTP         0.2056
     37 H3'         1.6764   -1.7639    0.2728 H         1 GTP         0.1140
     38 HO3'        2.2232   -1.2979    2.3953 H         1 GTP         0.4287
     39 H2'        -0.0011    0.0027    0.0003 H         1 GTP         0.0809
     40 HO2'       -0.1563   -0.9855    2.0596 H         1 GTP         0.4385
     41 H1'         1.7826    1.9024    1.6451 H         1 GTP         0.0794
     42 H8          0.6787    2.3803   -1.9373 H         1 GTP         0.3821
     43 HN21       -2.1462    5.0320    4.5446 H         1 GTP         0.4411
     44 HN22       -0.9365    3.7712    4.6440 H         1 GTP         0.4411
     45 H45         0.0318    2.8419    2.8816 H         1 GTP         0.4819
     46 H46        -1.0718    4.2049   -2.0526 H         1 GTP         0.5182
@<TRIPOS>BOND
     1    1    2 2
     2    1    3 1
     3    1    4 1
     4    1    5 1
     5    4   33 1
     6    5    6 1
     7    6    7 2
     8    6    8 1
     9    6    9 1
    10    9   10 1
    11   10   11 2
    12   10   12 1
    13   10   13 1
    14   13   14 1
    15   14   15 1
    16   14   34 1
    17   14   35 1
    18   15   16 1
    19   15   17 1
    20   15   36 1
    21   16   21 1
    22   17   18 1
    23   17   19 1
    24   17   37 1
    25   18   38 1
    26   19   20 1
    27   19   21 1
    28   19   39 1
    29   20   40 1
    30   21   22 1
    31   21   41 1
    32   22   23 ar
    33   22   32 ar
    34   23   24 ar
    35   23   42 1
    36   24   25 ar
    37   24   46 1
    38   25   26 ar
    39   25   32 ar
    40   26   27 2
    41   26   28 ar
    42   28   29 ar
    43   29   30 1
    44   29   31 ar
    45   30   43 1
    46   30   44 1
    47   31   32 ar
    48   31   45 1
@<TRIPOS>SUBSTRUCTURE
     1 GTP         1 GROUP 0 A     ****
@<TRIPOS>MOLECULE
[[[5-(2-amino-6-oxo-7,8-dihydro-3~{H}-purin-8-ylium-9-yl)-3,4-dihydroxy-tetrahydrofuran-2-yl]methoxy-oxido-phosphoryl]oxy-oxido-phosphoryl] hydrogen phosphate
   46    48     1     0     0
SMALL
USER_CHARGES

@<TRIPOS>ATOM
      1 PG          0.9823   -3.6754   -7.2739 P.3       1 GTP         1.5447
      2 O1G         1.5968   -3.3876   -8.6256 O.co2     1 GTP        -0.8705
      3 O2G         1.1317   -5.0337   -6.6255 O.co2     1 GTP        -0.8705
      4 O3G        -0.6061   -3.3026   -7.3362 O.3       1 GTP        -0.7914
      5 O3B         1.4635   -2.5289   -6.2167 O.3       1 GTP        -0.8116
      6 PB          1.3751   -0.9023   -6.3258 P.3       1 GTP         1.6738
      7 O1B         2.2722   -0.4425   -7.4533 O.co2     1 GTP        -0.8763
      8 O2B        -0.0752   -0.4806   -6.2457 O.co2     1 GTP        -0.8763
      9 O3A         2.0523   -0.5065   -4.8941 O.3       1 GTP        -0.8005
     10 PA          2.3336    0.9636   -4.2390 P.3       1 GTP         1.5754
     11 O1A         3.3392    1.6960   -5.1008 O.co2     1 GTP        -0.8771
     12 O2A         1.0067    1.5946   -3.8772 O.co2     1 GTP        -0.8771
     13 O5'         3.0213    0.5153   -2.8245 O.3       1 GTP        -0.5809
     14 C5'         2.2816   -0.2918   -1.9206 C.3       1 GTP         0.1986
     15 C4'         2.7248    0.0226   -0.4980 C.3       1 GTP         0.0418
     16 O4'         2.4697    1.4219   -0.2462 O.3       1 GTP        -0.3505
     17 C3'         1.9404   -0.7419    0.5596 C.3       1 GTP         0.0909
     18 O3'         2.7418   -0.8086    1.7389 O.3       1 GTP        -0.6187
     19 C2'         0.7477    0.1630    0.7858 C.3       1 GTP         0.0706
     20 O2'         0.1373   -0.0577    2.0407 O.3       1 GTP        -0.6294
     21 C1'         1.3733    1.5427    0.6747 C.3       1 GTP         0.3895
     22 N9          0.4520    2.5240    0.1767 N.pl3     1 GTP        -0.4733
     23 C8          0.5427    3.2356   -0.9425 C.ar      1 GTP         0.2958
     24 N7         -0.4919    4.0590   -1.1018 N.pl3     1 GTP        -0.4933
     25 C5         -1.2850    3.8484   -0.0069 C.ar      1 GTP        -0.1494
     26 C6         -2.5644    4.4707    0.3650 C.ar      1 GTP         0.7954
     27 O6         -3.0718    5.3200   -0.3599 O.2       1 GTP        -0.5729
     28 N1         -3.1239    4.0269    1.5647 N.2       1 GTP        -0.7443
     29 C2         -2.5133    3.1079    2.2858 C.ar      1 GTP         0.8831
     30 N2         -3.0239    2.6409    3.4697 N.pl3     1 GTP        -0.9204
     31 N3         -1.3076    2.5223    1.9320 N.pl3     1 GTP        -0.7173
     32 C4         -0.7246    2.9211    0.7753 C.ar      1 GTP         0.2626
     33 HOG3       -1.1487   -3.4351   -6.5298 H         1 GTP         0.4102
     34 H5'         1.2163   -0.0770   -2.0471 H         1 GTP         0.0289
     35 H5''        2.4655   -1.3443   -2.1563 H         1 GTP         0.0289
     36 H4'         3.8044   -0.1397   -0.4040 H         1 GTP         0.2056
     37 H3'         1.6764   -1.7639    0.2728 H         1 GTP         0.1140
     38 HO3'        2.2232   -1.2979    2.3953 H         1 GTP         0.4287
     39 H2'        -0.0011    0.0027    0.0003 H         1 GTP         0.0809
     40 HO2'       -0.1563   -0.9855    2.0596 H         1 GTP         0.4385
     41 H1'         1.7826    1.9024    1.6451 H         1 GTP         0.0794
     42 H8          1.3539    3.1622   -1.6455 H         1 GTP         0.3821
     43 HN21       -3.8871    3.0143    3.7893 H         1 GTP         0.4411
     44 HN22       -2.5108    1.9472    3.9621 H         1 GTP         0.4411
     45 H45        -0.8530    1.8168    2.4986 H         1 GTP         0.4819
     46 H46        -0.6466    4.6966   -1.8702 H         1 GTP         0.5182
@<TRIPOS>BOND
     1    1    2 2
     2    1    3 1
     3    1    4 1
     4    1    5 1
     5    4   33 1
     6    5    6 1
     7    6    7 2
     8    6    8 1
     9    6    9 1
    10    9   10 1
    11   10   11 2
    12   10   12 1
    13   10   13 1
    14   13   14 1
    15   14   15 1
    16   14   34 1
    17   14   35 1
    18   15   16 1
    19   15   17 1
    20   15   36 1
    21   16   21 1
    22   17   18 1
    23   17   19 1
    24   17   37 1
    25   18   38 1
    26   19   20 1
    27   19   21 1
    28   19   39 1
    29   20   40 1
    30   21   22 1
    31   21   41 1
    32   22   23 ar
    33   22   32 ar
    34   23   24 ar
    35   23   42 1
    36   24   25 ar
    37   24   46 1
    38   25   26 ar
    39   25   32 ar
    40   26   27 2
    41   26   28 ar
    42   28   29 ar
    43   29   30 1
    44   29   31 ar
    45   30   43 1
    46   30   44 1
    47   31   32 ar
    48   31   45 1
@<TRIPOS>SUBSTRUCTURE
     1 GTP         1 GROUP 0 A     ****
@<TRIPOS>MOLECULE
[[[5-(2-amino-6-oxo-7,8-dihydro-3~{H}-purin-8-ylium-9-yl)-3,4-dihydroxy-tetrahydrofuran-2-yl]methoxy-oxido-phosphoryl]oxy-oxido-phosphoryl] hydrogen phosphate
   46    48     1     0     0
SMALL
USER_CHARGES

@<TRIPOS>ATOM
      1 PG          0.2589   -0.8097   -6.7388 P.3       1 GTP         1.5447
      2 O1G        -0.5083    0.3888   -7.2511 O.co2     1 GTP        -0.8705
      3 O2G         0.0113   -2.1906   -7.3040 O.co2     1 GTP        -0.8705
      4 O3G         0.0933   -0.8765   -5.1158 O.3       1 GTP        -0.7914
      5 O3B         1.8572   -0.4875   -6.8105 O.3       1 GTP        -0.8116
      6 PB          3.1246   -1.3523   -6.2524 P.3       1 GTP         1.6738
      7 O1B         3.0438   -2.7521   -6.8196 O.co2     1 GTP        -0.8763
      8 O2B         4.3816   -0.5201   -6.3742 O.co2     1 GTP        -0.8763
      9 O3A         2.7418   -1.3839   -4.6658 O.3       1 GTP        -0.8005
     10 PA          3.5300   -2.0730   -3.4114 P.3       1 GTP         1.5754
     11 O1A         3.5355   -3.5739   -3.6057 O.co2     1 GTP        -0.8771
     12 O2A         4.8145   -1.3109   -3.1689 O.co2     1 GTP        -0.8771
     13 O5'         2.5245   -1.6648   -2.1878 O.3       1 GTP        -0.5809
     14 C5'         2.2816   -0.2918   -1.9206 C.3       1 GTP         0.1986
     15 C4'         2.7248    0.0226   -0.4980 C.3       1 GTP         0.0418
     16 O4'         2.4697    1.4219   -0.2462 O.3       1 GTP        -0.3505
     17 C3'         1.9404   -0.7419    0.5596 C.3       1 GTP         0.0909
     18 O3'         2.7418   -0.8086    1.7389 O.3       1 GTP        -0.6187
     19 C2'         0.7477    0.1630    0.7858 C.3       1 GTP         0.0706
     20 O2'         0.1373   -0.0577    2.0407 O.3       1 GTP        -0.6294
     21 C1'         1.3733    1.5427    0.6747 C.3       1 GTP         0.3895
     22 N9          0.4520    2.5240    0.1767 N.pl3     1 GTP        -0.4733
     23 C8          0.2012    2.8401   -1.0899 C.ar      1 GTP         0.2958
     24 N7         -0.7168    3.7990   -1.1981 N.pl3     1 GTP        -0.4933
     25 C5         -1.0645    4.1043    0.0896 C.ar      1 GTP        -0.1494
     26 C6         -2.0336    5.0870    0.5973 C.ar      1 GTP         0.7954
     27 O6         -2.6730    5.7839   -0.1834 O.2       1 GTP        -0.5729
     28 N1         -2.1539    5.1517    1.9868 N.2       1 GTP        -0.7443
     29 C2         -1.4288    4.3650    2.7566 C.ar      1 GTP         0.8831
     30 N2         -1.5126    4.3922    4.1250 N.pl3     1 GTP        -0.9204
     31 N3         -0.5167    3.4388    2.2748 N.pl3     1 GTP        -0.7173
     32 C4         -0.3638    3.3392    0.9318 C.ar      1 GTP         0.2626
     33 HOG3        0.5367   -1.6048   -4.6308 H         1 GTP         0.4102
     34 H5'         2.8432    0.3119   -2.6398 H         1 GTP         0.0289
     35 H5''        1.2128   -0.0927   -2.0428 H         1 GTP         0.0289
     36 H4'         3.8044   -0.1397   -0.4040 H         1 GTP         0.2056
     37 H3'         1.6764   -1.7639    0.2728 H         1 GTP         0.1140
     38 HO3'        2.2232   -1.2979    2.3953 H         1 GTP         0.4287
     39 H2'        -0.0011    0.0027    0.0003 H         1 GTP         0.0809
     40 HO2'       -0.6141    0.5574    2.1082 H         1 GTP         0.4385
     41 H1'         1.7826    1.9024    1.6451 H         1 GTP         0.0794
     42 H8          0.6787    2.3803   -1.9373 H         1 GTP         0.3821
     43 HN21       -2.1462    5.0320    4.5446 H         1 GTP         0.4411
     44 HN22       -0.9365    3.7712    4.6440 H         1 GTP         0.4411
     45 H45         0.0318    2.8419    2.8816 H         1 GTP         0.4819
     46 H46        -1.0718    4.2049   -2.0526 H         1 GTP         0.5182
@<TRIPOS>BOND
     1    1    2 2
     2    1    3 1
     3    1    4 1
     4    1    5 1
     5    4   33 1
     6    5    6 1
     7    6    7 2
     8    6    8 1
     9    6    9 1
    10    9   10 1
    11   10   11 2
    12   10   12 1
    13   10   13 1
    14   13   14 1
    15   14   15 1
    16   14   34 1
    17   14   35 1
    18   15   16 1
    19   15   17 1
    20   15   36 1
    21   16   21 1
    22   17   18 1
    23   17   19 1
    24   17   37 1
    25   18   38 1
    26   19   20 1
    27   19   21 1
    28   19   39 1
    29   20   40 1
    30   21   22 1
    31   21   41 1
    32   22   23 ar
    33   22   32 ar
    34   23   24 ar
    35   23   42 1
    36   24   25 ar
    37   24   46 1
    38   25   26 ar
    39   25   32 ar
    40   26   27 2
    41   26   28 ar
    42   28   29 ar
    43   29   30 1
    44   29   31 ar
    45   30   43 1
    46   30   44 1
    47   31   32 ar
    48   31   45 1
@<TRIPOS>SUBSTRUCTURE
     1 GTP         1 GROUP 0 A     ****
@<TRIPOS>MOLECULE
[[[5-(2-amino-6-oxo-7,8-dihydro-3~{H}-purin-8-ylium-9-yl)-3,4-dihydroxy-tetrahydrofuran-2-yl]methoxy-oxido-phosphoryl]oxy-oxido-phosphoryl] hydrogen phosphate
   46    48     1     0     0
SMALL
USER_CHARGES

@<TRIPOS>ATOM
      1 PG          4.8749   -3.3743   -6.6316 P.3       1 GTP         1.5447
      2 O1G         4.8706   -4.8857   -6.5765 O.co2     1 GTP        -0.8705
      3 O2G         4.9571   -2.6450   -7.9542 O.co2     1 GTP        -0.8705
      4 O3G         6.0664   -2.8232   -5.6608 O.3       1 GTP        -0.7914
      5 O3B         3.5932   -2.8085   -5.7944 O.3       1 GTP        -0.8116
      6 PB          3.1956   -1.2747   -5.4007 P.3       1 GTP         1.6738
      7 O1B         4.2386   -0.7326   -4.4490 O.co2     1 GTP        -0.8763
      8 O2B         2.8057   -0.5282   -6.6569 O.co2     1 GTP        -0.8763
      9 O3A         1.8113   -1.5642   -4.5853 O.3       1 GTP        -0.8005
     10 PA          1.5544   -2.4558   -3.2404 P.3       1 GTP         1.5754
     11 O1A         0.1056   -2.3088   -2.8286 O.co2     1 GTP        -0.8771
     12 O2A         2.1769   -3.8208   -3.4380 O.co2     1 GTP        -0.8771
     13 O5'         2.5245   -1.6648   -2.1878 O.3       1 GTP        -0.5809
     14 C5'         2.2816   -0.2918   -1.9206 C.3       1 GTP         0.1986
     15 C4'         2.7248    0.0226   -0.4980 C.3       1 GTP         0.0418
     16 O4'         2.4697    1.4219   -0.2462 O.3       1 GTP        -0.3505
     17 C3'         1.9404   -0.7419    0.5596 C.3       1 GTP         0.0909
     18 O3'         2.7418   -0.8086    1.7389 O.3       1 GTP        -0.6187
     19 C2'         0.7477    0.1630    0.7858 C.3       1 GTP         0.0706
     20 O2'         0.1373   -0.0577    2.0407 O.3       1 GTP        -0.6294
     21 C1'         1.3733    1.5427    0.6747 C.3       1 GTP         0.3895
     22 N9          0.4520    2.5240    0.1767 N.pl3     1 GTP        -0.4733
     23 C8          0.2012    2.8401   -1.0899 C.ar      1 GTP         0.2958
     24 N7         -0.7168    3.7990   -1.1981 N.pl3     1 GTP        -0.4933
     25 C5         -1.0645    4.1043    0.0896 C.ar      1 GTP        -0.1494
     26 C6         -2.0336    5.0870    0.5973 C.ar      1 GTP         0.7954
     27 O6         -2.6730    5.7839   -0.1834 O.2       1 GTP        -0.5729
     28 N1         -2.1539    5.1517    1.9868 N.2       1 GTP        -0.7443
     29 C2         -1.4288    4.3650    2.7566 C.ar      1 GTP         0.8831
     30 N2         -1.5126    4.3922    4.1250 N.pl3     1 GTP        -0.9204
     31 N3         -0.5167    3.4388    2.2748 N.pl3     1 GTP        -0.7173
     32 C4         -0.3638    3.3392    0.9318 C.ar      1 GTP         0.2626
     33 HOG3        6.1988   -1.8539   -5.5883 H         1 GTP         0.4102
     34 H5'         2.8432    0.3119   -2.6398 H         1 GTP         0.0289
     35 H5''        1.2128   -0.0927   -2.0428 H         1 GTP         0.0289
     36 H4'         3.8044   -0.1397   -0.4040 H         1 GTP         0.2056
     37 H3'         1.6764   -1.7639    0.2728 H         1 GTP         0.1140
     38 HO3'        3.5554   -1.2733    1.4914 H         1 GTP         0.4287
     39 H2'        -0.0011    0.0027    0.0003 H         1 GTP         0.0809
     40 HO2'       -0.1563   -0.9855    2.0596 H         1 GTP         0.4385
     41 H1'         1.7826    1.9024    1.6451 H         1 GTP         0.0794
     42 H8          0.6787    2.3803   -1.9373 H         1 GTP         0.3821
     43 HN21       -2.1462    5.0320    4.5446 H         1 GTP         0.4411
     44 HN22       -0.9365    3.7712    4.6440 H         1 GTP         0.4411
     45 H45         0.0318    2.8419    2.8816 H         1 GTP         0.4819
     46 H46        -1.0718    4.2049   -2.0526 H         1 GTP         0.5182
@<TRIPOS>BOND
     1    1    2 2
     2    1    3 1
     3    1    4 1
     4    1    5 1
     5    4   33 1
     6    5    6 1
     7    6    7 2
     8    6    8 1
     9    6    9 1
    10    9   10 1
    11   10   11 2
    12   10   12 1
    13   10   13 1
    14   13   14 1
    15   14   15 1
    16   14   34 1
    17   14   35 1
    18   15   16 1
    19   15   17 1
    20   15   36 1
    21   16   21 1
    22   17   18 1
    23   17   19 1
    24   17   37 1
    25   18   38 1
    26   19   20 1
    27   19   21 1
    28   19   39 1
    29   20   40 1
    30   21   22 1
    31   21   41 1
    32   22   23 ar
    33   22   32 ar
    34   23   24 ar
    35   23   42 1
    36   24   25 ar
    37   24   46 1
    38   25   26 ar
    39   25   32 ar
    40   26   27 2
    41   26   28 ar
    42   28   29 ar
    43   29   30 1
    44   29   31 ar
    45   30   43 1
    46   30   44 1
    47   31   32 ar
    48   31   45 1
@<TRIPOS>SUBSTRUCTURE
     1 GTP         1 GROUP 0 A     ****
@<TRIPOS>MOLECULE
[[[5-(2-amino-6-oxo-7,8-dihydro-3~{H}-purin-8-ylium-9-yl)-3,4-dihydroxy-tetrahydrofuran-2-yl]methoxy-oxido-phosphoryl]oxy-oxido-phosphoryl] hydrogen phosphate
   46    48     1     0     0
SMALL
USER_CHARGES

@<TRIPOS>ATOM
      1 PG          4.6292   -4.4941   -6.0851 P.3       1 GTP         1.5447
      2 O1G         5.6466   -5.0833   -5.1336 O.co2     1 GTP        -0.8705
      3 O2G         3.5120   -5.3422   -6.6511 O.co2     1 GTP        -0.8705
      4 O3G         5.4251   -3.7904   -7.3249 O.3       1 GTP        -0.7914
      5 O3B         3.9865   -3.1534   -5.4119 O.3       1 GTP        -0.8116
      6 PB          2.9657   -2.0498   -6.0488 P.3       1 GTP         1.6738
      7 O1B         3.6759   -1.3214   -7.1680 O.co2     1 GTP        -0.8763
      8 O2B         1.6119   -2.6916   -6.2556 O.co2     1 GTP        -0.8763
      9 O3A         2.8162   -1.0576   -4.7611 O.3       1 GTP        -0.8005
     10 PA          3.9554   -0.2064   -3.9565 P.3       1 GTP         1.5754
     11 O1A         4.9156   -1.1760   -3.3022 O.co2     1 GTP        -0.8771
     12 O2A         4.4556    0.9034   -4.8553 O.co2     1 GTP        -0.8771
     13 O5'         3.0213    0.5153   -2.8245 O.3       1 GTP        -0.5809
     14 C5'         2.2816   -0.2918   -1.9206 C.3       1 GTP         0.1986
     15 C4'         2.7248    0.0226   -0.4980 C.3       1 GTP         0.0418
     16 O4'         2.4697    1.4219   -0.2462 O.3       1 GTP        -0.3505
     17 C3'         1.9404   -0.7419    0.5596 C.3       1 GTP         0.0909
     18 O3'         2.7418   -0.8086    1.7389 O.3       1 GTP        -0.6187
     19 C2'         0.7477    0.1630    0.7858 C.3       1 GTP         0.0706
     20 O2'         0.1373   -0.0577    2.0407 O.3       1 GTP        -0.6294
     21 C1'         1.3733    1.5427    0.6747 C.3       1 GTP         0.3895
     22 N9          0.4520    2.5240    0.1767 N.pl3     1 GTP        -0.4733
     23 C8         -0.2136    2.5096   -0.9739 C.ar      1 GTP         0.2958
     24 N7         -0.9896    3.5820   -1.1212 N.pl3     1 GTP        -0.4933
     25 C5         -0.7962    4.3186    0.0156 C.ar      1 GTP        -0.1494
     26 C6         -1.3875    5.6031    0.4192 C.ar      1 GTP         0.7954
     27 O6         -2.1869    6.1731   -0.3158 O.2       1 GTP        -0.5729
     28 N1         -0.9745    6.0930    1.6597 N.2       1 GTP        -0.7443
     29 C2         -0.1105    5.4166    2.3900 C.ar      1 GTP         0.8831
     30 N2          0.3241    5.8571    3.6138 N.pl3     1 GTP        -0.9204
     31 N3          0.4444    4.2053    2.0072 N.pl3     1 GTP        -0.7173
     32 C4          0.0746    3.6889    0.8098 C.ar      1 GTP         0.2626
     33 HOG3        4.8998   -3.3593   -8.0323 H         1 GTP         0.4102
     34 H5'         1.2163   -0.0770   -2.0471 H         1 GTP         0.0289
     35 H5''        2.4655   -1.3443   -2.1563 H         1 GTP         0.0289
     36 H4'         3.8044   -0.1397   -0.4040 H         1 GTP         0.2056
     37 H3'         1.6764   -1.7639    0.2728 H         1 GTP         0.1140
     38 HO3'        2.2232   -1.2979    2.3953 H         1 GTP         0.4287
     39 H2'        -0.0011    0.0027    0.0003 H         1 GTP         0.0809
     40 HO2'       -0.6141    0.5574    2.1082 H         1 GTP         0.4385
     41 H1'         1.7826    1.9024    1.6451 H         1 GTP         0.0794
     42 H8         -0.1415    1.7265   -1.7082 H         1 GTP         0.3821
     43 HN21       -0.0303    6.7197    3.9559 H         1 GTP         0.4411
     44 HN22        0.9765    5.2967    4.1108 H         1 GTP         0.4411
     45 H45         1.1068    3.6990    2.5819 H         1 GTP         0.4819
     46 H46        -1.5877    3.7943   -1.9074 H         1 GTP         0.5182
@<TRIPOS>BOND
     1    1    2 2
     2    1    3 1
     3    1    4 1
     4    1    5 1
     5    4   33 1
     6    5    6 1
     7    6    7 2
     8    6    8 1
     9    6    9 1
    10    9   10 1
    11   10   11 2
    12   10   12 1
    13   10   13 1
    14   13   14 1
    15   14   15 1
    16   14   34 1
    17   14   35 1
    18   15   16 1
    19   15   17 1
    20   15   36 1
    21   16   21 1
    22   17   18 1
    23   17   19 1
    24   17   37 1
    25   18   38 1
    26   19   20 1
    27   19   21 1
    28   19   39 1
    29   20   40 1
    30   21   22 1
    31   21   41 1
    32   22   23 ar
    33   22   32 ar
    34   23   24 ar
    35   23   42 1
    36   24   25 ar
    37   24   46 1
    38   25   26 ar
    39   25   32 ar
    40   26   27 2
    41   26   28 ar
    42   28   29 ar
    43   29   30 1
    44   29   31 ar
    45   30   43 1
    46   30   44 1
    47   31   32 ar
    48   31   45 1
@<TRIPOS>SUBSTRUCTURE
     1 GTP         1 GROUP 0 A     ****
@<TRIPOS>MOLECULE
[[[5-(2-amino-6-oxo-7,8-dihydro-3~{H}-purin-8-ylium-9-yl)-3,4-dihydroxy-tetrahydrofuran-2-yl]methoxy-oxido-phosphoryl]oxy-oxido-phosphoryl] hydrogen phosphate
   46    48     1     0     0
SMALL
USER_CHARGES

@<TRIPOS>ATOM
      1 PG          3.8003   -4.8483   -4.0436 P.3       1 GTP         1.5447
      2 O1G         4.2545   -3.8760   -2.9779 O.co2     1 GTP        -0.8705
      3 O2G         3.3449   -6.2439   -3.6794 O.co2     1 GTP        -0.8705
      4 O3G         4.9729   -4.9640   -5.1739 O.3       1 GTP        -0.7914
      5 O3B         2.6484   -4.1371   -4.9553 O.3       1 GTP        -0.8116
      6 PB          2.6728   -2.7073   -5.7432 P.3       1 GTP         1.6738
      7 O1B         3.8808   -2.6756   -6.6529 O.co2     1 GTP        -0.8763
      8 O2B         1.2840   -2.4054   -6.2605 O.co2     1 GTP        -0.8763
      9 O3A         2.9205   -1.7124   -4.4729 O.3       1 GTP        -0.8005
     10 PA          3.0675   -0.0857   -4.4293 P.3       1 GTP         1.5754
     11 O1A         4.3144    0.3107   -5.1899 O.co2     1 GTP        -0.8771
     12 O2A         1.7243    0.5309   -4.7535 O.co2     1 GTP        -0.8771
     13 O5'         3.2903    0.1346   -2.8241 O.3       1 GTP        -0.5809
     14 C5'         2.2816   -0.2918   -1.9206 C.3       1 GTP         0.1986
     15 C4'         2.7248    0.0226   -0.4980 C.3       1 GTP         0.0418
     16 O4'         2.4697    1.4219   -0.2462 O.3       1 GTP        -0.3505
     17 C3'         1.9404   -0.7419    0.5596 C.3       1 GTP         0.0909
     18 O3'         2.7418   -0.8086    1.7389 O.3       1 GTP        -0.6187
     19 C2'         0.7477    0.1630    0.7858 C.3       1 GTP         0.0706
     20 O2'         0.1373   -0.0577    2.0407 O.3       1 GTP        -0.6294
     21 C1'         1.3733    1.5427    0.6747 C.3       1 GTP         0.3895
     22 N9          0.4520    2.5240    0.1767 N.pl3     1 GTP        -0.4733
     23 C8          0.5427    3.2356   -0.9425 C.ar      1 GTP         0.2958
     24 N7         -0.4919    4.0590   -1.1018 N.pl3     1 GTP        -0.4933
     25 C5         -1.2850    3.8484   -0.0069 C.ar      1 GTP        -0.1494
     26 C6         -2.5644    4.4707    0.3650 C.ar      1 GTP         0.7954
     27 O6         -3.0718    5.3200   -0.3599 O.2       1 GTP        -0.5729
     28 N1         -3.1239    4.0269    1.5647 N.2       1 GTP        -0.7443
     29 C2         -2.5133    3.1079    2.2858 C.ar      1 GTP         0.8831
     30 N2         -3.0239    2.6409    3.4697 N.pl3     1 GTP        -0.9204
     31 N3         -1.3076    2.5223    1.9320 N.pl3     1 GTP        -0.7173
     32 C4         -0.7246    2.9211    0.7753 C.ar      1 GTP         0.2626
     33 HOG3        4.8274   -5.5615   -5.9381 H         1 GTP         0.4102
     34 H5'         1.3514    0.2330   -2.1577 H         1 GTP         0.0289
     35 H5''        2.1280   -1.3678   -2.0460 H         1 GTP         0.0289
     36 H4'         3.8044   -0.1397   -0.4040 H         1 GTP         0.2056
     37 H3'         1.6764   -1.7639    0.2728 H         1 GTP         0.1140
     38 HO3'        2.2232   -1.2979    2.3953 H         1 GTP         0.4287
     39 H2'        -0.0011    0.0027    0.0003 H         1 GTP         0.0809
     40 HO2'       -0.1563   -0.9855    2.0596 H         1 GTP         0.4385
     41 H1'         1.7826    1.9024    1.6451 H         1 GTP         0.0794
     42 H8          1.3539    3.1622   -1.6455 H         1 GTP         0.3821
     43 HN21       -3.8871    3.0143    3.7893 H         1 GTP         0.4411
     44 HN22       -2.5108    1.9472    3.9621 H         1 GTP         0.4411
     45 H45        -0.8530    1.8168    2.4986 H         1 GTP         0.4819
     46 H46        -0.6466    4.6966   -1.8702 H         1 GTP         0.5182
@<TRIPOS>BOND
     1    1    2 2
     2    1    3 1
     3    1    4 1
     4    1    5 1
     5    4   33 1
     6    5    6 1
     7    6    7 2
     8    6    8 1
     9    6    9 1
    10    9   10 1
    11   10   11 2
    12   10   12 1
    13   10   13 1
    14   13   14 1
    15   14   15 1
    16   14   34 1
    17   14   35 1
    18   15   16 1
    19   15   17 1
    20   15   36 1
    21   16   21 1
    22   17   18 1
    23   17   19 1
    24   17   37 1
    25   18   38 1
    26   19   20 1
    27   19   21 1
    28   19   39 1
    29   20   40 1
    30   21   22 1
    31   21   41 1
    32   22   23 ar
    33   22   32 ar
    34   23   24 ar
    35   23   42 1
    36   24   25 ar
    37   24   46 1
    38   25   26 ar
    39   25   32 ar
    40   26   27 2
    41   26   28 ar
    42   28   29 ar
    43   29   30 1
    44   29   31 ar
    45   30   43 1
    46   30   44 1
    47   31   32 ar
    48   31   45 1
@<TRIPOS>SUBSTRUCTURE
     1 GTP         1 GROUP 0 A     ****
@<TRIPOS>MOLECULE
[[[5-(2-amino-6-oxo-7,8-dihydro-3~{H}-purin-8-ylium-9-yl)-3,4-dihydroxy-tetrahydrofuran-2-yl]methoxy-oxido-phosphoryl]oxy-oxido-phosphoryl] hydrogen phosphate
   46    48     1     0     0
SMALL
USER_CHARGES

@<TRIPOS>ATOM
      1 PG          1.8305    0.0467   -8.3608 P.3       1 GTP         1.5447
      2 O1G         0.3752    0.2567   -8.7149 O.co2     1 GTP        -0.8705
      3 O2G         2.8491    1.1438   -8.5766 O.co2     1 GTP        -0.8705
      4 O3G         2.3571   -1.3045   -9.1111 O.3       1 GTP        -0.7914
      5 O3B         1.9319   -0.4730   -6.8170 O.3       1 GTP        -0.8116
      6 PB          1.1870   -1.7278   -6.0847 P.3       1 GTP         1.6738
      7 O1B        -0.2998   -1.4531   -6.0457 O.co2     1 GTP        -0.8763
      8 O2B         1.7388   -3.0217   -6.6406 O.co2     1 GTP        -0.8763
      9 O3A         1.8113   -1.5642   -4.5853 O.3       1 GTP        -0.8005
     10 PA          1.5544   -2.4558   -3.2404 P.3       1 GTP         1.5754
     11 O1A         0.1056   -2.3088   -2.8286 O.co2     1 GTP        -0.8771
     12 O2A         2.1769   -3.8208   -3.4380 O.co2     1 GTP        -0.8771
     13 O5'         2.5245   -1.6648   -2.1878 O.3       1 GTP        -0.5809
     14 C5'         2.2816   -0.2918   -1.9206 C.3       1 GTP         0.1986
     15 C4'         2.7248    0.0226   -0.4980 C.3       1 GTP         0.0418
     16 O4'         2.4697    1.4219   -0.2462 O.3       1 GTP        -0.3505
     17 C3'         1.9404   -0.7419    0.5596 C.3       1 GTP         0.0909
     18 O3'         2.7418   -0.8086    1.7389 O.3       1 GTP        -0.6187
     19 C2'         0.7477    0.1630    0.7858 C.3       1 GTP         0.0706
     20 O2'         0.1373   -0.0577    2.0407 O.3       1 GTP        -0.6294
     21 C1'         1.3733    1.5427    0.6747 C.3       1 GTP         0.3895
     22 N9          0.4520    2.5240    0.1767 N.pl3     1 GTP        -0.4733
     23 C8          0.5427    3.2356   -0.9425 C.ar      1 GTP         0.2958
     24 N7         -0.4919    4.0590   -1.1018 N.pl3     1 GTP        -0.4933
     25 C5         -1.2850    3.8484   -0.0069 C.ar      1 GTP        -0.1494
     26 C6         -2.5644    4.4707    0.3650 C.ar      1 GTP         0.7954
     27 O6         -3.0718    5.3200   -0.3599 O.2       1 GTP        -0.5729
     28 N1         -3.1239    4.0269    1.5647 N.2       1 GTP        -0.7443
     29 C2         -2.5133    3.1079    2.2858 C.ar      1 GTP         0.8831
     30 N2         -3.0239    2.6409    3.4697 N.pl3     1 GTP        -0.9204
     31 N3         -1.3076    2.5223    1.9320 N.pl3     1 GTP        -0.7173
     32 C4         -0.7246    2.9211    0.7753 C.ar      1 GTP         0.2626
     33 HOG3        3.2899   -1.5780   -8.9798 H         1 GTP         0.4102
     34 H5'         2.8432    0.3119   -2.6398 H         1 GTP         0.0289
     35 H5''        1.2128   -0.0927   -2.0428 H         1 GTP         0.0289
     36 H4'         3.8044   -0.1397   -0.4040 H         1 GTP         0.2056
     37 H3'         1.6764   -1.7639    0.2728 H         1 GTP         0.1140
     38 HO3'        2.2232   -1.2979    2.3953 H         1 GTP         0.4287
     39 H2'        -0.0011    0.0027    0.0003 H         1 GTP         0.0809
     40 HO2'       -0.1563   -0.9855    2.0596 H         1 GTP         0.4385
     41 H1'         1.7826    1.9024    1.6451 H         1 GTP         0.0794
     42 H8          1.3539    3.1622   -1.6455 H         1 GTP         0.3821
     43 HN21       -3.8871    3.0143    3.7893 H         1 GTP         0.4411
     44 HN22       -2.5108    1.9472    3.9621 H         1 GTP         0.4411
     45 H45        -0.8530    1.8168    2.4986 H         1 GTP         0.4819
     46 H46        -0.6466    4.6966   -1.8702 H         1 GTP         0.5182
@<TRIPOS>BOND
     1    1    2 2
     2    1    3 1
     3    1    4 1
     4    1    5 1
     5    4   33 1
     6    5    6 1
     7    6    7 2
     8    6    8 1
     9    6    9 1
    10    9   10 1
    11   10   11 2
    12   10   12 1
    13   10   13 1
    14   13   14 1
    15   14   15 1
    16   14   34 1
    17   14   35 1
    18   15   16 1
    19   15   17 1
    20   15   36 1
    21   16   21 1
    22   17   18 1
    23   17   19 1
    24   17   37 1
    25   18   38 1
    26   19   20 1
    27   19   21 1
    28   19   39 1
    29   20   40 1
    30   21   22 1
    31   21   41 1
    32   22   23 ar
    33   22   32 ar
    34   23   24 ar
    35   23   42 1
    36   24   25 ar
    37   24   46 1
    38   25   26 ar
    39   25   32 ar
    40   26   27 2
    41   26   28 ar
    42   28   29 ar
    43   29   30 1
    44   29   31 ar
    45   30   43 1
    46   30   44 1
    47   31   32 ar
    48   31   45 1
@<TRIPOS>SUBSTRUCTURE
     1 GTP         1 GROUP 0 A     ****
@<TRIPOS>MOLECULE
[[[5-(2-amino-6-oxo-7,8-dihydro-3~{H}-purin-8-ylium-9-yl)-3,4-dihydroxy-tetrahydrofuran-2-yl]methoxy-oxido-phosphoryl]oxy-oxido-phosphoryl] hydrogen phosphate
   46    48     1     0     0
SMALL
USER_CHARGES

@<TRIPOS>ATOM
      1 PG          5.3331   -1.3521   -7.1646 P.3       1 GTP         1.5447
      2 O1G         3.8405   -1.3009   -7.4030 O.co2     1 GTP        -0.8705
      3 O2G         6.2710   -0.4264   -7.9069 O.co2     1 GTP        -0.8705
      4 O3G         5.8408   -2.8885   -7.3827 O.3       1 GTP        -0.7914
      5 O3B         5.6199   -1.2226   -5.5631 O.3       1 GTP        -0.8116
      6 PB          5.0152   -2.0896   -4.3188 P.3       1 GTP         1.6738
      7 O1B         5.2682   -3.5572   -4.5823 O.co2     1 GTP        -0.8763
      8 O2B         5.4250   -1.4367   -3.0175 O.co2     1 GTP        -0.8763
      9 O3A         3.4281   -1.7650   -4.5203 O.3       1 GTP        -0.8005
     10 PA          2.1372   -2.2718   -3.6563 P.3       1 GTP         1.5754
     11 O1A         0.8958   -1.5923   -4.1925 O.co2     1 GTP        -0.8771
     12 O2A         2.2074   -3.7770   -3.5183 O.co2     1 GTP        -0.8771
     13 O5'         2.5245   -1.6648   -2.1878 O.3       1 GTP        -0.5809
     14 C5'         2.2816   -0.2918   -1.9206 C.3       1 GTP         0.1986
     15 C4'         2.7248    0.0226   -0.4980 C.3       1 GTP         0.0418
     16 O4'         2.4697    1.4219   -0.2462 O.3       1 GTP        -0.3505
     17 C3'         1.9404   -0.7419    0.5596 C.3       1 GTP         0.0909
     18 O3'         2.7418   -0.8086    1.7389 O.3       1 GTP        -0.6187
     19 C2'         0.7477    0.1630    0.7858 C.3       1 GTP         0.0706
     20 O2'         0.1373   -0.0577    2.0407 O.3       1 GTP        -0.6294
     21 C1'         1.3733    1.5427    0.6747 C.3       1 GTP         0.3895
     22 N9          0.4520    2.5240    0.1767 N.pl3     1 GTP        -0.4733
     23 C8          0.2012    2.8401   -1.0899 C.ar      1 GTP         0.2958
     24 N7         -0.7168    3.7990   -1.1981 N.pl3     1 GTP        -0.4933
     25 C5         -1.0645    4.1043    0.0896 C.ar      1 GTP        -0.1494
     26 C6         -2.0336    5.0870    0.5973 C.ar      1 GTP         0.7954
     27 O6         -2.6730    5.7839   -0.1834 O.2       1 GTP        -0.5729
     28 N1         -2.1539    5.1517    1.9868 N.2       1 GTP        -0.7443
     29 C2         -1.4288    4.3650    2.7566 C.ar      1 GTP         0.8831
     30 N2         -1.5126    4.3922    4.1250 N.pl3     1 GTP        -0.9204
     31 N3         -0.5167    3.4388    2.2748 N.pl3     1 GTP        -0.7173
     32 C4         -0.3638    3.3392    0.9318 C.ar      1 GTP         0.2626
     33 HOG3        5.4614   -3.5909   -6.8126 H         1 GTP         0.4102
     34 H5'         2.8432    0.3119   -2.6398 H         1 GTP         0.0289
     35 H5''        1.2128   -0.0927   -2.0428 H         1 GTP         0.0289
     36 H4'         3.8044   -0.1397   -0.4040 H         1 GTP         0.2056
     37 H3'         1.6764   -1.7639    0.2728 H         1 GTP         0.1140
     38 HO3'        2.2232   -1.2979    2.3953 H         1 GTP         0.4287
     39 H2'        -0.0011    0.0027    0.0003 H         1 GTP         0.0809
     40 HO2'       -0.1563   -0.9855    2.0596 H         1 GTP         0.4385
     41 H1'         1.7826    1.9024    1.6451 H         1 GTP         0.0794
     42 H8          0.6787    2.3803   -1.9373 H         1 GTP         0.3821
     43 HN21       -2.1462    5.0320    4.5446 H         1 GTP         0.4411
     44 HN22       -0.9365    3.7712    4.6440 H         1 GTP         0.4411
     45 H45         0.0318    2.8419    2.8816 H         1 GTP         0.4819
     46 H46        -1.0718    4.2049   -2.0526 H         1 GTP         0.5182
@<TRIPOS>BOND
     1    1    2 2
     2    1    3 1
     3    1    4 1
     4    1    5 1
     5    4   33 1
     6    5    6 1
     7    6    7 2
     8    6    8 1
     9    6    9 1
    10    9   10 1
    11   10   11 2
    12   10   12 1
    13   10   13 1
    14   13   14 1
    15   14   15 1
    16   14   34 1
    17   14   35 1
    18   15   16 1
    19   15   17 1
    20   15   36 1
    21   16   21 1
    22   17   18 1
    23   17   19 1
    24   17   37 1
    25   18   38 1
    26   19   20 1
    27   19   21 1
    28   19   39 1
    29   20   40 1
    30   21   22 1
    31   21   41 1
    32   22   23 ar
    33   22   32 ar
    34   23   24 ar
    35   23   42 1
    36   24   25 ar
    37   24   46 1
    38   25   26 ar
    39   25   32 ar
    40   26   27 2
    41   26   28 ar
    42   28   29 ar
    43   29   30 1
    44   29   31 ar
    45   30   43 1
    46   30   44 1
    47   31   32 ar
    48   31   45 1
@<TRIPOS>SUBSTRUCTURE
     1 GTP         1 GROUP 0 A     ****
@<TRIPOS>MOLECULE
[[[5-(2-amino-6-oxo-7,8-dihydro-3~{H}-purin-8-ylium-9-yl)-3,4-dihydroxy-tetrahydrofuran-2-yl]methoxy-oxido-phosphoryl]oxy-oxido-phosphoryl] hydrogen phosphate
   46    48     1     0     0
SMALL
USER_CHARGES

@<TRIPOS>ATOM
      1 PG         -0.4434    1.0824   -7.9891 P.3       1 GTP         1.5447
      2 O1G        -1.5397    2.0095   -7.5137 O.co2     1 GTP        -0.8705
      3 O2G         0.3829    1.4180   -9.2108 O.co2     1 GTP        -0.8705
      4 O3G        -1.0751   -0.4105   -8.1846 O.3       1 GTP        -0.7914
      5 O3B         0.5607    0.7639   -6.7425 O.3       1 GTP        -0.8116
      6 PB          1.8105   -0.2823   -6.6471 P.3       1 GTP         1.6738
      7 O1B         1.2730   -1.6914   -6.7613 O.co2     1 GTP        -0.8763
      8 O2B         2.9347    0.2103   -7.5308 O.co2     1 GTP        -0.8763
      9 O3A         2.2729    0.0019   -5.1075 O.3       1 GTP        -0.8005
     10 PA          3.4844   -0.6652   -4.2374 P.3       1 GTP         1.5754
     11 O1A         3.1940   -2.1385   -4.0491 O.co2     1 GTP        -0.8771
     12 O2A         4.8053   -0.1947   -4.8061 O.co2     1 GTP        -0.8771
     13 O5'         3.2903    0.1346   -2.8241 O.3       1 GTP        -0.5809
     14 C5'         2.2816   -0.2918   -1.9206 C.3       1 GTP         0.1986
     15 C4'         2.7248    0.0226   -0.4980 C.3       1 GTP         0.0418
     16 O4'         2.4697    1.4219   -0.2462 O.3       1 GTP        -0.3505
     17 C3'         1.9404   -0.7419    0.5596 C.3       1 GTP         0.0909
     18 O3'         2.7418   -0.8086    1.7389 O.3       1 GTP        -0.6187
     19 C2'         0.7477    0.1630    0.7858 C.3       1 GTP         0.0706
     20 O2'         0.1373   -0.0577    2.0407 O.3       1 GTP        -0.6294
     21 C1'         1.3733    1.5427    0.6747 C.3       1 GTP         0.3895
     22 N9          0.4520    2.5240    0.1767 N.pl3     1 GTP        -0.4733
     23 C8          0.2012    2.8401   -1.0899 C.ar      1 GTP         0.2958
     24 N7         -0.7168    3.7990   -1.1981 N.pl3     1 GTP        -0.4933
     25 C5         -1.0645    4.1043    0.0896 C.ar      1 GTP        -0.1494
     26 C6         -2.0336    5.0870    0.5973 C.ar      1 GTP         0.7954
     27 O6         -2.6730    5.7839   -0.1834 O.2       1 GTP        -0.5729
     28 N1         -2.1539    5.1517    1.9868 N.2       1 GTP        -0.7443
     29 C2         -1.4288    4.3650    2.7566 C.ar      1 GTP         0.8831
     30 N2         -1.5126    4.3922    4.1250 N.pl3     1 GTP        -0.9204
     31 N3         -0.5167    3.4388    2.2748 N.pl3     1 GTP        -0.7173
     32 C4         -0.3638    3.3392    0.9318 C.ar      1 GTP         0.2626
     33 HOG3       -0.4844   -1.1308   -8.4920 H         1 GTP         0.4102
     34 H5'         1.3514    0.2330   -2.1577 H         1 GTP         0.0289
     35 H5''        2.1280   -1.3678   -2.0460 H         1 GTP         0.0289
     36 H4'         3.8044   -0.1397   -0.4040 H         1 GTP         0.2056
     37 H3'         1.6764   -1.7639    0.2728 H         1 GTP         0.1140
     38 HO3'        2.2232   -1.2979    2.3953 H         1 GTP         0.4287
     39 H2'        -0.0011    0.0027    0.0003 H         1 GTP         0.0809
     40 HO2'       -0.6141    0.5574    2.1082 H         1 GTP         0.4385
     41 H1'         1.7826    1.9024    1.6451 H         1 GTP         0.0794
     42 H8          0.6787    2.3803   -1.9373 H         1 GTP         0.3821
     43 HN21       -2.1462    5.0320    4.5446 H         1 GTP         0.4411
     44 HN22       -0.9365    3.7712    4.6440 H         1 GTP         0.4411
     45 H45         0.0318    2.8419    2.8816 H         1 GTP         0.4819
     46 H46        -1.0718    4.2049   -2.0526 H         1 GTP         0.5182
@<TRIPOS>BOND
     1    1    2 2
     2    1    3 1
     3    1    4 1
     4    1    5 1
     5    4   33 1
     6    5    6 1
     7    6    7 2
     8    6    8 1
     9    6    9 1
    10    9   10 1
    11   10   11 2
    12   10   12 1
    13   10   13 1
    14   13   14 1
    15   14   15 1
    16   14   34 1
    17   14   35 1
    18   15   16 1
    19   15   17 1
    20   15   36 1
    21   16   21 1
    22   17   18 1
    23   17   19 1
    24   17   37 1
    25   18   38 1
    26   19   20 1
    27   19   21 1
    28   19   39 1
    29   20   40 1
    30   21   22 1
    31   21   41 1
    32   22   23 ar
    33   22   32 ar
    34   23   24 ar
    35   23   42 1
    36   24   25 ar
    37   24   46 1
    38   25   26 ar
    39   25   32 ar
    40   26   27 2
    41   26   28 ar
    42   28   29 ar
    43   29   30 1
    44   29   31 ar
    45   30   43 1
    46   30   44 1
    47   31   32 ar
    48   31   45 1
@<TRIPOS>SUBSTRUCTURE
     1 GTP         1 GROUP 0 A     ****
@<TRIPOS>MOLECULE
[[[5-(2-amino-6-oxo-7,8-dihydro-3~{H}-purin-8-ylium-9-yl)-3,4-dihydroxy-tetrahydrofuran-2-yl]methoxy-oxido-phosphoryl]oxy-oxido-phosphoryl] hydrogen phosphate
   46    48     1     0     0
SMALL
USER_CHARGES

@<TRIPOS>ATOM
      1 PG         -1.7001   -1.5998   -6.7111 P.3       1 GTP         1.5447
      2 O1G        -1.6640   -2.8746   -7.5241 O.co2     1 GTP        -0.8705
      3 O2G        -2.9279   -1.2213   -5.9131 O.co2     1 GTP        -0.8705
      4 O3G        -1.3112   -0.3506   -7.6878 O.3       1 GTP        -0.7914
      5 O3B        -0.3975   -1.5594   -5.7285 O.3       1 GTP        -0.8116
      6 PB          1.1870   -1.7278   -6.0847 P.3       1 GTP         1.6738
      7 O1B         1.4254   -3.1367   -6.5803 O.co2     1 GTP        -0.8763
      8 O2B         1.6458   -0.5224   -6.8746 O.co2     1 GTP        -0.8763
      9 O3A         1.8113   -1.5642   -4.5853 O.3       1 GTP        -0.8005
     10 PA          1.5544   -2.4558   -3.2404 P.3       1 GTP         1.5754
     11 O1A         0.1056   -2.3088   -2.8286 O.co2     1 GTP        -0.8771
     12 O2A         2.1769   -3.8208   -3.4380 O.co2     1 GTP        -0.8771
     13 O5'         2.5245   -1.6648   -2.1878 O.3       1 GTP        -0.5809
     14 C5'         2.2816   -0.2918   -1.9206 C.3       1 GTP         0.1986
     15 C4'         2.7248    0.0226   -0.4980 C.3       1 GTP         0.0418
     16 O4'         2.4697    1.4219   -0.2462 O.3       1 GTP        -0.3505
     17 C3'         1.9404   -0.7419    0.5596 C.3       1 GTP         0.0909
     18 O3'         2.7418   -0.8086    1.7389 O.3       1 GTP        -0.6187
     19 C2'         0.7477    0.1630    0.7858 C.3       1 GTP         0.0706
     20 O2'         0.1373   -0.0577    2.0407 O.3       1 GTP        -0.6294
     21 C1'         1.3733    1.5427    0.6747 C.3       1 GTP         0.3895
     22 N9          0.4520    2.5240    0.1767 N.pl3     1 GTP        -0.4733
     23 C8          0.5427    3.2356   -0.9425 C.ar      1 GTP         0.2958
     24 N7         -0.4919    4.0590   -1.1018 N.pl3     1 GTP        -0.4933
     25 C5         -1.2850    3.8484   -0.0069 C.ar      1 GTP        -0.1494
     26 C6         -2.5644    4.4707    0.3650 C.ar      1 GTP         0.7954
     27 O6         -3.0718    5.3200   -0.3599 O.2       1 GTP        -0.5729
     28 N1         -3.1239    4.0269    1.5647 N.2       1 GTP        -0.7443
     29 C2         -2.5133    3.1079    2.2858 C.ar      1 GTP         0.8831
     30 N2         -3.0239    2.6409    3.4697 N.pl3     1 GTP        -0.9204
     31 N3         -1.3076    2.5223    1.9320 N.pl3     1 GTP        -0.7173
     32 C4         -0.7246    2.9211    0.7753 C.ar      1 GTP         0.2626
     33 HOG3       -1.2905    0.5524   -7.3051 H         1 GTP         0.4102
     34 H5'         2.8432    0.3119   -2.6398 H         1 GTP         0.0289
     35 H5''        1.2128   -0.0927   -2.0428 H         1 GTP         0.0289
     36 H4'         3.8044   -0.1397   -0.4040 H         1 GTP         0.2056
     37 H3'         1.6764   -1.7639    0.2728 H         1 GTP         0.1140
     38 HO3'        2.2232   -1.2979    2.3953 H         1 GTP         0.4287
     39 H2'        -0.0011    0.0027    0.0003 H         1 GTP         0.0809
     40 HO2'       -0.1563   -0.9855    2.0596 H         1 GTP         0.4385
     41 H1'         1.7826    1.9024    1.6451 H         1 GTP         0.0794
     42 H8          1.3539    3.1622   -1.6455 H         1 GTP         0.3821
     43 HN21       -3.8871    3.0143    3.7893 H         1 GTP         0.4411
     44 HN22       -2.5108    1.9472    3.9621 H         1 GTP         0.4411
     45 H45        -0.8530    1.8168    2.4986 H         1 GTP         0.4819
     46 H46        -0.6466    4.6966   -1.8702 H         1 GTP         0.5182
@<TRIPOS>BOND
     1    1    2 2
     2    1    3 1
     3    1    4 1
     4    1    5 1
     5    4   33 1
     6    5    6 1
     7    6    7 2
     8    6    8 1
     9    6    9 1
    10    9   10 1
    11   10   11 2
    12   10   12 1
    13   10   13 1
    14   13   14 1
    15   14   15 1
    16   14   34 1
    17   14   35 1
    18   15   16 1
    19   15   17 1
    20   15   36 1
    21   16   21 1
    22   17   18 1
    23   17   19 1
    24   17   37 1
    25   18   38 1
    26   19   20 1
    27   19   21 1
    28   19   39 1
    29   20   40 1
    30   21   22 1
    31   21   41 1
    32   22   23 ar
    33   22   32 ar
    34   23   24 ar
    35   23   42 1
    36   24   25 ar
    37   24   46 1
    38   25   26 ar
    39   25   32 ar
    40   26   27 2
    41   26   28 ar
    42   28   29 ar
    43   29   30 1
    44   29   31 ar
    45   30   43 1
    46   30   44 1
    47   31   32 ar
    48   31   45 1
@<TRIPOS>SUBSTRUCTURE
     1 GTP         1 GROUP 0 A     ****
@<TRIPOS>MOLECULE
[[[5-(2-amino-6-oxo-7,8-dihydro-3~{H}-purin-8-ylium-9-yl)-3,4-dihydroxy-tetrahydrofuran-2-yl]methoxy-oxido-phosphoryl]oxy-oxido-phosphoryl] hydrogen phosphate
   46    48     1     0     0
SMALL
USER_CHARGES

@<TRIPOS>ATOM
      1 PG          1.6288   -4.6584   -3.8061 P.3       1 GTP         1.5447
      2 O1G         1.7613   -5.0042   -2.3397 O.co2     1 GTP        -0.8705
      3 O2G         0.5798   -3.6780   -4.2818 O.co2     1 GTP        -0.8705
      4 O3G         1.4649   -6.0446   -4.6532 O.3       1 GTP        -0.7914
      5 O3B         3.0855   -4.1921   -4.3756 O.3       1 GTP        -0.8116
      6 PB          3.9753   -2.8714   -4.0157 P.3       1 GTP         1.6738
      7 O1B         4.1720   -2.8128   -2.5173 O.co2     1 GTP        -0.8763
      8 O2B         5.1445   -2.7889   -4.9716 O.co2     1 GTP        -0.8763
      9 O3A         2.9205   -1.7124   -4.4729 O.3       1 GTP        -0.8005
     10 PA          3.0675   -0.0857   -4.4293 P.3       1 GTP         1.5754
     11 O1A         4.3144    0.3107   -5.1899 O.co2     1 GTP        -0.8771
     12 O2A         1.7243    0.5309   -4.7535 O.co2     1 GTP        -0.8771
     13 O5'         3.2903    0.1346   -2.8241 O.3       1 GTP        -0.5809
     14 C5'         2.2816   -0.2918   -1.9206 C.3       1 GTP         0.1986
     15 C4'         2.7248    0.0226   -0.4980 C.3       1 GTP         0.0418
     16 O4'         2.4697    1.4219   -0.2462 O.3       1 GTP        -0.3505
     17 C3'         1.9404   -0.7419    0.5596 C.3       1 GTP         0.0909
     18 O3'         2.7418   -0.8086    1.7389 O.3       1 GTP        -0.6187
     19 C2'         0.7477    0.1630    0.7858 C.3       1 GTP         0.0706
     20 O2'         0.1373   -0.0577    2.0407 O.3       1 GTP        -0.6294
     21 C1'         1.3733    1.5427    0.6747 C.3       1 GTP         0.3895
     22 N9          0.4520    2.5240    0.1767 N.pl3     1 GTP        -0.4733
     23 C8          0.5427    3.2356   -0.9425 C.ar      1 GTP         0.2958
     24 N7         -0.4919    4.0590   -1.1018 N.pl3     1 GTP        -0.4933
     25 C5         -1.2850    3.8484   -0.0069 C.ar      1 GTP        -0.1494
     26 C6         -2.5644    4.4707    0.3650 C.ar      1 GTP         0.7954
     27 O6         -3.0718    5.3200   -0.3599 O.2       1 GTP        -0.5729
     28 N1         -3.1239    4.0269    1.5647 N.2       1 GTP        -0.7443
     29 C2         -2.5133    3.1079    2.2858 C.ar      1 GTP         0.8831
     30 N2         -3.0239    2.6409    3.4697 N.pl3     1 GTP        -0.9204
     31 N3         -1.3076    2.5223    1.9320 N.pl3     1 GTP        -0.7173
     32 C4         -0.7246    2.9211    0.7753 C.ar      1 GTP         0.2626
     33 HOG3        1.3674   -5.9875   -5.6276 H         1 GTP         0.4102
     34 H5'         1.3514    0.2330   -2.1577 H         1 GTP         0.0289
     35 H5''        2.1280   -1.3678   -2.0460 H         1 GTP         0.0289
     36 H4'         3.8044   -0.1397   -0.4040 H         1 GTP         0.2056
     37 H3'         1.6764   -1.7639    0.2728 H         1 GTP         0.1140
     38 HO3'        3.5554   -1.2733    1.4914 H         1 GTP         0.4287
     39 H2'        -0.0011    0.0027    0.0003 H         1 GTP         0.0809
     40 HO2'       -0.1563   -0.9855    2.0596 H         1 GTP         0.4385
     41 H1'         1.7826    1.9024    1.6451 H         1 GTP         0.0794
     42 H8          1.3539    3.1622   -1.6455 H         1 GTP         0.3821
     43 HN21       -3.8871    3.0143    3.7893 H         1 GTP         0.4411
     44 HN22       -2.5108    1.9472    3.9621 H         1 GTP         0.4411
     45 H45        -0.8530    1.8168    2.4986 H         1 GTP         0.4819
     46 H46        -0.6466    4.6966   -1.8702 H         1 GTP         0.5182
@<TRIPOS>BOND
     1    1    2 2
     2    1    3 1
     3    1    4 1
     4    1    5 1
     5    4   33 1
     6    5    6 1
     7    6    7 2
     8    6    8 1
     9    6    9 1
    10    9   10 1
    11   10   11 2
    12   10   12 1
    13   10   13 1
    14   13   14 1
    15   14   15 1
    16   14   34 1
    17   14   35 1
    18   15   16 1
    19   15   17 1
    20   15   36 1
    21   16   21 1
    22   17   18 1
    23   17   19 1
    24   17   37 1
    25   18   38 1
    26   19   20 1
    27   19   21 1
    28   19   39 1
    29   20   40 1
    30   21   22 1
    31   21   41 1
    32   22   23 ar
    33   22   32 ar
    34   23   24 ar
    35   23   42 1
    36   24   25 ar
    37   24   46 1
    38   25   26 ar
    39   25   32 ar
    40   26   27 2
    41   26   28 ar
    42   28   29 ar
    43   29   30 1
    44   29   31 ar
    45   30   43 1
    46   30   44 1
    47   31   32 ar
    48   31   45 1
@<TRIPOS>SUBSTRUCTURE
     1 GTP         1 GROUP 0 A     ****
@<TRIPOS>MOLECULE
[[[5-(2-amino-6-oxo-7,8-dihydro-3~{H}-purin-8-ylium-9-yl)-3,4-dihydroxy-tetrahydrofuran-2-yl]methoxy-oxido-phosphoryl]oxy-oxido-phosphoryl] hydrogen phosphate
   46    48     1     0     0
SMALL
USER_CHARGES

@<TRIPOS>ATOM
      1 PG          7.4179   -0.6796   -0.8994 P.3       1 GTP         1.5447
      2 O1G         6.0933   -0.6404   -0.1704 O.co2     1 GTP        -0.8705
      3 O2G         8.3462   -1.8657   -0.7614 O.co2     1 GTP        -0.8705
      4 O3G         8.2512    0.6762   -0.5342 O.3       1 GTP        -0.7914
      5 O3B         7.1603   -0.3911   -2.4850 O.3       1 GTP        -0.8116
      6 PB          6.3781   -1.2932   -3.5986 P.3       1 GTP         1.6738
      7 O1B         6.3019   -0.5101   -4.8902 O.co2     1 GTP        -0.8763
      8 O2B         6.9203   -2.7046   -3.5593 O.co2     1 GTP        -0.8763
      9 O3A         4.9017   -1.3446   -2.9040 O.3       1 GTP        -0.8005
     10 PA          3.5300   -2.0730   -3.4114 P.3       1 GTP         1.5754
     11 O1A         3.0794   -1.4186   -4.6995 O.co2     1 GTP        -0.8771
     12 O2A         3.7147   -3.5720   -3.3184 O.co2     1 GTP        -0.8771
     13 O5'         2.5245   -1.6648   -2.1878 O.3       1 GTP        -0.5809
     14 C5'         2.2816   -0.2918   -1.9206 C.3       1 GTP         0.1986
     15 C4'         2.7248    0.0226   -0.4980 C.3       1 GTP         0.0418
     16 O4'         2.4697    1.4219   -0.2462 O.3       1 GTP        -0.3505
     17 C3'         1.9404   -0.7419    0.5596 C.3       1 GTP         0.0909
     18 O3'         2.7418   -0.8086    1.7389 O.3       1 GTP        -0.6187
     19 C2'         0.7477    0.1630    0.7858 C.3       1 GTP         0.0706
     20 O2'         0.1373   -0.0577    2.0407 O.3       1 GTP        -0.6294
     21 C1'         1.3733    1.5427    0.6747 C.3       1 GTP         0.3895
     22 N9          0.4520    2.5240    0.1767 N.pl3     1 GTP        -0.4733
     23 C8          0.2012    2.8401   -1.0899 C.ar      1 GTP         0.2958
     24 N7         -0.7168    3.7990   -1.1981 N.pl3     1 GTP        -0.4933
     25 C5         -1.0645    4.1043    0.0896 C.ar      1 GTP        -0.1494
     26 C6         -2.0336    5.0870    0.5973 C.ar      1 GTP         0.7954
     27 O6         -2.6730    5.7839   -0.1834 O.2       1 GTP        -0.5729
     28 N1         -2.1539    5.1517    1.9868 N.2       1 GTP        -0.7443
     29 C2         -1.4288    4.3650    2.7566 C.ar      1 GTP         0.8831
     30 N2         -1.5126    4.3922    4.1250 N.pl3     1 GTP        -0.9204
     31 N3         -0.5167    3.4388    2.2748 N.pl3     1 GTP        -0.7173
     32 C4         -0.3638    3.3392    0.9318 C.ar      1 GTP         0.2626
     33 HOG3        9.1388    0.8003   -0.9330 H         1 GTP         0.4102
     34 H5'         2.8432    0.3119   -2.6398 H         1 GTP         0.0289
     35 H5''        1.2128   -0.0927   -2.0428 H         1 GTP         0.0289
     36 H4'         3.8044   -0.1397   -0.4040 H         1 GTP         0.2056
     37 H3'         1.6764   -1.7639    0.2728 H         1 GTP         0.1140
     38 HO3'        3.5554   -1.2733    1.4914 H         1 GTP         0.4287
     39 H2'        -0.0011    0.0027    0.0003 H         1 GTP         0.0809
     40 HO2'       -0.1563   -0.9855    2.0596 H         1 GTP         0.4385
     41 H1'         1.7826    1.9024    1.6451 H         1 GTP         0.0794
     42 H8          0.6787    2.3803   -1.9373 H         1 GTP         0.3821
     43 HN21       -2.1462    5.0320    4.5446 H         1 GTP         0.4411
     44 HN22       -0.9365    3.7712    4.6440 H         1 GTP         0.4411
     45 H45         0.0318    2.8419    2.8816 H         1 GTP         0.4819
     46 H46        -1.0718    4.2049   -2.0526 H         1 GTP         0.5182
@<TRIPOS>BOND
     1    1    2 2
     2    1    3 1
     3    1    4 1
     4    1    5 1
     5    4   33 1
     6    5    6 1
     7    6    7 2
     8    6    8 1
     9    6    9 1
    10    9   10 1
    11   10   11 2
    12   10   12 1
    13   10   13 1
    14   13   14 1
    15   14   15 1
    16   14   34 1
    17   14   35 1
    18   15   16 1
    19   15   17 1
    20   15   36 1
    21   16   21 1
    22   17   18 1
    23   17   19 1
    24   17   37 1
    25   18   38 1
    26   19   20 1
    27   19   21 1
    28   19   39 1
    29   20   40 1
    30   21   22 1
    31   21   41 1
    32   22   23 ar
    33   22   32 ar
    34   23   24 ar
    35   23   42 1
    36   24   25 ar
    37   24   46 1
    38   25   26 ar
    39   25   32 ar
    40   26   27 2
    41   26   28 ar
    42   28   29 ar
    43   29   30 1
    44   29   31 ar
    45   30   43 1
    46   30   44 1
    47   31   32 ar
    48   31   45 1
@<TRIPOS>SUBSTRUCTURE
     1 GTP         1 GROUP 0 A     ****
@<TRIPOS>MOLECULE
[[[5-(2-amino-6-oxo-7,8-dihydro-3~{H}-purin-8-ylium-9-yl)-3,4-dihydroxy-tetrahydrofuran-2-yl]methoxy-oxido-phosphoryl]oxy-oxido-phosphoryl] hydrogen phosphate
   46    48     1     0     0
SMALL
USER_CHARGES

@<TRIPOS>ATOM
      1 PG          2.8801   -4.4515   -4.2416 P.3       1 GTP         1.5447
      2 O1G         2.7541   -5.6758   -5.1207 O.co2     1 GTP        -0.8705
      3 O2G         3.0607   -4.5839   -2.7458 O.co2     1 GTP        -0.8705
      4 O3G         1.6021   -3.4757   -4.5251 O.3       1 GTP        -0.7914
      5 O3B         4.0596   -3.4914   -4.8339 O.3       1 GTP        -0.8116
      6 PB          4.5143   -1.9910   -4.3782 P.3       1 GTP         1.6738
      7 O1B         4.8121   -2.0040   -2.8954 O.co2     1 GTP        -0.8763
      8 O2B         5.5098   -1.4514   -5.3810 O.co2     1 GTP        -0.8763
      9 O3A         3.1119   -1.1996   -4.6459 O.3       1 GTP        -0.8005
     10 PA          2.7407    0.3769   -4.4297 P.3       1 GTP         1.5754
     11 O1A         3.7274    1.2201   -5.2081 O.co2     1 GTP        -0.8771
     12 O2A         1.2486    0.5523   -4.6100 O.co2     1 GTP        -0.8771
     13 O5'         3.0213    0.5153   -2.8245 O.3       1 GTP        -0.5809
     14 C5'         2.2816   -0.2918   -1.9206 C.3       1 GTP         0.1986
     15 C4'         2.7248    0.0226   -0.4980 C.3       1 GTP         0.0418
     16 O4'         2.4697    1.4219   -0.2462 O.3       1 GTP        -0.3505
     17 C3'         1.9404   -0.7419    0.5596 C.3       1 GTP         0.0909
     18 O3'         2.7418   -0.8086    1.7389 O.3       1 GTP        -0.6187
     19 C2'         0.7477    0.1630    0.7858 C.3       1 GTP         0.0706
     20 O2'         0.1373   -0.0577    2.0407 O.3       1 GTP        -0.6294
     21 C1'         1.3733    1.5427    0.6747 C.3       1 GTP         0.3895
     22 N9          0.4520    2.5240    0.1767 N.pl3     1 GTP        -0.4733
     23 C8         -0.2136    2.5096   -0.9739 C.ar      1 GTP         0.2958
     24 N7         -0.9896    3.5820   -1.1212 N.pl3     1 GTP        -0.4933
     25 C5         -0.7962    4.3186    0.0156 C.ar      1 GTP        -0.1494
     26 C6         -1.3875    5.6031    0.4192 C.ar      1 GTP         0.7954
     27 O6         -2.1869    6.1731   -0.3158 O.2       1 GTP        -0.5729
     28 N1         -0.9745    6.0930    1.6597 N.2       1 GTP        -0.7443
     29 C2         -0.1105    5.4166    2.3900 C.ar      1 GTP         0.8831
     30 N2          0.3241    5.8571    3.6138 N.pl3     1 GTP        -0.9204
     31 N3          0.4444    4.2053    2.0072 N.pl3     1 GTP        -0.7173
     32 C4          0.0746    3.6889    0.8098 C.ar      1 GTP         0.2626
     33 HOG3        1.5386   -2.6329   -4.0271 H         1 GTP         0.4102
     34 H5'         1.2163   -0.0770   -2.0471 H         1 GTP         0.0289
     35 H5''        2.4655   -1.3443   -2.1563 H         1 GTP         0.0289
     36 H4'         3.8044   -0.1397   -0.4040 H         1 GTP         0.2056
     37 H3'         1.6764   -1.7639    0.2728 H         1 GTP         0.1140
     38 HO3'        2.2232   -1.2979    2.3953 H         1 GTP         0.4287
     39 H2'        -0.0011    0.0027    0.0003 H         1 GTP         0.0809
     40 HO2'       -0.6141    0.5574    2.1082 H         1 GTP         0.4385
     41 H1'         1.7826    1.9024    1.6451 H         1 GTP         0.0794
     42 H8         -0.1415    1.7265   -1.7082 H         1 GTP         0.3821
     43 HN21       -0.0303    6.7197    3.9559 H         1 GTP         0.4411
     44 HN22        0.9765    5.2967    4.1108 H         1 GTP         0.4411
     45 H45         1.1068    3.6990    2.5819 H         1 GTP         0.4819
     46 H46        -1.5877    3.7943   -1.9074 H         1 GTP         0.5182
@<TRIPOS>BOND
     1    1    2 2
     2    1    3 1
     3    1    4 1
     4    1    5 1
     5    4   33 1
     6    5    6 1
     7    6    7 2
     8    6    8 1
     9    6    9 1
    10    9   10 1
    11   10   11 2
    12   10   12 1
    13   10   13 1
    14   13   14 1
    15   14   15 1
    16   14   34 1
    17   14   35 1
    18   15   16 1
    19   15   17 1
    20   15   36 1
    21   16   21 1
    22   17   18 1
    23   17   19 1
    24   17   37 1
    25   18   38 1
    26   19   20 1
    27   19   21 1
    28   19   39 1
    29   20   40 1
    30   21   22 1
    31   21   41 1
    32   22   23 ar
    33   22   32 ar
    34   23   24 ar
    35   23   42 1
    36   24   25 ar
    37   24   46 1
    38   25   26 ar
    39   25   32 ar
    40   26   27 2
    41   26   28 ar
    42   28   29 ar
    43   29   30 1
    44   29   31 ar
    45   30   43 1
    46   30   44 1
    47   31   32 ar
    48   31   45 1
@<TRIPOS>SUBSTRUCTURE
     1 GTP         1 GROUP 0 A     ****
@<TRIPOS>MOLECULE
[[[5-(2-amino-6-oxo-7,8-dihydro-3~{H}-purin-8-ylium-9-yl)-3,4-dihydroxy-tetrahydrofuran-2-yl]methoxy-oxido-phosphoryl]oxy-oxido-phosphoryl] hydrogen phosphate
   46    48     1     0     0
SMALL
USER_CHARGES

@<TRIPOS>ATOM
      1 PG         -0.7417   -4.7966   -6.4110 P.3       1 GTP         1.5447
      2 O1G         0.1897   -5.9646   -6.6476 O.co2     1 GTP        -0.8705
      3 O2G        -2.1670   -5.0188   -5.9563 O.co2     1 GTP        -0.8705
      4 O3G        -0.7648   -3.8710   -7.7558 O.3       1 GTP        -0.7914
      5 O3B        -0.0215   -3.7400   -5.3968 O.3       1 GTP        -0.8116
      6 PB         -0.4993   -2.2519   -4.9247 P.3       1 GTP         1.6738
      7 O1B        -0.4803   -1.3328   -6.1258 O.co2     1 GTP        -0.8763
      8 O2B        -1.7241   -2.3824   -4.0470 O.co2     1 GTP        -0.8763
      9 O3A         0.7434   -1.8799   -3.9337 O.3       1 GTP        -0.8005
     10 PA          1.2681   -2.6345   -2.5827 P.3       1 GTP         1.5754
     11 O1A         0.1879   -2.5477   -1.5263 O.co2     1 GTP        -0.8771
     12 O2A         1.8736   -3.9646   -2.9750 O.co2     1 GTP        -0.8771
     13 O5'         2.5245   -1.6648   -2.1878 O.3       1 GTP        -0.5809
     14 C5'         2.2816   -0.2918   -1.9206 C.3       1 GTP         0.1986
     15 C4'         2.7248    0.0226   -0.4980 C.3       1 GTP         0.0418
     16 O4'         2.4697    1.4219   -0.2462 O.3       1 GTP        -0.3505
     17 C3'         1.9404   -0.7419    0.5596 C.3       1 GTP         0.0909
     18 O3'         2.7418   -0.8086    1.7389 O.3       1 GTP        -0.6187
     19 C2'         0.7477    0.1630    0.7858 C.3       1 GTP         0.0706
     20 O2'         0.1373   -0.0577    2.0407 O.3       1 GTP        -0.6294
     21 C1'         1.3733    1.5427    0.6747 C.3       1 GTP         0.3895
     22 N9          0.4520    2.5240    0.1767 N.pl3     1 GTP        -0.4733
     23 C8          0.2012    2.8401   -1.0899 C.ar      1 GTP         0.2958
     24 N7         -0.7168    3.7990   -1.1981 N.pl3     1 GTP        -0.4933
     25 C5         -1.0645    4.1043    0.0896 C.ar      1 GTP        -0.1494
     26 C6         -2.0336    5.0870    0.5973 C.ar      1 GTP         0.7954
     27 O6         -2.6730    5.7839   -0.1834 O.2       1 GTP        -0.5729
     28 N1         -2.1539    5.1517    1.9868 N.2       1 GTP        -0.7443
     29 C2         -1.4288    4.3650    2.7566 C.ar      1 GTP         0.8831
     30 N2         -1.5126    4.3922    4.1250 N.pl3     1 GTP        -0.9204
     31 N3         -0.5167    3.4388    2.2748 N.pl3     1 GTP        -0.7173
     32 C4         -0.3638    3.3392    0.9318 C.ar      1 GTP         0.2626
     33 HOG3       -1.3276   -3.0676   -7.7600 H         1 GTP         0.4102
     34 H5'         2.8432    0.3119   -2.6398 H         1 GTP         0.0289
     35 H5''        1.2128   -0.0927   -2.0428 H         1 GTP         0.0289
     36 H4'         3.8044   -0.1397   -0.4040 H         1 GTP         0.2056
     37 H3'         1.6764   -1.7639    0.2728 H         1 GTP         0.1140
     38 HO3'        2.2232   -1.2979    2.3953 H         1 GTP         0.4287
     39 H2'        -0.0011    0.0027    0.0003 H         1 GTP         0.0809
     40 HO2'       -0.1563   -0.9855    2.0596 H         1 GTP         0.4385
     41 H1'         1.7826    1.9024    1.6451 H         1 GTP         0.0794
     42 H8          0.6787    2.3803   -1.9373 H         1 GTP         0.3821
     43 HN21       -2.1462    5.0320    4.5446 H         1 GTP         0.4411
     44 HN22       -0.9365    3.7712    4.6440 H         1 GTP         0.4411
     45 H45         0.0318    2.8419    2.8816 H         1 GTP         0.4819
     46 H46        -1.0718    4.2049   -2.0526 H         1 GTP         0.5182
@<TRIPOS>BOND
     1    1    2 2
     2    1    3 1
     3    1    4 1
     4    1    5 1
     5    4   33 1
     6    5    6 1
     7    6    7 2
     8    6    8 1
     9    6    9 1
    10    9   10 1
    11   10   11 2
    12   10   12 1
    13   10   13 1
    14   13   14 1
    15   14   15 1
    16   14   34 1
    17   14   35 1
    18   15   16 1
    19   15   17 1
    20   15   36 1
    21   16   21 1
    22   17   18 1
    23   17   19 1
    24   17   37 1
    25   18   38 1
    26   19   20 1
    27   19   21 1
    28   19   39 1
    29   20   40 1
    30   21   22 1
    31   21   41 1
    32   22   23 ar
    33   22   32 ar
    34   23   24 ar
    35   23   42 1
    36   24   25 ar
    37   24   46 1
    38   25   26 ar
    39   25   32 ar
    40   26   27 2
    41   26   28 ar
    42   28   29 ar
    43   29   30 1
    44   29   31 ar
    45   30   43 1
    46   30   44 1
    47   31   32 ar
    48   31   45 1
@<TRIPOS>SUBSTRUCTURE
     1 GTP         1 GROUP 0 A     ****
@<TRIPOS>MOLECULE
[[[5-(2-amino-6-oxo-7,8-dihydro-3~{H}-purin-8-ylium-9-yl)-3,4-dihydroxy-tetrahydrofuran-2-yl]methoxy-oxido-phosphoryl]oxy-oxido-phosphoryl] hydrogen phosphate
   46    48     1     0     0
SMALL
USER_CHARGES

@<TRIPOS>ATOM
      1 PG          2.2320   -3.5606   -5.9004 P.3       1 GTP         1.5447
      2 O1G         0.8239   -3.2875   -5.4207 O.co2     1 GTP        -0.8705
      3 O2G         2.5252   -4.7142   -6.8336 O.co2     1 GTP        -0.8705
      4 O3G         3.2084   -3.6864   -4.5978 O.3       1 GTP        -0.7914
      5 O3B         2.8498   -2.1923   -6.5405 O.3       1 GTP        -0.8116
      6 PB          2.9599   -0.6946   -5.8997 P.3       1 GTP         1.6738
      7 O1B         3.7418    0.1835   -6.8510 O.co2     1 GTP        -0.8763
      8 O2B         1.6028   -0.2816   -5.3751 O.co2     1 GTP        -0.8763
      9 O3A         3.8774   -1.0356   -4.5933 O.3       1 GTP        -0.8005
     10 PA          4.4374   -0.0466   -3.4193 P.3       1 GTP         1.5754
     11 O1A         5.1480   -0.8824   -2.3769 O.co2     1 GTP        -0.8771
     12 O2A         5.1179    1.1389   -4.0684 O.co2     1 GTP        -0.8771
     13 O5'         3.0213    0.5153   -2.8245 O.3       1 GTP        -0.5809
     14 C5'         2.2816   -0.2918   -1.9206 C.3       1 GTP         0.1986
     15 C4'         2.7248    0.0226   -0.4980 C.3       1 GTP         0.0418
     16 O4'         2.4697    1.4219   -0.2462 O.3       1 GTP        -0.3505
     17 C3'         1.9404   -0.7419    0.5596 C.3       1 GTP         0.0909
     18 O3'         2.7418   -0.8086    1.7389 O.3       1 GTP        -0.6187
     19 C2'         0.7477    0.1630    0.7858 C.3       1 GTP         0.0706
     20 O2'         0.1373   -0.0577    2.0407 O.3       1 GTP        -0.6294
     21 C1'         1.3733    1.5427    0.6747 C.3       1 GTP         0.3895
     22 N9          0.4520    2.5240    0.1767 N.pl3     1 GTP        -0.4733
     23 C8          0.2012    2.8401   -1.0899 C.ar      1 GTP         0.2958
     24 N7         -0.7168    3.7990   -1.1981 N.pl3     1 GTP        -0.4933
     25 C5         -1.0645    4.1043    0.0896 C.ar      1 GTP        -0.1494
     26 C6         -2.0336    5.0870    0.5973 C.ar      1 GTP         0.7954
     27 O6         -2.6730    5.7839   -0.1834 O.2       1 GTP        -0.5729
     28 N1         -2.1539    5.1517    1.9868 N.2       1 GTP        -0.7443
     29 C2         -1.4288    4.3650    2.7566 C.ar      1 GTP         0.8831
     30 N2         -1.5126    4.3922    4.1250 N.pl3     1 GTP        -0.9204
     31 N3         -0.5167    3.4388    2.2748 N.pl3     1 GTP        -0.7173
     32 C4         -0.3638    3.3392    0.9318 C.ar      1 GTP         0.2626
     33 HOG3        4.1619   -3.8644   -4.7445 H         1 GTP         0.4102
     34 H5'         1.2163   -0.0770   -2.0471 H         1 GTP         0.0289
     35 H5''        2.4655   -1.3443   -2.1563 H         1 GTP         0.0289
     36 H4'         3.8044   -0.1397   -0.4040 H         1 GTP         0.2056
     37 H3'         1.6764   -1.7639    0.2728 H         1 GTP         0.1140
     38 HO3'        2.2232   -1.2979    2.3953 H         1 GTP         0.4287
     39 H2'        -0.0011    0.0027    0.0003 H         1 GTP         0.0809
     40 HO2'       -0.6141    0.5574    2.1082 H         1 GTP         0.4385
     41 H1'         1.7826    1.9024    1.6451 H         1 GTP         0.0794
     42 H8          0.6787    2.3803   -1.9373 H         1 GTP         0.3821
     43 HN21       -2.1462    5.0320    4.5446 H         1 GTP         0.4411
     44 HN22       -0.9365    3.7712    4.6440 H         1 GTP         0.4411
     45 H45         0.0318    2.8419    2.8816 H         1 GTP         0.4819
     46 H46        -1.0718    4.2049   -2.0526 H         1 GTP         0.5182
@<TRIPOS>BOND
     1    1    2 2
     2    1    3 1
     3    1    4 1
     4    1    5 1
     5    4   33 1
     6    5    6 1
     7    6    7 2
     8    6    8 1
     9    6    9 1
    10    9   10 1
    11   10   11 2
    12   10   12 1
    13   10   13 1
    14   13   14 1
    15   14   15 1
    16   14   34 1
    17   14   35 1
    18   15   16 1
    19   15   17 1
    20   15   36 1
    21   16   21 1
    22   17   18 1
    23   17   19 1
    24   17   37 1
    25   18   38 1
    26   19   20 1
    27   19   21 1
    28   19   39 1
    29   20   40 1
    30   21   22 1
    31   21   41 1
    32   22   23 ar
    33   22   32 ar
    34   23   24 ar
    35   23   42 1
    36   24   25 ar
    37   24   46 1
    38   25   26 ar
    39   25   32 ar
    40   26   27 2
    41   26   28 ar
    42   28   29 ar
    43   29   30 1
    44   29   31 ar
    45   30   43 1
    46   30   44 1
    47   31   32 ar
    48   31   45 1
@<TRIPOS>SUBSTRUCTURE
     1 GTP         1 GROUP 0 A     ****
@<TRIPOS>MOLECULE
[[[5-(2-amino-6-oxo-7,8-dihydro-3~{H}-purin-8-ylium-9-yl)-3,4-dihydroxy-tetrahydrofuran-2-yl]methoxy-oxido-phosphoryl]oxy-oxido-phosphoryl] hydrogen phosphate
   46    48     1     0     0
SMALL
USER_CHARGES

@<TRIPOS>ATOM
      1 PG          2.8801   -4.4515   -4.2416 P.3       1 GTP         1.5447
      2 O1G         3.2421   -4.8635   -2.8321 O.co2     1 GTP        -0.8705
      3 O2G         1.5380   -3.8249   -4.5478 O.co2     1 GTP        -0.8705
      4 O3G         3.0894   -5.7361   -5.2274 O.3       1 GTP        -0.7914
      5 O3B         4.0596   -3.4914   -4.8339 O.3       1 GTP        -0.8116
      6 PB          4.5143   -1.9910   -4.3782 P.3       1 GTP         1.6738
      7 O1B         4.8121   -2.0040   -2.8954 O.co2     1 GTP        -0.8763
      8 O2B         5.5098   -1.4514   -5.3810 O.co2     1 GTP        -0.8763
      9 O3A         3.1119   -1.1996   -4.6459 O.3       1 GTP        -0.8005
     10 PA          2.7407    0.3769   -4.4297 P.3       1 GTP         1.5754
     11 O1A         3.7274    1.2201   -5.2081 O.co2     1 GTP        -0.8771
     12 O2A         1.2486    0.5523   -4.6100 O.co2     1 GTP        -0.8771
     13 O5'         3.0213    0.5153   -2.8245 O.3       1 GTP        -0.5809
     14 C5'         2.2816   -0.2918   -1.9206 C.3       1 GTP         0.1986
     15 C4'         2.7248    0.0226   -0.4980 C.3       1 GTP         0.0418
     16 O4'         2.4697    1.4219   -0.2462 O.3       1 GTP        -0.3505
     17 C3'         1.9404   -0.7419    0.5596 C.3       1 GTP         0.0909
     18 O3'         2.7418   -0.8086    1.7389 O.3       1 GTP        -0.6187
     19 C2'         0.7477    0.1630    0.7858 C.3       1 GTP         0.0706
     20 O2'         0.1373   -0.0577    2.0407 O.3       1 GTP        -0.6294
     21 C1'         1.3733    1.5427    0.6747 C.3       1 GTP         0.3895
     22 N9          0.4520    2.5240    0.1767 N.pl3     1 GTP        -0.4733
     23 C8         -0.6872    2.9292    0.7291 C.ar      1 GTP         0.2958
     24 N7         -1.2991    3.8596   -0.0015 N.pl3     1 GTP        -0.4933
     25 C5         -0.4870    4.0499   -1.0861 C.ar      1 GTP        -0.1494
     26 C6         -0.6427    4.9562   -2.2336 C.ar      1 GTP         0.7954
     27 O6         -1.6219    5.6904   -2.3123 O.2       1 GTP        -0.5729
     28 N1          0.3798    4.9069   -3.1832 N.2       1 GTP        -0.7443
     29 C2          1.4004    4.0885   -3.0226 C.ar      1 GTP         0.8831
     30 N2          2.4275    4.0052   -3.9273 N.pl3     1 GTP        -0.9204
     31 N3          1.5448    3.2359   -1.9390 N.pl3     1 GTP        -0.7173
     32 C4          0.5769    3.2470   -0.9903 C.ar      1 GTP         0.2626
     33 HOG3        2.8945   -5.6283   -6.1827 H         1 GTP         0.4102
     34 H5'         1.2163   -0.0770   -2.0471 H         1 GTP         0.0289
     35 H5''        2.4655   -1.3443   -2.1563 H         1 GTP         0.0289
     36 H4'         3.8044   -0.1397   -0.4040 H         1 GTP         0.2056
     37 H3'         1.6764   -1.7639    0.2728 H         1 GTP         0.1140
     38 HO3'        2.2232   -1.2979    2.3953 H         1 GTP         0.4287
     39 H2'        -0.0011    0.0027    0.0003 H         1 GTP         0.0809
     40 HO2'       -0.1563   -0.9855    2.0596 H         1 GTP         0.4385
     41 H1'         1.7826    1.9024    1.6451 H         1 GTP         0.0794
     42 H8         -1.0786    2.5555    1.6591 H         1 GTP         0.3821
     43 HN21        2.3939    4.5871   -4.7317 H         1 GTP         0.4411
     44 HN22        3.1656    3.3663   -3.7434 H         1 GTP         0.4411
     45 H45         2.3366    2.6138   -1.8319 H         1 GTP         0.4819
     46 H46        -2.1740    4.3186    0.2105 H         1 GTP         0.5182
@<TRIPOS>BOND
     1    1    2 2
     2    1    3 1
     3    1    4 1
     4    1    5 1
     5    4   33 1
     6    5    6 1
     7    6    7 2
     8    6    8 1
     9    6    9 1
    10    9   10 1
    11   10   11 2
    12   10   12 1
    13   10   13 1
    14   13   14 1
    15   14   15 1
    16   14   34 1
    17   14   35 1
    18   15   16 1
    19   15   17 1
    20   15   36 1
    21   16   21 1
    22   17   18 1
    23   17   19 1
    24   17   37 1
    25   18   38 1
    26   19   20 1
    27   19   21 1
    28   19   39 1
    29   20   40 1
    30   21   22 1
    31   21   41 1
    32   22   23 ar
    33   22   32 ar
    34   23   24 ar
    35   23   42 1
    36   24   25 ar
    37   24   46 1
    38   25   26 ar
    39   25   32 ar
    40   26   27 2
    41   26   28 ar
    42   28   29 ar
    43   29   30 1
    44   29   31 ar
    45   30   43 1
    46   30   44 1
    47   31   32 ar
    48   31   45 1
@<TRIPOS>SUBSTRUCTURE
     1 GTP         1 GROUP 0 A     ****
@<TRIPOS>MOLECULE
[[[5-(2-amino-6-oxo-7,8-dihydro-3~{H}-purin-8-ylium-9-yl)-3,4-dihydroxy-tetrahydrofuran-2-yl]methoxy-oxido-phosphoryl]oxy-oxido-phosphoryl] hydrogen phosphate
   46    48     1     0     0
SMALL
USER_CHARGES

@<TRIPOS>ATOM
      1 PG          7.0744    0.2367   -3.7306 P.3       1 GTP         1.5447
      2 O1G         5.9939    0.7766   -4.6409 O.co2     1 GTP        -0.8705
      3 O2G         7.2953    0.8228   -2.3539 O.co2     1 GTP        -0.8705
      4 O3G         8.4931    0.2613   -4.5383 O.3       1 GTP        -0.7914
      5 O3B         6.8958   -1.3799   -3.5949 O.3       1 GTP        -0.8116
      6 PB          5.7003   -2.2452   -2.8964 P.3       1 GTP         1.6738
      7 O1B         5.9434   -3.7134   -3.1660 O.co2     1 GTP        -0.8763
      8 O2B         5.4689   -1.7252   -1.4952 O.co2     1 GTP        -0.8763
      9 O3A         4.4413   -1.7265   -3.7968 O.3       1 GTP        -0.8005
     10 PA          2.8603   -2.1317   -3.7189 P.3       1 GTP         1.5754
     11 O1A         2.0908   -1.2810   -4.7060 O.co2     1 GTP        -0.8771
     12 O2A         2.7458   -3.6405   -3.7305 O.co2     1 GTP        -0.8771
     13 O5'         2.5245   -1.6648   -2.1878 O.3       1 GTP        -0.5809
     14 C5'         2.2816   -0.2918   -1.9206 C.3       1 GTP         0.1986
     15 C4'         2.7248    0.0226   -0.4980 C.3       1 GTP         0.0418
     16 O4'         2.4697    1.4219   -0.2462 O.3       1 GTP        -0.3505
     17 C3'         1.9404   -0.7419    0.5596 C.3       1 GTP         0.0909
     18 O3'         2.7418   -0.8086    1.7389 O.3       1 GTP        -0.6187
     19 C2'         0.7477    0.1630    0.7858 C.3       1 GTP         0.0706
     20 O2'         0.1373   -0.0577    2.0407 O.3       1 GTP        -0.6294
     21 C1'         1.3733    1.5427    0.6747 C.3       1 GTP         0.3895
     22 N9          0.4520    2.5240    0.1767 N.pl3     1 GTP        -0.4733
     23 C8         -0.2136    2.5096   -0.9739 C.ar      1 GTP         0.2958
     24 N7         -0.9896    3.5820   -1.1212 N.pl3     1 GTP        -0.4933
     25 C5         -0.7962    4.3186    0.0156 C.ar      1 GTP        -0.1494
     26 C6         -1.3875    5.6031    0.4192 C.ar      1 GTP         0.7954
     27 O6         -2.1869    6.1731   -0.3158 O.2       1 GTP        -0.5729
     28 N1         -0.9745    6.0930    1.6597 N.2       1 GTP        -0.7443
     29 C2         -0.1105    5.4166    2.3900 C.ar      1 GTP         0.8831
     30 N2          0.3241    5.8571    3.6138 N.pl3     1 GTP        -0.9204
     31 N3          0.4444    4.2053    2.0072 N.pl3     1 GTP        -0.7173
     32 C4          0.0746    3.6889    0.8098 C.ar      1 GTP         0.2626
     33 HOG3        9.2977   -0.0608   -4.0787 H         1 GTP         0.4102
     34 H5'         2.8432    0.3119   -2.6398 H         1 GTP         0.0289
     35 H5''        1.2128   -0.0927   -2.0428 H         1 GTP         0.0289
     36 H4'         3.8044   -0.1397   -0.4040 H         1 GTP         0.2056
     37 H3'         1.6764   -1.7639    0.2728 H         1 GTP         0.1140
     38 HO3'        2.2232   -1.2979    2.3953 H         1 GTP         0.4287
     39 H2'        -0.0011    0.0027    0.0003 H         1 GTP         0.0809
     40 HO2'       -0.1563   -0.9855    2.0596 H         1 GTP         0.4385
     41 H1'         1.7826    1.9024    1.6451 H         1 GTP         0.0794
     42 H8         -0.1415    1.7265   -1.7082 H         1 GTP         0.3821
     43 HN21       -0.0303    6.7197    3.9559 H         1 GTP         0.4411
     44 HN22        0.9765    5.2967    4.1108 H         1 GTP         0.4411
     45 H45         1.1068    3.6990    2.5819 H         1 GTP         0.4819
     46 H46        -1.5877    3.7943   -1.9074 H         1 GTP         0.5182
@<TRIPOS>BOND
     1    1    2 2
     2    1    3 1
     3    1    4 1
     4    1    5 1
     5    4   33 1
     6    5    6 1
     7    6    7 2
     8    6    8 1
     9    6    9 1
    10    9   10 1
    11   10   11 2
    12   10   12 1
    13   10   13 1
    14   13   14 1
    15   14   15 1
    16   14   34 1
    17   14   35 1
    18   15   16 1
    19   15   17 1
    20   15   36 1
    21   16   21 1
    22   17   18 1
    23   17   19 1
    24   17   37 1
    25   18   38 1
    26   19   20 1
    27   19   21 1
    28   19   39 1
    29   20   40 1
    30   21   22 1
    31   21   41 1
    32   22   23 ar
    33   22   32 ar
    34   23   24 ar
    35   23   42 1
    36   24   25 ar
    37   24   46 1
    38   25   26 ar
    39   25   32 ar
    40   26   27 2
    41   26   28 ar
    42   28   29 ar
    43   29   30 1
    44   29   31 ar
    45   30   43 1
    46   30   44 1
    47   31   32 ar
    48   31   45 1
@<TRIPOS>SUBSTRUCTURE
     1 GTP         1 GROUP 0 A     ****
@<TRIPOS>MOLECULE
[[[5-(2-amino-6-oxo-7,8-dihydro-3~{H}-purin-8-ylium-9-yl)-3,4-dihydroxy-tetrahydrofuran-2-yl]methoxy-oxido-phosphoryl]oxy-oxido-phosphoryl] hydrogen phosphate
   46    48     1     0     0
SMALL
USER_CHARGES

@<TRIPOS>ATOM
      1 PG         -0.2521   -2.8840   -5.0685 P.3       1 GTP         1.5447
      2 O1G        -1.1139   -3.7502   -5.9597 O.co2     1 GTP        -0.8705
      3 O2G         0.6224   -3.4981   -3.9981 O.co2     1 GTP        -0.8705
      4 O3G        -1.1993   -1.7487   -4.3758 O.3       1 GTP        -0.7914
      5 O3B         0.6624   -1.9061   -6.0020 O.3       1 GTP        -0.8116
      6 PB          1.6502   -0.6778   -5.5763 P.3       1 GTP         1.6738
      7 O1B         2.3719   -0.1859   -6.8111 O.co2     1 GTP        -0.8763
      8 O2B         0.8967    0.2696   -4.6695 O.co2     1 GTP        -0.8763
      9 O3A         2.6932   -1.4980   -4.6255 O.3       1 GTP        -0.8005
     10 PA          4.0010   -0.9663   -3.8028 P.3       1 GTP         1.5754
     11 O1A         4.5594   -2.1105   -2.9847 O.co2     1 GTP        -0.8771
     12 O2A         4.8809   -0.1785   -4.7487 O.co2     1 GTP        -0.8771
     13 O5'         3.2903    0.1346   -2.8241 O.3       1 GTP        -0.5809
     14 C5'         2.2816   -0.2918   -1.9206 C.3       1 GTP         0.1986
     15 C4'         2.7248    0.0226   -0.4980 C.3       1 GTP         0.0418
     16 O4'         2.4697    1.4219   -0.2462 O.3       1 GTP        -0.3505
     17 C3'         1.9404   -0.7419    0.5596 C.3       1 GTP         0.0909
     18 O3'         2.7418   -0.8086    1.7389 O.3       1 GTP        -0.6187
     19 C2'         0.7477    0.1630    0.7858 C.3       1 GTP         0.0706
     20 O2'         0.1373   -0.0577    2.0407 O.3       1 GTP        -0.6294
     21 C1'         1.3733    1.5427    0.6747 C.3       1 GTP         0.3895
     22 N9          0.4520    2.5240    0.1767 N.pl3     1 GTP        -0.4733
     23 C8          0.2012    2.8401   -1.0899 C.ar      1 GTP         0.2958
     24 N7         -0.7168    3.7990   -1.1981 N.pl3     1 GTP        -0.4933
     25 C5         -1.0645    4.1043    0.0896 C.ar      1 GTP        -0.1494
     26 C6         -2.0336    5.0870    0.5973 C.ar      1 GTP         0.7954
     27 O6         -2.6730    5.7839   -0.1834 O.2       1 GTP        -0.5729
     28 N1         -2.1539    5.1517    1.9868 N.2       1 GTP        -0.7443
     29 C2         -1.4288    4.3650    2.7566 C.ar      1 GTP         0.8831
     30 N2         -1.5126    4.3922    4.1250 N.pl3     1 GTP        -0.9204
     31 N3         -0.5167    3.4388    2.2748 N.pl3     1 GTP        -0.7173
     32 C4         -0.3638    3.3392    0.9318 C.ar      1 GTP         0.2626
     33 HOG3       -0.7840   -1.1038   -3.7642 H         1 GTP         0.4102
     34 H5'         1.3514    0.2330   -2.1577 H         1 GTP         0.0289
     35 H5''        2.1280   -1.3678   -2.0460 H         1 GTP         0.0289
     36 H4'         3.8044   -0.1397   -0.4040 H         1 GTP         0.2056
     37 H3'         1.6764   -1.7639    0.2728 H         1 GTP         0.1140
     38 HO3'        3.5554   -1.2733    1.4914 H         1 GTP         0.4287
     39 H2'        -0.0011    0.0027    0.0003 H         1 GTP         0.0809
     40 HO2'       -0.1563   -0.9855    2.0596 H         1 GTP         0.4385
     41 H1'         1.7826    1.9024    1.6451 H         1 GTP         0.0794
     42 H8          0.6787    2.3803   -1.9373 H         1 GTP         0.3821
     43 HN21       -2.1462    5.0320    4.5446 H         1 GTP         0.4411
     44 HN22       -0.9365    3.7712    4.6440 H         1 GTP         0.4411
     45 H45         0.0318    2.8419    2.8816 H         1 GTP         0.4819
     46 H46        -1.0718    4.2049   -2.0526 H         1 GTP         0.5182
@<TRIPOS>BOND
     1    1    2 2
     2    1    3 1
     3    1    4 1
     4    1    5 1
     5    4   33 1
     6    5    6 1
     7    6    7 2
     8    6    8 1
     9    6    9 1
    10    9   10 1
    11   10   11 2
    12   10   12 1
    13   10   13 1
    14   13   14 1
    15   14   15 1
    16   14   34 1
    17   14   35 1
    18   15   16 1
    19   15   17 1
    20   15   36 1
    21   16   21 1
    22   17   18 1
    23   17   19 1
    24   17   37 1
    25   18   38 1
    26   19   20 1
    27   19   21 1
    28   19   39 1
    29   20   40 1
    30   21   22 1
    31   21   41 1
    32   22   23 ar
    33   22   32 ar
    34   23   24 ar
    35   23   42 1
    36   24   25 ar
    37   24   46 1
    38   25   26 ar
    39   25   32 ar
    40   26   27 2
    41   26   28 ar
    42   28   29 ar
    43   29   30 1
    44   29   31 ar
    45   30   43 1
    46   30   44 1
    47   31   32 ar
    48   31   45 1
@<TRIPOS>SUBSTRUCTURE
     1 GTP         1 GROUP 0 A     ****
@<TRIPOS>MOLECULE
[[[5-(2-amino-6-oxo-7,8-dihydro-3~{H}-purin-8-ylium-9-yl)-3,4-dihydroxy-tetrahydrofuran-2-yl]methoxy-oxido-phosphoryl]oxy-oxido-phosphoryl] hydrogen phosphate
   46    48     1     0     0
SMALL
USER_CHARGES

@<TRIPOS>ATOM
      1 PG          0.3547   -1.9413   -6.5185 P.3       1 GTP         1.5447
      2 O1G         1.3723   -2.3709   -5.4854 O.co2     1 GTP        -0.8705
      3 O2G        -0.8936   -2.7586   -6.7666 O.co2     1 GTP        -0.8705
      4 O3G         1.1224   -1.7221   -7.9428 O.3       1 GTP        -0.7914
      5 O3B        -0.0751   -0.3936   -6.2293 O.3       1 GTP        -0.8116
      6 PB          0.8569    0.9350   -6.0516 P.3       1 GTP         1.6738
      7 O1B         1.7557    1.0621   -7.2614 O.co2     1 GTP        -0.8763
      8 O2B        -0.0070    2.0845   -5.5828 O.co2     1 GTP        -0.8763
      9 O3A         1.7410    0.4642   -4.7626 O.3       1 GTP        -0.8005
     10 PA          2.9232    1.2546   -3.9579 P.3       1 GTP         1.5754
     11 O1A         4.0962    1.4572   -4.8924 O.co2     1 GTP        -0.8771
     12 O2A         2.3071    2.4181   -3.2121 O.co2     1 GTP        -0.8771
     13 O5'         3.2903    0.1346   -2.8241 O.3       1 GTP        -0.5809
     14 C5'         2.2816   -0.2918   -1.9206 C.3       1 GTP         0.1986
     15 C4'         2.7248    0.0226   -0.4980 C.3       1 GTP         0.0418
     16 O4'         2.4697    1.4219   -0.2462 O.3       1 GTP        -0.3505
     17 C3'         1.9404   -0.7419    0.5596 C.3       1 GTP         0.0909
     18 O3'         2.7418   -0.8086    1.7389 O.3       1 GTP        -0.6187
     19 C2'         0.7477    0.1630    0.7858 C.3       1 GTP         0.0706
     20 O2'         0.1373   -0.0577    2.0407 O.3       1 GTP        -0.6294
     21 C1'         1.3733    1.5427    0.6747 C.3       1 GTP         0.3895
     22 N9          0.4520    2.5240    0.1767 N.pl3     1 GTP        -0.4733
     23 C8         -0.2136    2.5096   -0.9739 C.ar      1 GTP         0.2958
     24 N7         -0.9896    3.5820   -1.1212 N.pl3     1 GTP        -0.4933
     25 C5         -0.7962    4.3186    0.0156 C.ar      1 GTP        -0.1494
     26 C6         -1.3875    5.6031    0.4192 C.ar      1 GTP         0.7954
     27 O6         -2.1869    6.1731   -0.3158 O.2       1 GTP        -0.5729
     28 N1         -0.9745    6.0930    1.6597 N.2       1 GTP        -0.7443
     29 C2         -0.1105    5.4166    2.3900 C.ar      1 GTP         0.8831
     30 N2          0.3241    5.8571    3.6138 N.pl3     1 GTP        -0.9204
     31 N3          0.4444    4.2053    2.0072 N.pl3     1 GTP        -0.7173
     32 C4          0.0746    3.6889    0.8098 C.ar      1 GTP         0.2626
     33 HOG3        0.5939   -1.4399   -8.7195 H         1 GTP         0.4102
     34 H5'         1.3514    0.2330   -2.1577 H         1 GTP         0.0289
     35 H5''        2.1280   -1.3678   -2.0460 H         1 GTP         0.0289
     36 H4'         3.8044   -0.1397   -0.4040 H         1 GTP         0.2056
     37 H3'         1.6764   -1.7639    0.2728 H         1 GTP         0.1140
     38 HO3'        2.2232   -1.2979    2.3953 H         1 GTP         0.4287
     39 H2'        -0.0011    0.0027    0.0003 H         1 GTP         0.0809
     40 HO2'       -0.6141    0.5574    2.1082 H         1 GTP         0.4385
     41 H1'         1.7826    1.9024    1.6451 H         1 GTP         0.0794
     42 H8         -0.1415    1.7265   -1.7082 H         1 GTP         0.3821
     43 HN21       -0.0303    6.7197    3.9559 H         1 GTP         0.4411
     44 HN22        0.9765    5.2967    4.1108 H         1 GTP         0.4411
     45 H45         1.1068    3.6990    2.5819 H         1 GTP         0.4819
     46 H46        -1.5877    3.7943   -1.9074 H         1 GTP         0.5182
@<TRIPOS>BOND
     1    1    2 2
     2    1    3 1
     3    1    4 1
     4    1    5 1
     5    4   33 1
     6    5    6 1
     7    6    7 2
     8    6    8 1
     9    6    9 1
    10    9   10 1
    11   10   11 2
    12   10   12 1
    13   10   13 1
    14   13   14 1
    15   14   15 1
    16   14   34 1
    17   14   35 1
    18   15   16 1
    19   15   17 1
    20   15   36 1
    21   16   21 1
    22   17   18 1
    23   17   19 1
    24   17   37 1
    25   18   38 1
    26   19   20 1
    27   19   21 1
    28   19   39 1
    29   20   40 1
    30   21   22 1
    31   21   41 1
    32   22   23 ar
    33   22   32 ar
    34   23   24 ar
    35   23   42 1
    36   24   25 ar
    37   24   46 1
    38   25   26 ar
    39   25   32 ar
    40   26   27 2
    41   26   28 ar
    42   28   29 ar
    43   29   30 1
    44   29   31 ar
    45   30   43 1
    46   30   44 1
    47   31   32 ar
    48   31   45 1
@<TRIPOS>SUBSTRUCTURE
     1 GTP         1 GROUP 0 A     ****
@<TRIPOS>MOLECULE
[[[5-(2-amino-6-oxo-7,8-dihydro-3~{H}-purin-8-ylium-9-yl)-3,4-dihydroxy-tetrahydrofuran-2-yl]methoxy-oxido-phosphoryl]oxy-oxido-phosphoryl] hydrogen phosphate
   46    48     1     0     0
SMALL
USER_CHARGES

@<TRIPOS>ATOM
      1 PG          1.1396    5.1241   -4.6221 P.3       1 GTP         1.5447
      2 O1G         0.5449    3.9825   -5.4162 O.co2     1 GTP        -0.8705
      3 O2G         0.2720    6.2572   -4.1210 O.co2     1 GTP        -0.8705
      4 O3G         2.3794    5.7583   -5.4745 O.3       1 GTP        -0.7914
      5 O3B         1.9886    4.5138   -3.3689 O.3       1 GTP        -0.8116
      6 PB          3.1773    3.3946   -3.3571 P.3       1 GTP         1.6738
      7 O1B         4.2656    3.8331   -4.3114 O.co2     1 GTP        -0.8763
      8 O2B         3.4848    3.0168   -1.9252 O.co2     1 GTP        -0.8763
      9 O3A         2.3599    2.1376   -4.0025 O.3       1 GTP        -0.8005
     10 PA          2.8621    0.6170   -4.3270 P.3       1 GTP         1.5754
     11 O1A         1.6809   -0.1909   -4.8193 O.co2     1 GTP        -0.8771
     12 O2A         4.1462    0.6908   -5.1241 O.co2     1 GTP        -0.8771
     13 O5'         3.2903    0.1346   -2.8241 O.3       1 GTP        -0.5809
     14 C5'         2.2816   -0.2918   -1.9206 C.3       1 GTP         0.1986
     15 C4'         2.7248    0.0226   -0.4980 C.3       1 GTP         0.0418
     16 O4'         2.4697    1.4219   -0.2462 O.3       1 GTP        -0.3505
     17 C3'         1.9404   -0.7419    0.5596 C.3       1 GTP         0.0909
     18 O3'         2.7418   -0.8086    1.7389 O.3       1 GTP        -0.6187
     19 C2'         0.7477    0.1630    0.7858 C.3       1 GTP         0.0706
     20 O2'         0.1373   -0.0577    2.0407 O.3       1 GTP        -0.6294
     21 C1'         1.3733    1.5427    0.6747 C.3       1 GTP         0.3895
     22 N9          0.4520    2.5240    0.1767 N.pl3     1 GTP        -0.4733
     23 C8          0.2012    2.8401   -1.0899 C.ar      1 GTP         0.2958
     24 N7         -0.7168    3.7990   -1.1981 N.pl3     1 GTP        -0.4933
     25 C5         -1.0645    4.1043    0.0896 C.ar      1 GTP        -0.1494
     26 C6         -2.0336    5.0870    0.5973 C.ar      1 GTP         0.7954
     27 O6         -2.6730    5.7839   -0.1834 O.2       1 GTP        -0.5729
     28 N1         -2.1539    5.1517    1.9868 N.2       1 GTP        -0.7443
     29 C2         -1.4288    4.3650    2.7566 C.ar      1 GTP         0.8831
     30 N2         -1.5126    4.3922    4.1250 N.pl3     1 GTP        -0.9204
     31 N3         -0.5167    3.4388    2.2748 N.pl3     1 GTP        -0.7173
     32 C4         -0.3638    3.3392    0.9318 C.ar      1 GTP         0.2626
     33 HOG3        2.8722    6.5142   -5.0896 H         1 GTP         0.4102
     34 H5'         1.3514    0.2330   -2.1577 H         1 GTP         0.0289
     35 H5''        2.1280   -1.3678   -2.0460 H         1 GTP         0.0289
     36 H4'         3.8044   -0.1397   -0.4040 H         1 GTP         0.2056
     37 H3'         1.6764   -1.7639    0.2728 H         1 GTP         0.1140
     38 HO3'        2.2232   -1.2979    2.3953 H         1 GTP         0.4287
     39 H2'        -0.0011    0.0027    0.0003 H         1 GTP         0.0809
     40 HO2'       -0.1563   -0.9855    2.0596 H         1 GTP         0.4385
     41 H1'         1.7826    1.9024    1.6451 H         1 GTP         0.0794
     42 H8          0.6787    2.3803   -1.9373 H         1 GTP         0.3821
     43 HN21       -2.1462    5.0320    4.5446 H         1 GTP         0.4411
     44 HN22       -0.9365    3.7712    4.6440 H         1 GTP         0.4411
     45 H45         0.0318    2.8419    2.8816 H         1 GTP         0.4819
     46 H46        -1.0718    4.2049   -2.0526 H         1 GTP         0.5182
@<TRIPOS>BOND
     1    1    2 2
     2    1    3 1
     3    1    4 1
     4    1    5 1
     5    4   33 1
     6    5    6 1
     7    6    7 2
     8    6    8 1
     9    6    9 1
    10    9   10 1
    11   10   11 2
    12   10   12 1
    13   10   13 1
    14   13   14 1
    15   14   15 1
    16   14   34 1
    17   14   35 1
    18   15   16 1
    19   15   17 1
    20   15   36 1
    21   16   21 1
    22   17   18 1
    23   17   19 1
    24   17   37 1
    25   18   38 1
    26   19   20 1
    27   19   21 1
    28   19   39 1
    29   20   40 1
    30   21   22 1
    31   21   41 1
    32   22   23 ar
    33   22   32 ar
    34   23   24 ar
    35   23   42 1
    36   24   25 ar
    37   24   46 1
    38   25   26 ar
    39   25   32 ar
    40   26   27 2
    41   26   28 ar
    42   28   29 ar
    43   29   30 1
    44   29   31 ar
    45   30   43 1
    46   30   44 1
    47   31   32 ar
    48   31   45 1
@<TRIPOS>SUBSTRUCTURE
     1 GTP         1 GROUP 0 A     ****
@<TRIPOS>MOLECULE
[[[5-(2-amino-6-oxo-7,8-dihydro-3~{H}-purin-8-ylium-9-yl)-3,4-dihydroxy-tetrahydrofuran-2-yl]methoxy-oxido-phosphoryl]oxy-oxido-phosphoryl] hydrogen phosphate
   46    48     1     0     0
SMALL
USER_CHARGES

@<TRIPOS>ATOM
      1 PG          6.1860   -4.8033   -4.4098 P.3       1 GTP         1.5447
      2 O1G         6.9474   -4.6073   -3.1178 O.co2     1 GTP        -0.8705
      3 O2G         5.6471   -6.1628   -4.7958 O.co2     1 GTP        -0.8705
      4 O3G         7.0987   -4.2389   -5.6404 O.3       1 GTP        -0.7914
      5 O3B         4.9733   -3.7135   -4.4822 O.3       1 GTP        -0.8116
      6 PB          5.0152   -2.0896   -4.3188 P.3       1 GTP         1.6738
      7 O1B         5.4233   -1.7553   -2.9013 O.co2     1 GTP        -0.8763
      8 O2B         5.7301   -1.4922   -5.5102 O.co2     1 GTP        -0.8763
      9 O3A         3.4281   -1.7650   -4.5203 O.3       1 GTP        -0.8005
     10 PA          2.1372   -2.2718   -3.6563 P.3       1 GTP         1.5754
     11 O1A         0.8958   -1.5923   -4.1925 O.co2     1 GTP        -0.8771
     12 O2A         2.2074   -3.7770   -3.5183 O.co2     1 GTP        -0.8771
     13 O5'         2.5245   -1.6648   -2.1878 O.3       1 GTP        -0.5809
     14 C5'         2.2816   -0.2918   -1.9206 C.3       1 GTP         0.1986
     15 C4'         2.7248    0.0226   -0.4980 C.3       1 GTP         0.0418
     16 O4'         2.4697    1.4219   -0.2462 O.3       1 GTP        -0.3505
     17 C3'         1.9404   -0.7419    0.5596 C.3       1 GTP         0.0909
     18 O3'         2.7418   -0.8086    1.7389 O.3       1 GTP        -0.6187
     19 C2'         0.7477    0.1630    0.7858 C.3       1 GTP         0.0706
     20 O2'         0.1373   -0.0577    2.0407 O.3       1 GTP        -0.6294
     21 C1'         1.3733    1.5427    0.6747 C.3       1 GTP         0.3895
     22 N9          0.4520    2.5240    0.1767 N.pl3     1 GTP        -0.4733
     23 C8          0.2012    2.8401   -1.0899 C.ar      1 GTP         0.2958
     24 N7         -0.7168    3.7990   -1.1981 N.pl3     1 GTP        -0.4933
     25 C5         -1.0645    4.1043    0.0896 C.ar      1 GTP        -0.1494
     26 C6         -2.0336    5.0870    0.5973 C.ar      1 GTP         0.7954
     27 O6         -2.6730    5.7839   -0.1834 O.2       1 GTP        -0.5729
     28 N1         -2.1539    5.1517    1.9868 N.2       1 GTP        -0.7443
     29 C2         -1.4288    4.3650    2.7566 C.ar      1 GTP         0.8831
     30 N2         -1.5126    4.3922    4.1250 N.pl3     1 GTP        -0.9204
     31 N3         -0.5167    3.4388    2.2748 N.pl3     1 GTP        -0.7173
     32 C4         -0.3638    3.3392    0.9318 C.ar      1 GTP         0.2626
     33 HOG3        7.3598   -3.2934   -5.6325 H         1 GTP         0.4102
     34 H5'         2.8432    0.3119   -2.6398 H         1 GTP         0.0289
     35 H5''        1.2128   -0.0927   -2.0428 H         1 GTP         0.0289
     36 H4'         3.8044   -0.1397   -0.4040 H         1 GTP         0.2056
     37 H3'         1.6764   -1.7639    0.2728 H         1 GTP         0.1140
     38 HO3'        3.5554   -1.2733    1.4914 H         1 GTP         0.4287
     39 H2'        -0.0011    0.0027    0.0003 H         1 GTP         0.0809
     40 HO2'       -0.1563   -0.9855    2.0596 H         1 GTP         0.4385
     41 H1'         1.7826    1.9024    1.6451 H         1 GTP         0.0794
     42 H8          0.6787    2.3803   -1.9373 H         1 GTP         0.3821
     43 HN21       -2.1462    5.0320    4.5446 H         1 GTP         0.4411
     44 HN22       -0.9365    3.7712    4.6440 H         1 GTP         0.4411
     45 H45         0.0318    2.8419    2.8816 H         1 GTP         0.4819
     46 H46        -1.0718    4.2049   -2.0526 H         1 GTP         0.5182
@<TRIPOS>BOND
     1    1    2 2
     2    1    3 1
     3    1    4 1
     4    1    5 1
     5    4   33 1
     6    5    6 1
     7    6    7 2
     8    6    8 1
     9    6    9 1
    10    9   10 1
    11   10   11 2
    12   10   12 1
    13   10   13 1
    14   13   14 1
    15   14   15 1
    16   14   34 1
    17   14   35 1
    18   15   16 1
    19   15   17 1
    20   15   36 1
    21   16   21 1
    22   17   18 1
    23   17   19 1
    24   17   37 1
    25   18   38 1
    26   19   20 1
    27   19   21 1
    28   19   39 1
    29   20   40 1
    30   21   22 1
    31   21   41 1
    32   22   23 ar
    33   22   32 ar
    34   23   24 ar
    35   23   42 1
    36   24   25 ar
    37   24   46 1
    38   25   26 ar
    39   25   32 ar
    40   26   27 2
    41   26   28 ar
    42   28   29 ar
    43   29   30 1
    44   29   31 ar
    45   30   43 1
    46   30   44 1
    47   31   32 ar
    48   31   45 1
@<TRIPOS>SUBSTRUCTURE
     1 GTP         1 GROUP 0 A     ****
@<TRIPOS>MOLECULE
[[[5-(2-amino-6-oxo-7,8-dihydro-3~{H}-purin-8-ylium-9-yl)-3,4-dihydroxy-tetrahydrofuran-2-yl]methoxy-oxido-phosphoryl]oxy-oxido-phosphoryl] hydrogen phosphate
   46    48     1     0     0
SMALL
USER_CHARGES

@<TRIPOS>ATOM
      1 PG         -6.5437   -5.9594    2.9186 P.3       1 GTP         1.5447
      2 O1G        -7.6627   -4.9767    3.1823 O.co2     1 GTP        -0.8705
      3 O2G        -6.8401   -7.4098    2.6083 O.co2     1 GTP        -0.8705
      4 O3G        -5.4960   -5.9004    4.1695 O.3       1 GTP        -0.7914
      5 O3B        -5.5715   -5.3574    1.7540 O.3       1 GTP        -0.8116
      6 PB         -4.1458   -5.9174    1.1889 P.3       1 GTP         1.6738
      7 O1B        -4.3265   -7.3558    0.7577 O.co2     1 GTP        -0.8763
      8 O2B        -3.5412   -4.8838    0.2649 O.co2     1 GTP        -0.8763
      9 O3A        -3.2784   -5.8672    2.5709 O.3       1 GTP        -0.8005
     10 PA         -1.7207   -6.2770    2.8455 P.3       1 GTP         1.5754
     11 O1A        -1.3736   -5.9369    4.2788 O.co2     1 GTP        -0.8771
     12 O2A        -1.4795   -7.6638    2.2902 O.co2     1 GTP        -0.8771
     13 O5'        -0.9724   -5.2440    1.8220 O.3       1 GTP        -0.5809
     14 C5'        -0.7840   -3.8935    2.2172 C.3       1 GTP         0.1986
     15 C4'        -0.0724   -3.1466    1.1027 C.3       1 GTP         0.0418
     16 O4'        -0.8674   -3.1929   -0.0945 O.3       1 GTP        -0.3505
     17 C3'         0.1338   -1.6715    1.4027 C.3       1 GTP         0.0909
     18 O3'         1.2893   -1.4445    2.1808 O.3       1 GTP        -0.6187
     19 C2'         0.2158   -1.0724    0.0128 C.3       1 GTP         0.0706
     20 O2'         1.5141   -1.2448   -0.5513 O.3       1 GTP        -0.6294
     21 C1'        -0.7897   -1.9176   -0.7583 C.3       1 GTP         0.3895
     22 N9         -2.1040   -1.3333   -0.7704 N.pl3     1 GTP        -0.4733
     23 C8         -3.0774   -1.4939    0.1205 C.ar      1 GTP         0.2958
     24 N7         -4.1709   -0.8031   -0.1972 N.pl3     1 GTP        -0.4933
     25 C5         -3.8606   -0.1662   -1.3678 C.ar      1 GTP        -0.1494
     26 C6         -4.6738    0.7391   -2.1934 C.ar      1 GTP         0.7954
     27 O6         -5.8186    1.0214   -1.8562 O.2       1 GTP        -0.5729
     28 N1         -4.0520    1.2260   -3.3448 N.2       1 GTP        -0.7443
     29 C2         -2.8155    0.8734   -3.6351 C.ar      1 GTP         0.8831
     30 N2         -2.1637    1.3257   -4.7536 N.pl3     1 GTP        -0.9204
     31 N3         -2.0511    0.0205   -2.8541 N.pl3     1 GTP        -0.7173
     32 C4         -2.6117   -0.4790   -1.7258 C.ar      1 GTP         0.2626
     33 HOG3       -4.7087   -6.4852    4.1471 H         1 GTP         0.4102
     34 H5'        -1.7618   -3.4448    2.4164 H         1 GTP         0.0289
     35 H5''       -0.1874   -3.8744    3.1341 H         1 GTP         0.0289
     36 H4'         0.8874   -3.6466    0.8805 H         1 GTP         0.2056
     37 H3'        -0.7376   -1.2333    1.9867 H         1 GTP         0.1140
     38 HO3'        1.3408   -0.4870    2.3219 H         1 GTP         0.4287
     39 H2'        -0.0384   -0.0310    0.0096 H         1 GTP         0.0809
     40 HO2'        2.1463   -0.7958    0.0370 H         1 GTP         0.4385
     41 H1'        -0.4769   -2.1002   -1.8093 H         1 GTP         0.0794
     42 H8         -3.0010   -2.1083    1.0004 H         1 GTP         0.3821
     43 HN21       -2.6485    1.9422   -5.3633 H         1 GTP         0.4411
     44 HN22       -1.2319    1.0195   -4.9110 H         1 GTP         0.4411
     45 H45        -1.1018   -0.2391   -3.0927 H         1 GTP         0.4819
     46 H46        -5.0365   -0.7653    0.3226 H         1 GTP         0.5182
@<TRIPOS>BOND
     1    1    2 2
     2    1    3 1
     3    1    4 1
     4    1    5 1
     5    4   33 1
     6    5    6 1
     7    6    7 2
     8    6    8 1
     9    6    9 1
    10    9   10 1
    11   10   11 2
    12   10   12 1
    13   10   13 1
    14   13   14 1
    15   14   15 1
    16   14   34 1
    17   14   35 1
    18   15   16 1
    19   15   17 1
    20   15   36 1
    21   16   21 1
    22   17   18 1
    23   17   19 1
    24   17   37 1
    25   18   38 1
    26   19   20 1
    27   19   21 1
    28   19   39 1
    29   20   40 1
    30   21   22 1
    31   21   41 1
    32   22   23 ar
    33   22   32 ar
    34   23   24 ar
    35   23   42 1
    36   24   25 ar
    37   24   46 1
    38   25   26 ar
    39   25   32 ar
    40   26   27 2
    41   26   28 ar
    42   28   29 ar
    43   29   30 1
    44   29   31 ar
    45   30   43 1
    46   30   44 1
    47   31   32 ar
    48   31   45 1
@<TRIPOS>SUBSTRUCTURE
     1 GTP         1 GROUP 0 A     ****
@<TRIPOS>MOLECULE
[[[5-(2-amino-6-oxo-7,8-dihydro-3~{H}-purin-8-ylium-9-yl)-3,4-dihydroxy-tetrahydrofuran-2-yl]methoxy-oxido-phosphoryl]oxy-oxido-phosphoryl] hydrogen phosphate
   46    48     1     0     0
SMALL
USER_CHARGES

@<TRIPOS>ATOM
      1 PG          5.5222    0.3779   -5.8673 P.3       1 GTP         1.5447
      2 O1G         6.0016    1.1401   -4.6521 O.co2     1 GTP        -0.8705
      3 O2G         6.1031    0.6531   -7.2364 O.co2     1 GTP        -0.8705
      4 O3G         3.8975    0.5133   -5.9568 O.3       1 GTP        -0.7914
      5 O3B         5.6199   -1.2226   -5.5631 O.3       1 GTP        -0.8116
      6 PB          5.0152   -2.0896   -4.3188 P.3       1 GTP         1.6738
      7 O1B         5.2682   -3.5572   -4.5823 O.co2     1 GTP        -0.8763
      8 O2B         5.4250   -1.4367   -3.0175 O.co2     1 GTP        -0.8763
      9 O3A         3.4281   -1.7650   -4.5203 O.3       1 GTP        -0.8005
     10 PA          2.1372   -2.2718   -3.6563 P.3       1 GTP         1.5754
     11 O1A         0.8958   -1.5923   -4.1925 O.co2     1 GTP        -0.8771
     12 O2A         2.2074   -3.7770   -3.5183 O.co2     1 GTP        -0.8771
     13 O5'         2.5245   -1.6648   -2.1878 O.3       1 GTP        -0.5809
     14 C5'         2.2816   -0.2918   -1.9206 C.3       1 GTP         0.1986
     15 C4'         2.7248    0.0226   -0.4980 C.3       1 GTP         0.0418
     16 O4'         2.4697    1.4219   -0.2462 O.3       1 GTP        -0.3505
     17 C3'         1.9404   -0.7419    0.5596 C.3       1 GTP         0.0909
     18 O3'         2.7418   -0.8086    1.7389 O.3       1 GTP        -0.6187
     19 C2'         0.7477    0.1630    0.7858 C.3       1 GTP         0.0706
     20 O2'         0.1373   -0.0577    2.0407 O.3       1 GTP        -0.6294
     21 C1'         1.3733    1.5427    0.6747 C.3       1 GTP         0.3895
     22 N9          0.4520    2.5240    0.1767 N.pl3     1 GTP        -0.4733
     23 C8         -0.2136    2.5096   -0.9739 C.ar      1 GTP         0.2958
     24 N7         -0.9896    3.5820   -1.1212 N.pl3     1 GTP        -0.4933
     25 C5         -0.7962    4.3186    0.0156 C.ar      1 GTP        -0.1494
     26 C6         -1.3875    5.6031    0.4192 C.ar      1 GTP         0.7954
     27 O6         -2.1869    6.1731   -0.3158 O.2       1 GTP        -0.5729
     28 N1         -0.9745    6.0930    1.6597 N.2       1 GTP        -0.7443
     29 C2         -0.1105    5.4166    2.3900 C.ar      1 GTP         0.8831
     30 N2          0.3241    5.8571    3.6138 N.pl3     1 GTP        -0.9204
     31 N3          0.4444    4.2053    2.0072 N.pl3     1 GTP        -0.7173
     32 C4          0.0746    3.6889    0.8098 C.ar      1 GTP         0.2626
     33 HOG3        3.4321    0.0696   -6.6975 H         1 GTP         0.4102
     34 H5'         2.8432    0.3119   -2.6398 H         1 GTP         0.0289
     35 H5''        1.2128   -0.0927   -2.0428 H         1 GTP         0.0289
     36 H4'         3.8044   -0.1397   -0.4040 H         1 GTP         0.2056
     37 H3'         1.6764   -1.7639    0.2728 H         1 GTP         0.1140
     38 HO3'        2.2232   -1.2979    2.3953 H         1 GTP         0.4287
     39 H2'        -0.0011    0.0027    0.0003 H         1 GTP         0.0809
     40 HO2'       -0.6141    0.5574    2.1082 H         1 GTP         0.4385
     41 H1'         1.7826    1.9024    1.6451 H         1 GTP         0.0794
     42 H8         -0.1415    1.7265   -1.7082 H         1 GTP         0.3821
     43 HN21       -0.0303    6.7197    3.9559 H         1 GTP         0.4411
     44 HN22        0.9765    5.2967    4.1108 H         1 GTP         0.4411
     45 H45         1.1068    3.6990    2.5819 H         1 GTP         0.4819
     46 H46        -1.5877    3.7943   -1.9074 H         1 GTP         0.5182
@<TRIPOS>BOND
     1    1    2 2
     2    1    3 1
     3    1    4 1
     4    1    5 1
     5    4   33 1
     6    5    6 1
     7    6    7 2
     8    6    8 1
     9    6    9 1
    10    9   10 1
    11   10   11 2
    12   10   12 1
    13   10   13 1
    14   13   14 1
    15   14   15 1
    16   14   34 1
    17   14   35 1
    18   15   16 1
    19   15   17 1
    20   15   36 1
    21   16   21 1
    22   17   18 1
    23   17   19 1
    24   17   37 1
    25   18   38 1
    26   19   20 1
    27   19   21 1
    28   19   39 1
    29   20   40 1
    30   21   22 1
    31   21   41 1
    32   22   23 ar
    33   22   32 ar
    34   23   24 ar
    35   23   42 1
    36   24   25 ar
    37   24   46 1
    38   25   26 ar
    39   25   32 ar
    40   26   27 2
    41   26   28 ar
    42   28   29 ar
    43   29   30 1
    44   29   31 ar
    45   30   43 1
    46   30   44 1
    47   31   32 ar
    48   31   45 1
@<TRIPOS>SUBSTRUCTURE
     1 GTP         1 GROUP 0 A     ****
@<TRIPOS>MOLECULE
[[[5-(2-amino-6-oxo-7,8-dihydro-3~{H}-purin-8-ylium-9-yl)-3,4-dihydroxy-tetrahydrofuran-2-yl]methoxy-oxido-phosphoryl]oxy-oxido-phosphoryl] hydrogen phosphate
   46    48     1     0     0
SMALL
USER_CHARGES

@<TRIPOS>ATOM
      1 PG          7.3462    0.2879   -5.8965 P.3       1 GTP         1.5447
      2 O1G         8.0201    0.8256   -4.6539 O.co2     1 GTP        -0.8705
      3 O2G         7.9598   -0.8487   -6.6836 O.co2     1 GTP        -0.8705
      4 O3G         7.0677    1.5330   -6.9154 O.3       1 GTP        -0.7914
      5 O3B         5.7989   -0.0901   -5.5403 O.3       1 GTP        -0.8116
      6 PB          5.2054   -1.2550   -4.5625 P.3       1 GTP         1.6738
      7 O1B         5.5503   -2.6047   -5.1515 O.co2     1 GTP        -0.8763
      8 O2B         5.5352   -0.9098   -3.1274 O.co2     1 GTP        -0.8763
      9 O3A         3.6096   -0.9687   -4.7528 O.3       1 GTP        -0.8005
     10 PA          2.7407    0.3769   -4.4297 P.3       1 GTP         1.5754
     11 O1A         3.3568    1.5435   -5.1712 O.co2     1 GTP        -0.8771
     12 O2A         1.2702    0.0493   -4.5704 O.co2     1 GTP        -0.8771
     13 O5'         3.0213    0.5153   -2.8245 O.3       1 GTP        -0.5809
     14 C5'         2.2816   -0.2918   -1.9206 C.3       1 GTP         0.1986
     15 C4'         2.7248    0.0226   -0.4980 C.3       1 GTP         0.0418
     16 O4'         2.4697    1.4219   -0.2462 O.3       1 GTP        -0.3505
     17 C3'         1.9404   -0.7419    0.5596 C.3       1 GTP         0.0909
     18 O3'         2.7418   -0.8086    1.7389 O.3       1 GTP        -0.6187
     19 C2'         0.7477    0.1630    0.7858 C.3       1 GTP         0.0706
     20 O2'         0.1373   -0.0577    2.0407 O.3       1 GTP        -0.6294
     21 C1'         1.3733    1.5427    0.6747 C.3       1 GTP         0.3895
     22 N9          0.4520    2.5240    0.1767 N.pl3     1 GTP        -0.4733
     23 C8         -0.2136    2.5096   -0.9739 C.ar      1 GTP         0.2958
     24 N7         -0.9896    3.5820   -1.1212 N.pl3     1 GTP        -0.4933
     25 C5         -0.7962    4.3186    0.0156 C.ar      1 GTP        -0.1494
     26 C6         -1.3875    5.6031    0.4192 C.ar      1 GTP         0.7954
     27 O6         -2.1869    6.1731   -0.3158 O.2       1 GTP        -0.5729
     28 N1         -0.9745    6.0930    1.6597 N.2       1 GTP        -0.7443
     29 C2         -0.1105    5.4166    2.3900 C.ar      1 GTP         0.8831
     30 N2          0.3241    5.8571    3.6138 N.pl3     1 GTP        -0.9204
     31 N3          0.4444    4.2053    2.0072 N.pl3     1 GTP        -0.7173
     32 C4          0.0746    3.6889    0.8098 C.ar      1 GTP         0.2626
     33 HOG3        6.6319    1.3452   -7.7740 H         1 GTP         0.4102
     34 H5'         1.2163   -0.0770   -2.0471 H         1 GTP         0.0289
     35 H5''        2.4655   -1.3443   -2.1563 H         1 GTP         0.0289
     36 H4'         3.8044   -0.1397   -0.4040 H         1 GTP         0.2056
     37 H3'         1.6764   -1.7639    0.2728 H         1 GTP         0.1140
     38 HO3'        2.2232   -1.2979    2.3953 H         1 GTP         0.4287
     39 H2'        -0.0011    0.0027    0.0003 H         1 GTP         0.0809
     40 HO2'       -0.1563   -0.9855    2.0596 H         1 GTP         0.4385
     41 H1'         1.7826    1.9024    1.6451 H         1 GTP         0.0794
     42 H8         -0.1415    1.7265   -1.7082 H         1 GTP         0.3821
     43 HN21       -0.0303    6.7197    3.9559 H         1 GTP         0.4411
     44 HN22        0.9765    5.2967    4.1108 H         1 GTP         0.4411
     45 H45         1.1068    3.6990    2.5819 H         1 GTP         0.4819
     46 H46        -1.5877    3.7943   -1.9074 H         1 GTP         0.5182
@<TRIPOS>BOND
     1    1    2 2
     2    1    3 1
     3    1    4 1
     4    1    5 1
     5    4   33 1
     6    5    6 1
     7    6    7 2
     8    6    8 1
     9    6    9 1
    10    9   10 1
    11   10   11 2
    12   10   12 1
    13   10   13 1
    14   13   14 1
    15   14   15 1
    16   14   34 1
    17   14   35 1
    18   15   16 1
    19   15   17 1
    20   15   36 1
    21   16   21 1
    22   17   18 1
    23   17   19 1
    24   17   37 1
    25   18   38 1
    26   19   20 1
    27   19   21 1
    28   19   39 1
    29   20   40 1
    30   21   22 1
    31   21   41 1
    32   22   23 ar
    33   22   32 ar
    34   23   24 ar
    35   23   42 1
    36   24   25 ar
    37   24   46 1
    38   25   26 ar
    39   25   32 ar
    40   26   27 2
    41   26   28 ar
    42   28   29 ar
    43   29   30 1
    44   29   31 ar
    45   30   43 1
    46   30   44 1
    47   31   32 ar
    48   31   45 1
@<TRIPOS>SUBSTRUCTURE
     1 GTP         1 GROUP 0 A     ****
@<TRIPOS>MOLECULE
[[[5-(2-amino-6-oxo-7,8-dihydro-3~{H}-purin-8-ylium-9-yl)-3,4-dihydroxy-tetrahydrofuran-2-yl]methoxy-oxido-phosphoryl]oxy-oxido-phosphoryl] hydrogen phosphate
   46    48     1     0     0
SMALL
USER_CHARGES

@<TRIPOS>ATOM
      1 PG          6.6757   -3.2165   -5.1700 P.3       1 GTP         1.5447
      2 O1G         7.3968   -2.6044   -6.3501 O.co2     1 GTP        -0.8705
      3 O2G         7.3343   -3.2916   -3.8104 O.co2     1 GTP        -0.8705
      4 O3G         6.1759   -4.7139   -5.5873 O.3       1 GTP        -0.7914
      5 O3B         5.2157   -2.5044   -5.0119 O.3       1 GTP        -0.8116
      6 PB          3.9753   -2.8714   -4.0157 P.3       1 GTP         1.6738
      7 O1B         3.4312   -4.2295   -4.3990 O.co2     1 GTP        -0.8763
      8 O2B         4.3744   -2.5512   -2.5924 O.co2     1 GTP        -0.8763
      9 O3A         2.9205   -1.7124   -4.4729 O.3       1 GTP        -0.8005
     10 PA          3.0675   -0.0857   -4.4293 P.3       1 GTP         1.5754
     11 O1A         4.3144    0.3107   -5.1899 O.co2     1 GTP        -0.8771
     12 O2A         1.7243    0.5309   -4.7535 O.co2     1 GTP        -0.8771
     13 O5'         3.2903    0.1346   -2.8241 O.3       1 GTP        -0.5809
     14 C5'         2.2816   -0.2918   -1.9206 C.3       1 GTP         0.1986
     15 C4'         2.7248    0.0226   -0.4980 C.3       1 GTP         0.0418
     16 O4'         2.4697    1.4219   -0.2462 O.3       1 GTP        -0.3505
     17 C3'         1.9404   -0.7419    0.5596 C.3       1 GTP         0.0909
     18 O3'         2.7418   -0.8086    1.7389 O.3       1 GTP        -0.6187
     19 C2'         0.7477    0.1630    0.7858 C.3       1 GTP         0.0706
     20 O2'         0.1373   -0.0577    2.0407 O.3       1 GTP        -0.6294
     21 C1'         1.3733    1.5427    0.6747 C.3       1 GTP         0.3895
     22 N9          0.4520    2.5240    0.1767 N.pl3     1 GTP        -0.4733
     23 C8          0.2012    2.8401   -1.0899 C.ar      1 GTP         0.2958
     24 N7         -0.7168    3.7990   -1.1981 N.pl3     1 GTP        -0.4933
     25 C5         -1.0645    4.1043    0.0896 C.ar      1 GTP        -0.1494
     26 C6         -2.0336    5.0870    0.5973 C.ar      1 GTP         0.7954
     27 O6         -2.6730    5.7839   -0.1834 O.2       1 GTP        -0.5729
     28 N1         -2.1539    5.1517    1.9868 N.2       1 GTP        -0.7443
     29 C2         -1.4288    4.3650    2.7566 C.ar      1 GTP         0.8831
     30 N2         -1.5126    4.3922    4.1250 N.pl3     1 GTP        -0.9204
     31 N3         -0.5167    3.4388    2.2748 N.pl3     1 GTP        -0.7173
     32 C4         -0.3638    3.3392    0.9318 C.ar      1 GTP         0.2626
     33 HOG3        5.6877   -5.2452   -4.9228 H         1 GTP         0.4102
     34 H5'         1.3514    0.2330   -2.1577 H         1 GTP         0.0289
     35 H5''        2.1280   -1.3678   -2.0460 H         1 GTP         0.0289
     36 H4'         3.8044   -0.1397   -0.4040 H         1 GTP         0.2056
     37 H3'         1.6764   -1.7639    0.2728 H         1 GTP         0.1140
     38 HO3'        3.5554   -1.2733    1.4914 H         1 GTP         0.4287
     39 H2'        -0.0011    0.0027    0.0003 H         1 GTP         0.0809
     40 HO2'       -0.1563   -0.9855    2.0596 H         1 GTP         0.4385
     41 H1'         1.7826    1.9024    1.6451 H         1 GTP         0.0794
     42 H8          0.6787    2.3803   -1.9373 H         1 GTP         0.3821
     43 HN21       -2.1462    5.0320    4.5446 H         1 GTP         0.4411
     44 HN22       -0.9365    3.7712    4.6440 H         1 GTP         0.4411
     45 H45         0.0318    2.8419    2.8816 H         1 GTP         0.4819
     46 H46        -1.0718    4.2049   -2.0526 H         1 GTP         0.5182
@<TRIPOS>BOND
     1    1    2 2
     2    1    3 1
     3    1    4 1
     4    1    5 1
     5    4   33 1
     6    5    6 1
     7    6    7 2
     8    6    8 1
     9    6    9 1
    10    9   10 1
    11   10   11 2
    12   10   12 1
    13   10   13 1
    14   13   14 1
    15   14   15 1
    16   14   34 1
    17   14   35 1
    18   15   16 1
    19   15   17 1
    20   15   36 1
    21   16   21 1
    22   17   18 1
    23   17   19 1
    24   17   37 1
    25   18   38 1
    26   19   20 1
    27   19   21 1
    28   19   39 1
    29   20   40 1
    30   21   22 1
    31   21   41 1
    32   22   23 ar
    33   22   32 ar
    34   23   24 ar
    35   23   42 1
    36   24   25 ar
    37   24   46 1
    38   25   26 ar
    39   25   32 ar
    40   26   27 2
    41   26   28 ar
    42   28   29 ar
    43   29   30 1
    44   29   31 ar
    45   30   43 1
    46   30   44 1
    47   31   32 ar
    48   31   45 1
@<TRIPOS>SUBSTRUCTURE
     1 GTP         1 GROUP 0 A     ****
@<TRIPOS>MOLECULE
[[[5-(2-amino-6-oxo-7,8-dihydro-3~{H}-purin-8-ylium-9-yl)-3,4-dihydroxy-tetrahydrofuran-2-yl]methoxy-oxido-phosphoryl]oxy-oxido-phosphoryl] hydrogen phosphate
   46    48     1     0     0
SMALL
USER_CHARGES

@<TRIPOS>ATOM
      1 PG          0.0446   -0.2501   -7.5450 P.3       1 GTP         1.5447
      2 O1G         0.4702    0.9343   -8.3837 O.co2     1 GTP        -0.8705
      3 O2G        -0.4118   -1.5380   -8.1936 O.co2     1 GTP        -0.8705
      4 O3G        -1.1102    0.2420   -6.5008 O.3       1 GTP        -0.7914
      5 O3B         1.2229   -0.5890   -6.4677 O.3       1 GTP        -0.8116
      6 PB          1.2344   -1.6547   -5.2309 P.3       1 GTP         1.6738
      7 O1B         0.2210   -1.2114   -4.1995 O.co2     1 GTP        -0.8763
      8 O2B         1.2319   -3.0598   -5.7905 O.co2     1 GTP        -0.8763
      9 O3A         2.7418   -1.3839   -4.6658 O.3       1 GTP        -0.8005
     10 PA          3.5300   -2.0730   -3.4114 P.3       1 GTP         1.5754
     11 O1A         3.5355   -3.5739   -3.6057 O.co2     1 GTP        -0.8771
     12 O2A         4.8145   -1.3109   -3.1689 O.co2     1 GTP        -0.8771
     13 O5'         2.5245   -1.6648   -2.1878 O.3       1 GTP        -0.5809
     14 C5'         2.2816   -0.2918   -1.9206 C.3       1 GTP         0.1986
     15 C4'         2.7248    0.0226   -0.4980 C.3       1 GTP         0.0418
     16 O4'         2.4697    1.4219   -0.2462 O.3       1 GTP        -0.3505
     17 C3'         1.9404   -0.7419    0.5596 C.3       1 GTP         0.0909
     18 O3'         2.7418   -0.8086    1.7389 O.3       1 GTP        -0.6187
     19 C2'         0.7477    0.1630    0.7858 C.3       1 GTP         0.0706
     20 O2'         0.1373   -0.0577    2.0407 O.3       1 GTP        -0.6294
     21 C1'         1.3733    1.5427    0.6747 C.3       1 GTP         0.3895
     22 N9          0.4520    2.5240    0.1767 N.pl3     1 GTP        -0.4733
     23 C8          0.2012    2.8401   -1.0899 C.ar      1 GTP         0.2958
     24 N7         -0.7168    3.7990   -1.1981 N.pl3     1 GTP        -0.4933
     25 C5         -1.0645    4.1043    0.0896 C.ar      1 GTP        -0.1494
     26 C6         -2.0336    5.0870    0.5973 C.ar      1 GTP         0.7954
     27 O6         -2.6730    5.7839   -0.1834 O.2       1 GTP        -0.5729
     28 N1         -2.1539    5.1517    1.9868 N.2       1 GTP        -0.7443
     29 C2         -1.4288    4.3650    2.7566 C.ar      1 GTP         0.8831
     30 N2         -1.5126    4.3922    4.1250 N.pl3     1 GTP        -0.9204
     31 N3         -0.5167    3.4388    2.2748 N.pl3     1 GTP        -0.7173
     32 C4         -0.3638    3.3392    0.9318 C.ar      1 GTP         0.2626
     33 HOG3       -1.4920   -0.4169   -5.8825 H         1 GTP         0.4102
     34 H5'         2.8432    0.3119   -2.6398 H         1 GTP         0.0289
     35 H5''        1.2128   -0.0927   -2.0428 H         1 GTP         0.0289
     36 H4'         3.8044   -0.1397   -0.4040 H         1 GTP         0.2056
     37 H3'         1.6764   -1.7639    0.2728 H         1 GTP         0.1140
     38 HO3'        2.2232   -1.2979    2.3953 H         1 GTP         0.4287
     39 H2'        -0.0011    0.0027    0.0003 H         1 GTP         0.0809
     40 HO2'       -0.1563   -0.9855    2.0596 H         1 GTP         0.4385
     41 H1'         1.7826    1.9024    1.6451 H         1 GTP         0.0794
     42 H8          0.6787    2.3803   -1.9373 H         1 GTP         0.3821
     43 HN21       -2.1462    5.0320    4.5446 H         1 GTP         0.4411
     44 HN22       -0.9365    3.7712    4.6440 H         1 GTP         0.4411
     45 H45         0.0318    2.8419    2.8816 H         1 GTP         0.4819
     46 H46        -1.0718    4.2049   -2.0526 H         1 GTP         0.5182
@<TRIPOS>BOND
     1    1    2 2
     2    1    3 1
     3    1    4 1
     4    1    5 1
     5    4   33 1
     6    5    6 1
     7    6    7 2
     8    6    8 1
     9    6    9 1
    10    9   10 1
    11   10   11 2
    12   10   12 1
    13   10   13 1
    14   13   14 1
    15   14   15 1
    16   14   34 1
    17   14   35 1
    18   15   16 1
    19   15   17 1
    20   15   36 1
    21   16   21 1
    22   17   18 1
    23   17   19 1
    24   17   37 1
    25   18   38 1
    26   19   20 1
    27   19   21 1
    28   19   39 1
    29   20   40 1
    30   21   22 1
    31   21   41 1
    32   22   23 ar
    33   22   32 ar
    34   23   24 ar
    35   23   42 1
    36   24   25 ar
    37   24   46 1
    38   25   26 ar
    39   25   32 ar
    40   26   27 2
    41   26   28 ar
    42   28   29 ar
    43   29   30 1
    44   29   31 ar
    45   30   43 1
    46   30   44 1
    47   31   32 ar
    48   31   45 1
@<TRIPOS>SUBSTRUCTURE
     1 GTP         1 GROUP 0 A     ****
@<TRIPOS>MOLECULE
[[[5-(2-amino-6-oxo-7,8-dihydro-3~{H}-purin-8-ylium-9-yl)-3,4-dihydroxy-tetrahydrofuran-2-yl]methoxy-oxido-phosphoryl]oxy-oxido-phosphoryl] hydrogen phosphate
   46    48     1     0     0
SMALL
USER_CHARGES

@<TRIPOS>ATOM
      1 PG         -2.2131   -0.1647   -3.6025 P.3       1 GTP         1.5447
      2 O1G        -3.4682   -0.0162   -4.4333 O.co2     1 GTP        -0.8705
      3 O2G        -2.0571    0.5729   -2.2913 O.co2     1 GTP        -0.8705
      4 O3G        -0.9240    0.1751   -4.5451 O.3       1 GTP        -0.7914
      5 O3B        -1.9254   -1.7519   -3.3540 O.3       1 GTP        -0.8116
      6 PB         -0.6416   -2.4864   -2.6626 P.3       1 GTP         1.6738
      7 O1B        -0.4248   -1.8921   -1.2888 O.co2     1 GTP        -0.8763
      8 O2B        -0.7573   -3.9802   -2.8698 O.co2     1 GTP        -0.8763
      9 O3A         0.5318   -1.9682   -3.6723 O.3       1 GTP        -0.8005
     10 PA          2.1372   -2.2718   -3.6563 P.3       1 GTP         1.5754
     11 O1A         2.3492   -3.7701   -3.6757 O.co2     1 GTP        -0.8771
     12 O2A         2.8102   -1.3732   -4.6709 O.co2     1 GTP        -0.8771
     13 O5'         2.5245   -1.6648   -2.1878 O.3       1 GTP        -0.5809
     14 C5'         2.2816   -0.2918   -1.9206 C.3       1 GTP         0.1986
     15 C4'         2.7248    0.0226   -0.4980 C.3       1 GTP         0.0418
     16 O4'         2.4697    1.4219   -0.2462 O.3       1 GTP        -0.3505
     17 C3'         1.9404   -0.7419    0.5596 C.3       1 GTP         0.0909
     18 O3'         2.7418   -0.8086    1.7389 O.3       1 GTP        -0.6187
     19 C2'         0.7477    0.1630    0.7858 C.3       1 GTP         0.0706
     20 O2'         0.1373   -0.0577    2.0407 O.3       1 GTP        -0.6294
     21 C1'         1.3733    1.5427    0.6747 C.3       1 GTP         0.3895
     22 N9          0.4520    2.5240    0.1767 N.pl3     1 GTP        -0.4733
     23 C8          0.2012    2.8401   -1.0899 C.ar      1 GTP         0.2958
     24 N7         -0.7168    3.7990   -1.1981 N.pl3     1 GTP        -0.4933
     25 C5         -1.0645    4.1043    0.0896 C.ar      1 GTP        -0.1494
     26 C6         -2.0336    5.0870    0.5973 C.ar      1 GTP         0.7954
     27 O6         -2.6730    5.7839   -0.1834 O.2       1 GTP        -0.5729
     28 N1         -2.1539    5.1517    1.9868 N.2       1 GTP        -0.7443
     29 C2         -1.4288    4.3650    2.7566 C.ar      1 GTP         0.8831
     30 N2         -1.5126    4.3922    4.1250 N.pl3     1 GTP        -0.9204
     31 N3         -0.5167    3.4388    2.2748 N.pl3     1 GTP        -0.7173
     32 C4         -0.3638    3.3392    0.9318 C.ar      1 GTP         0.2626
     33 HOG3       -0.0285    0.1227   -4.1480 H         1 GTP         0.4102
     34 H5'         2.8432    0.3119   -2.6398 H         1 GTP         0.0289
     35 H5''        1.2128   -0.0927   -2.0428 H         1 GTP         0.0289
     36 H4'         3.8044   -0.1397   -0.4040 H         1 GTP         0.2056
     37 H3'         1.6764   -1.7639    0.2728 H         1 GTP         0.1140
     38 HO3'        2.2232   -1.2979    2.3953 H         1 GTP         0.4287
     39 H2'        -0.0011    0.0027    0.0003 H         1 GTP         0.0809
     40 HO2'       -0.6141    0.5574    2.1082 H         1 GTP         0.4385
     41 H1'         1.7826    1.9024    1.6451 H         1 GTP         0.0794
     42 H8          0.6787    2.3803   -1.9373 H         1 GTP         0.3821
     43 HN21       -2.1462    5.0320    4.5446 H         1 GTP         0.4411
     44 HN22       -0.9365    3.7712    4.6440 H         1 GTP         0.4411
     45 H45         0.0318    2.8419    2.8816 H         1 GTP         0.4819
     46 H46        -1.0718    4.2049   -2.0526 H         1 GTP         0.5182
@<TRIPOS>BOND
     1    1    2 2
     2    1    3 1
     3    1    4 1
     4    1    5 1
     5    4   33 1
     6    5    6 1
     7    6    7 2
     8    6    8 1
     9    6    9 1
    10    9   10 1
    11   10   11 2
    12   10   12 1
    13   10   13 1
    14   13   14 1
    15   14   15 1
    16   14   34 1
    17   14   35 1
    18   15   16 1
    19   15   17 1
    20   15   36 1
    21   16   21 1
    22   17   18 1
    23   17   19 1
    24   17   37 1
    25   18   38 1
    26   19   20 1
    27   19   21 1
    28   19   39 1
    29   20   40 1
    30   21   22 1
    31   21   41 1
    32   22   23 ar
    33   22   32 ar
    34   23   24 ar
    35   23   42 1
    36   24   25 ar
    37   24   46 1
    38   25   26 ar
    39   25   32 ar
    40   26   27 2
    41   26   28 ar
    42   28   29 ar
    43   29   30 1
    44   29   31 ar
    45   30   43 1
    46   30   44 1
    47   31   32 ar
    48   31   45 1
@<TRIPOS>SUBSTRUCTURE
     1 GTP         1 GROUP 0 A     ****
@<TRIPOS>MOLECULE
[[[5-(2-amino-6-oxo-7,8-dihydro-3~{H}-purin-8-ylium-9-yl)-3,4-dihydroxy-tetrahydrofuran-2-yl]methoxy-oxido-phosphoryl]oxy-oxido-phosphoryl] hydrogen phosphate
   46    48     1     0     0
SMALL
USER_CHARGES

@<TRIPOS>ATOM
      1 PG         -0.4620    0.5660   -5.7657 P.3       1 GTP         1.5447
      2 O1G        -1.3591    0.9481   -6.9218 O.co2     1 GTP        -0.8705
      3 O2G        -1.0114    0.4482   -4.3614 O.co2     1 GTP        -0.8705
      4 O3G         0.8130    1.5857   -5.7397 O.3       1 GTP        -0.7914
      5 O3B         0.3307   -0.8105   -6.1408 O.3       1 GTP        -0.8116
      6 PB          1.5232   -1.5830   -5.3367 P.3       1 GTP         1.6738
      7 O1B         1.8140   -2.8903   -6.0395 O.co2     1 GTP        -0.8763
      8 O2B         2.6225   -0.5949   -5.0160 O.co2     1 GTP        -0.8763
      9 O3A         0.7434   -1.8799   -3.9337 O.3       1 GTP        -0.8005
     10 PA          1.2681   -2.6345   -2.5827 P.3       1 GTP         1.5754
     11 O1A         0.1879   -2.5477   -1.5263 O.co2     1 GTP        -0.8771
     12 O2A         1.8736   -3.9646   -2.9750 O.co2     1 GTP        -0.8771
     13 O5'         2.5245   -1.6648   -2.1878 O.3       1 GTP        -0.5809
     14 C5'         2.2816   -0.2918   -1.9206 C.3       1 GTP         0.1986
     15 C4'         2.7248    0.0226   -0.4980 C.3       1 GTP         0.0418
     16 O4'         2.4697    1.4219   -0.2462 O.3       1 GTP        -0.3505
     17 C3'         1.9404   -0.7419    0.5596 C.3       1 GTP         0.0909
     18 O3'         2.7418   -0.8086    1.7389 O.3       1 GTP        -0.6187
     19 C2'         0.7477    0.1630    0.7858 C.3       1 GTP         0.0706
     20 O2'         0.1373   -0.0577    2.0407 O.3       1 GTP        -0.6294
     21 C1'         1.3733    1.5427    0.6747 C.3       1 GTP         0.3895
     22 N9          0.4520    2.5240    0.1767 N.pl3     1 GTP        -0.4733
     23 C8          0.2012    2.8401   -1.0899 C.ar      1 GTP         0.2958
     24 N7         -0.7168    3.7990   -1.1981 N.pl3     1 GTP        -0.4933
     25 C5         -1.0645    4.1043    0.0896 C.ar      1 GTP        -0.1494
     26 C6         -2.0336    5.0870    0.5973 C.ar      1 GTP         0.7954
     27 O6         -2.6730    5.7839   -0.1834 O.2       1 GTP        -0.5729
     28 N1         -2.1539    5.1517    1.9868 N.2       1 GTP        -0.7443
     29 C2         -1.4288    4.3650    2.7566 C.ar      1 GTP         0.8831
     30 N2         -1.5126    4.3922    4.1250 N.pl3     1 GTP        -0.9204
     31 N3         -0.5167    3.4388    2.2748 N.pl3     1 GTP        -0.7173
     32 C4         -0.3638    3.3392    0.9318 C.ar      1 GTP         0.2626
     33 HOG3        1.4917    1.4669   -5.0414 H         1 GTP         0.4102
     34 H5'         2.8432    0.3119   -2.6398 H         1 GTP         0.0289
     35 H5''        1.2128   -0.0927   -2.0428 H         1 GTP         0.0289
     36 H4'         3.8044   -0.1397   -0.4040 H         1 GTP         0.2056
     37 H3'         1.6764   -1.7639    0.2728 H         1 GTP         0.1140
     38 HO3'        2.2232   -1.2979    2.3953 H         1 GTP         0.4287
     39 H2'        -0.0011    0.0027    0.0003 H         1 GTP         0.0809
     40 HO2'       -0.6141    0.5574    2.1082 H         1 GTP         0.4385
     41 H1'         1.7826    1.9024    1.6451 H         1 GTP         0.0794
     42 H8          0.6787    2.3803   -1.9373 H         1 GTP         0.3821
     43 HN21       -2.1462    5.0320    4.5446 H         1 GTP         0.4411
     44 HN22       -0.9365    3.7712    4.6440 H         1 GTP         0.4411
     45 H45         0.0318    2.8419    2.8816 H         1 GTP         0.4819
     46 H46        -1.0718    4.2049   -2.0526 H         1 GTP         0.5182
@<TRIPOS>BOND
     1    1    2 2
     2    1    3 1
     3    1    4 1
     4    1    5 1
     5    4   33 1
     6    5    6 1
     7    6    7 2
     8    6    8 1
     9    6    9 1
    10    9   10 1
    11   10   11 2
    12   10   12 1
    13   10   13 1
    14   13   14 1
    15   14   15 1
    16   14   34 1
    17   14   35 1
    18   15   16 1
    19   15   17 1
    20   15   36 1
    21   16   21 1
    22   17   18 1
    23   17   19 1
    24   17   37 1
    25   18   38 1
    26   19   20 1
    27   19   21 1
    28   19   39 1
    29   20   40 1
    30   21   22 1
    31   21   41 1
    32   22   23 ar
    33   22   32 ar
    34   23   24 ar
    35   23   42 1
    36   24   25 ar
    37   24   46 1
    38   25   26 ar
    39   25   32 ar
    40   26   27 2
    41   26   28 ar
    42   28   29 ar
    43   29   30 1
    44   29   31 ar
    45   30   43 1
    46   30   44 1
    47   31   32 ar
    48   31   45 1
@<TRIPOS>SUBSTRUCTURE
     1 GTP         1 GROUP 0 A     ****
@<TRIPOS>MOLECULE
[[[5-(2-amino-6-oxo-7,8-dihydro-3~{H}-purin-8-ylium-9-yl)-3,4-dihydroxy-tetrahydrofuran-2-yl]methoxy-oxido-phosphoryl]oxy-oxido-phosphoryl] hydrogen phosphate
   46    48     1     0     0
SMALL
USER_CHARGES

@<TRIPOS>ATOM
      1 PG          6.5681   -5.0659   -2.7129 P.3       1 GTP         1.5447
      2 O1G         7.9614   -4.8917   -3.2748 O.co2     1 GTP        -0.8705
      3 O2G         6.3464   -5.2537   -1.2286 O.co2     1 GTP        -0.8705
      4 O3G         5.8390   -6.2933   -3.5053 O.3       1 GTP        -0.7914
      5 O3B         5.6268   -3.8401   -3.2374 O.3       1 GTP        -0.8116
      6 PB          5.7003   -2.2452   -2.8964 P.3       1 GTP         1.6738
      7 O1B         5.3878   -2.0480   -1.4298 O.co2     1 GTP        -0.8763
      8 O2B         6.9465   -1.6632   -3.5256 O.co2     1 GTP        -0.8763
      9 O3A         4.4413   -1.7265   -3.7968 O.3       1 GTP        -0.8005
     10 PA          2.8603   -2.1317   -3.7189 P.3       1 GTP         1.5754
     11 O1A         2.0908   -1.2810   -4.7060 O.co2     1 GTP        -0.8771
     12 O2A         2.7458   -3.6405   -3.7305 O.co2     1 GTP        -0.8771
     13 O5'         2.5245   -1.6648   -2.1878 O.3       1 GTP        -0.5809
     14 C5'         2.2816   -0.2918   -1.9206 C.3       1 GTP         0.1986
     15 C4'         2.7248    0.0226   -0.4980 C.3       1 GTP         0.0418
     16 O4'         2.4697    1.4219   -0.2462 O.3       1 GTP        -0.3505
     17 C3'         1.9404   -0.7419    0.5596 C.3       1 GTP         0.0909
     18 O3'         2.7418   -0.8086    1.7389 O.3       1 GTP        -0.6187
     19 C2'         0.7477    0.1630    0.7858 C.3       1 GTP         0.0706
     20 O2'         0.1373   -0.0577    2.0407 O.3       1 GTP        -0.6294
     21 C1'         1.3733    1.5427    0.6747 C.3       1 GTP         0.3895
     22 N9          0.4520    2.5240    0.1767 N.pl3     1 GTP        -0.4733
     23 C8         -0.2136    2.5096   -0.9739 C.ar      1 GTP         0.2958
     24 N7         -0.9896    3.5820   -1.1212 N.pl3     1 GTP        -0.4933
     25 C5         -0.7962    4.3186    0.0156 C.ar      1 GTP        -0.1494
     26 C6         -1.3875    5.6031    0.4192 C.ar      1 GTP         0.7954
     27 O6         -2.1869    6.1731   -0.3158 O.2       1 GTP        -0.5729
     28 N1         -0.9745    6.0930    1.6597 N.2       1 GTP        -0.7443
     29 C2         -0.1105    5.4166    2.3900 C.ar      1 GTP         0.8831
     30 N2          0.3241    5.8571    3.6138 N.pl3     1 GTP        -0.9204
     31 N3          0.4444    4.2053    2.0072 N.pl3     1 GTP        -0.7173
     32 C4          0.0746    3.6889    0.8098 C.ar      1 GTP         0.2626
     33 HOG3        4.9214   -6.5318   -3.2537 H         1 GTP         0.4102
     34 H5'         2.8432    0.3119   -2.6398 H         1 GTP         0.0289
     35 H5''        1.2128   -0.0927   -2.0428 H         1 GTP         0.0289
     36 H4'         3.8044   -0.1397   -0.4040 H         1 GTP         0.2056
     37 H3'         1.6764   -1.7639    0.2728 H         1 GTP         0.1140
     38 HO3'        2.2232   -1.2979    2.3953 H         1 GTP         0.4287
     39 H2'        -0.0011    0.0027    0.0003 H         1 GTP         0.0809
     40 HO2'       -0.1563   -0.9855    2.0596 H         1 GTP         0.4385
     41 H1'         1.7826    1.9024    1.6451 H         1 GTP         0.0794
     42 H8         -0.1415    1.7265   -1.7082 H         1 GTP         0.3821
     43 HN21       -0.0303    6.7197    3.9559 H         1 GTP         0.4411
     44 HN22        0.9765    5.2967    4.1108 H         1 GTP         0.4411
     45 H45         1.1068    3.6990    2.5819 H         1 GTP         0.4819
     46 H46        -1.5877    3.7943   -1.9074 H         1 GTP         0.5182
@<TRIPOS>BOND
     1    1    2 2
     2    1    3 1
     3    1    4 1
     4    1    5 1
     5    4   33 1
     6    5    6 1
     7    6    7 2
     8    6    8 1
     9    6    9 1
    10    9   10 1
    11   10   11 2
    12   10   12 1
    13   10   13 1
    14   13   14 1
    15   14   15 1
    16   14   34 1
    17   14   35 1
    18   15   16 1
    19   15   17 1
    20   15   36 1
    21   16   21 1
    22   17   18 1
    23   17   19 1
    24   17   37 1
    25   18   38 1
    26   19   20 1
    27   19   21 1
    28   19   39 1
    29   20   40 1
    30   21   22 1
    31   21   41 1
    32   22   23 ar
    33   22   32 ar
    34   23   24 ar
    35   23   42 1
    36   24   25 ar
    37   24   46 1
    38   25   26 ar
    39   25   32 ar
    40   26   27 2
    41   26   28 ar
    42   28   29 ar
    43   29   30 1
    44   29   31 ar
    45   30   43 1
    46   30   44 1
    47   31   32 ar
    48   31   45 1
@<TRIPOS>SUBSTRUCTURE
     1 GTP         1 GROUP 0 A     ****
@<TRIPOS>MOLECULE
[[[5-(2-amino-6-oxo-7,8-dihydro-3~{H}-purin-8-ylium-9-yl)-3,4-dihydroxy-tetrahydrofuran-2-yl]methoxy-oxido-phosphoryl]oxy-oxido-phosphoryl] hydrogen phosphate
   46    48     1     0     0
SMALL
USER_CHARGES

@<TRIPOS>ATOM
      1 PG          6.4951    1.9047   -3.8765 P.3       1 GTP         1.5447
      2 O1G         7.8149    2.2977   -3.2512 O.co2     1 GTP        -0.8705
      3 O2G         5.7499    2.8587   -4.7833 O.co2     1 GTP        -0.8705
      4 O3G         5.4832    1.4197   -2.6905 O.3       1 GTP        -0.7914
      5 O3B         6.6761    0.4766   -4.6456 O.3       1 GTP        -0.8116
      6 PB          5.5578   -0.4786   -5.3547 P.3       1 GTP         1.6738
      7 O1B         4.7864    0.3441   -6.3624 O.co2     1 GTP        -0.8763
      8 O2B         6.2012   -1.7942   -5.7329 O.co2     1 GTP        -0.8763
      9 O3A         4.6120   -0.7809   -4.0590 O.3       1 GTP        -0.8005
     10 PA          3.2531   -1.6804   -3.9410 P.3       1 GTP         1.5754
     11 O1A         2.1714   -1.0407   -4.7843 O.co2     1 GTP        -0.8771
     12 O2A         3.6204   -3.1381   -4.1141 O.co2     1 GTP        -0.8771
     13 O5'         2.9216   -1.4836   -2.3516 O.3       1 GTP        -0.5809
     14 C5'         2.2816   -0.2918   -1.9206 C.3       1 GTP         0.1986
     15 C4'         2.7248    0.0226   -0.4980 C.3       1 GTP         0.0418
     16 O4'         2.4697    1.4219   -0.2462 O.3       1 GTP        -0.3505
     17 C3'         1.9404   -0.7419    0.5596 C.3       1 GTP         0.0909
     18 O3'         2.7418   -0.8086    1.7389 O.3       1 GTP        -0.6187
     19 C2'         0.7477    0.1630    0.7858 C.3       1 GTP         0.0706
     20 O2'         0.1373   -0.0577    2.0407 O.3       1 GTP        -0.6294
     21 C1'         1.3733    1.5427    0.6747 C.3       1 GTP         0.3895
     22 N9          0.4520    2.5240    0.1767 N.pl3     1 GTP        -0.4733
     23 C8          0.2012    2.8401   -1.0899 C.ar      1 GTP         0.2958
     24 N7         -0.7168    3.7990   -1.1981 N.pl3     1 GTP        -0.4933
     25 C5         -1.0645    4.1043    0.0896 C.ar      1 GTP        -0.1494
     26 C6         -2.0336    5.0870    0.5973 C.ar      1 GTP         0.7954
     27 O6         -2.6730    5.7839   -0.1834 O.2       1 GTP        -0.5729
     28 N1         -2.1539    5.1517    1.9868 N.2       1 GTP        -0.7443
     29 C2         -1.4288    4.3650    2.7566 C.ar      1 GTP         0.8831
     30 N2         -1.5126    4.3922    4.1250 N.pl3     1 GTP        -0.9204
     31 N3         -0.5167    3.4388    2.2748 N.pl3     1 GTP        -0.7173
     32 C4         -0.3638    3.3392    0.9318 C.ar      1 GTP         0.2626
     33 HOG3        4.5789    1.1304   -2.9375 H         1 GTP         0.4102
     34 H5'         2.5589    0.5217   -2.5976 H         1 GTP         0.0289
     35 H5''        1.1982   -0.4388   -1.9617 H         1 GTP         0.0289
     36 H4'         3.8044   -0.1397   -0.4040 H         1 GTP         0.2056
     37 H3'         1.6764   -1.7639    0.2728 H         1 GTP         0.1140
     38 HO3'        2.2232   -1.2979    2.3953 H         1 GTP         0.4287
     39 H2'        -0.0011    0.0027    0.0003 H         1 GTP         0.0809
     40 HO2'       -0.6141    0.5574    2.1082 H         1 GTP         0.4385
     41 H1'         1.7826    1.9024    1.6451 H         1 GTP         0.0794
     42 H8          0.6787    2.3803   -1.9373 H         1 GTP         0.3821
     43 HN21       -2.1462    5.0320    4.5446 H         1 GTP         0.4411
     44 HN22       -0.9365    3.7712    4.6440 H         1 GTP         0.4411
     45 H45         0.0318    2.8419    2.8816 H         1 GTP         0.4819
     46 H46        -1.0718    4.2049   -2.0526 H         1 GTP         0.5182
@<TRIPOS>BOND
     1    1    2 2
     2    1    3 1
     3    1    4 1
     4    1    5 1
     5    4   33 1
     6    5    6 1
     7    6    7 2
     8    6    8 1
     9    6    9 1
    10    9   10 1
    11   10   11 2
    12   10   12 1
    13   10   13 1
    14   13   14 1
    15   14   15 1
    16   14   34 1
    17   14   35 1
    18   15   16 1
    19   15   17 1
    20   15   36 1
    21   16   21 1
    22   17   18 1
    23   17   19 1
    24   17   37 1
    25   18   38 1
    26   19   20 1
    27   19   21 1
    28   19   39 1
    29   20   40 1
    30   21   22 1
    31   21   41 1
    32   22   23 ar
    33   22   32 ar
    34   23   24 ar
    35   23   42 1
    36   24   25 ar
    37   24   46 1
    38   25   26 ar
    39   25   32 ar
    40   26   27 2
    41   26   28 ar
    42   28   29 ar
    43   29   30 1
    44   29   31 ar
    45   30   43 1
    46   30   44 1
    47   31   32 ar
    48   31   45 1
@<TRIPOS>SUBSTRUCTURE
     1 GTP         1 GROUP 0 A     ****
@<TRIPOS>MOLECULE
[[[5-(2-amino-6-oxo-7,8-dihydro-3~{H}-purin-8-ylium-9-yl)-3,4-dihydroxy-tetrahydrofuran-2-yl]methoxy-oxido-phosphoryl]oxy-oxido-phosphoryl] hydrogen phosphate
   46    48     1     0     0
SMALL
USER_CHARGES

@<TRIPOS>ATOM
      1 PG          4.9837   -4.6758   -1.9935 P.3       1 GTP         1.5447
      2 O1G         3.5568   -4.5036   -2.4643 O.co2     1 GTP        -0.8705
      3 O2G         5.6424   -6.0373   -1.9912 O.co2     1 GTP        -0.8705
      4 O3G         5.1180   -4.0324   -0.4989 O.3       1 GTP        -0.7914
      5 O3B         5.9394   -3.6272   -2.8002 O.3       1 GTP        -0.8116
      6 PB          5.8003   -2.0104   -2.9795 P.3       1 GTP         1.6738
      7 O1B         5.6979   -1.3777   -1.6095 O.co2     1 GTP        -0.8763
      8 O2B         6.8154   -1.5376   -3.9961 O.co2     1 GTP        -0.8763
      9 O3A         4.3450   -1.9529   -3.7168 O.3       1 GTP        -0.8005
     10 PA          3.4844   -0.6652   -4.2374 P.3       1 GTP         1.5754
     11 O1A         4.3446    0.1446   -5.1832 O.co2     1 GTP        -0.8771
     12 O2A         2.1052   -1.1367   -4.6438 O.co2     1 GTP        -0.8771
     13 O5'         3.2903    0.1346   -2.8241 O.3       1 GTP        -0.5809
     14 C5'         2.2816   -0.2918   -1.9206 C.3       1 GTP         0.1986
     15 C4'         2.7248    0.0226   -0.4980 C.3       1 GTP         0.0418
     16 O4'         2.4697    1.4219   -0.2462 O.3       1 GTP        -0.3505
     17 C3'         1.9404   -0.7419    0.5596 C.3       1 GTP         0.0909
     18 O3'         2.7418   -0.8086    1.7389 O.3       1 GTP        -0.6187
     19 C2'         0.7477    0.1630    0.7858 C.3       1 GTP         0.0706
     20 O2'         0.1373   -0.0577    2.0407 O.3       1 GTP        -0.6294
     21 C1'         1.3733    1.5427    0.6747 C.3       1 GTP         0.3895
     22 N9          0.4520    2.5240    0.1767 N.pl3     1 GTP        -0.4733
     23 C8          0.2012    2.8401   -1.0899 C.ar      1 GTP         0.2958
     24 N7         -0.7168    3.7990   -1.1981 N.pl3     1 GTP        -0.4933
     25 C5         -1.0645    4.1043    0.0896 C.ar      1 GTP        -0.1494
     26 C6         -2.0336    5.0870    0.5973 C.ar      1 GTP         0.7954
     27 O6         -2.6730    5.7839   -0.1834 O.2       1 GTP        -0.5729
     28 N1         -2.1539    5.1517    1.9868 N.2       1 GTP        -0.7443
     29 C2         -1.4288    4.3650    2.7566 C.ar      1 GTP         0.8831
     30 N2         -1.5126    4.3922    4.1250 N.pl3     1 GTP        -0.9204
     31 N3         -0.5167    3.4388    2.2748 N.pl3     1 GTP        -0.7173
     32 C4         -0.3638    3.3392    0.9318 C.ar      1 GTP         0.2626
     33 HOG3        5.9911   -4.0659   -0.0528 H         1 GTP         0.4102
     34 H5'         1.3514    0.2330   -2.1577 H         1 GTP         0.0289
     35 H5''        2.1280   -1.3678   -2.0460 H         1 GTP         0.0289
     36 H4'         3.8044   -0.1397   -0.4040 H         1 GTP         0.2056
     37 H3'         1.6764   -1.7639    0.2728 H         1 GTP         0.1140
     38 HO3'        3.5554   -1.2733    1.4914 H         1 GTP         0.4287
     39 H2'        -0.0011    0.0027    0.0003 H         1 GTP         0.0809
     40 HO2'       -0.6141    0.5574    2.1082 H         1 GTP         0.4385
     41 H1'         1.7826    1.9024    1.6451 H         1 GTP         0.0794
     42 H8          0.6787    2.3803   -1.9373 H         1 GTP         0.3821
     43 HN21       -2.1462    5.0320    4.5446 H         1 GTP         0.4411
     44 HN22       -0.9365    3.7712    4.6440 H         1 GTP         0.4411
     45 H45         0.0318    2.8419    2.8816 H         1 GTP         0.4819
     46 H46        -1.0718    4.2049   -2.0526 H         1 GTP         0.5182
@<TRIPOS>BOND
     1    1    2 2
     2    1    3 1
     3    1    4 1
     4    1    5 1
     5    4   33 1
     6    5    6 1
     7    6    7 2
     8    6    8 1
     9    6    9 1
    10    9   10 1
    11   10   11 2
    12   10   12 1
    13   10   13 1
    14   13   14 1
    15   14   15 1
    16   14   34 1
    17   14   35 1
    18   15   16 1
    19   15   17 1
    20   15   36 1
    21   16   21 1
    22   17   18 1
    23   17   19 1
    24   17   37 1
    25   18   38 1
    26   19   20 1
    27   19   21 1
    28   19   39 1
    29   20   40 1
    30   21   22 1
    31   21   41 1
    32   22   23 ar
    33   22   32 ar
    34   23   24 ar
    35   23   42 1
    36   24   25 ar
    37   24   46 1
    38   25   26 ar
    39   25   32 ar
    40   26   27 2
    41   26   28 ar
    42   28   29 ar
    43   29   30 1
    44   29   31 ar
    45   30   43 1
    46   30   44 1
    47   31   32 ar
    48   31   45 1
@<TRIPOS>SUBSTRUCTURE
     1 GTP         1 GROUP 0 A     ****
@<TRIPOS>MOLECULE
[[[5-(2-amino-6-oxo-7,8-dihydro-3~{H}-purin-8-ylium-9-yl)-3,4-dihydroxy-tetrahydrofuran-2-yl]methoxy-oxido-phosphoryl]oxy-oxido-phosphoryl] hydrogen phosphate
   46    48     1     0     0
SMALL
USER_CHARGES

@<TRIPOS>ATOM
      1 PG          6.9297   -1.9413   -6.9477 P.3       1 GTP         1.5447
      2 O1G         6.1920   -2.6847   -8.0388 O.co2     1 GTP        -0.8705
      3 O2G         7.7683   -0.7236   -7.2669 O.co2     1 GTP        -0.8705
      4 O3G         7.8552   -3.0077   -6.1278 O.3       1 GTP        -0.7914
      5 O3B         5.8780   -1.5623   -5.7586 O.3       1 GTP        -0.8116
      6 PB          4.8510   -2.5203   -4.9260 P.3       1 GTP         1.6738
      7 O1B         3.8038   -3.0521   -5.8790 O.co2     1 GTP        -0.8763
      8 O2B         5.6509   -3.4429   -4.0336 O.co2     1 GTP        -0.8763
      9 O3A         4.1796   -1.3979   -3.9491 O.3       1 GTP        -0.8005
     10 PA          3.3343   -0.0514   -4.3264 P.3       1 GTP         1.5754
     11 O1A         4.2455    0.9036   -5.0666 O.co2     1 GTP        -0.8771
     12 O2A         1.9982   -0.4643   -4.9043 O.co2     1 GTP        -0.8771
     13 O5'         3.0213    0.5153   -2.8245 O.3       1 GTP        -0.5809
     14 C5'         2.2816   -0.2918   -1.9206 C.3       1 GTP         0.1986
     15 C4'         2.7248    0.0226   -0.4980 C.3       1 GTP         0.0418
     16 O4'         2.4697    1.4219   -0.2462 O.3       1 GTP        -0.3505
     17 C3'         1.9404   -0.7419    0.5596 C.3       1 GTP         0.0909
     18 O3'         2.7418   -0.8086    1.7389 O.3       1 GTP        -0.6187
     19 C2'         0.7477    0.1630    0.7858 C.3       1 GTP         0.0706
     20 O2'         0.1373   -0.0577    2.0407 O.3       1 GTP        -0.6294
     21 C1'         1.3733    1.5427    0.6747 C.3       1 GTP         0.3895
     22 N9          0.4520    2.5240    0.1767 N.pl3     1 GTP        -0.4733
     23 C8         -0.2136    2.5096   -0.9739 C.ar      1 GTP         0.2958
     24 N7         -0.9896    3.5820   -1.1212 N.pl3     1 GTP        -0.4933
     25 C5         -0.7962    4.3186    0.0156 C.ar      1 GTP        -0.1494
     26 C6         -1.3875    5.6031    0.4192 C.ar      1 GTP         0.7954
     27 O6         -2.1869    6.1731   -0.3158 O.2       1 GTP        -0.5729
     28 N1         -0.9745    6.0930    1.6597 N.2       1 GTP        -0.7443
     29 C2         -0.1105    5.4166    2.3900 C.ar      1 GTP         0.8831
     30 N2          0.3241    5.8571    3.6138 N.pl3     1 GTP        -0.9204
     31 N3          0.4444    4.2053    2.0072 N.pl3     1 GTP        -0.7173
     32 C4          0.0746    3.6889    0.8098 C.ar      1 GTP         0.2626
     33 HOG3        8.3998   -2.6766   -5.3821 H         1 GTP         0.4102
     34 H5'         1.2163   -0.0770   -2.0471 H         1 GTP         0.0289
     35 H5''        2.4655   -1.3443   -2.1563 H         1 GTP         0.0289
     36 H4'         3.8044   -0.1397   -0.4040 H         1 GTP         0.2056
     37 H3'         1.6764   -1.7639    0.2728 H         1 GTP         0.1140
     38 HO3'        2.2232   -1.2979    2.3953 H         1 GTP         0.4287
     39 H2'        -0.0011    0.0027    0.0003 H         1 GTP         0.0809
     40 HO2'       -0.1563   -0.9855    2.0596 H         1 GTP         0.4385
     41 H1'         1.7826    1.9024    1.6451 H         1 GTP         0.0794
     42 H8         -0.1415    1.7265   -1.7082 H         1 GTP         0.3821
     43 HN21       -0.0303    6.7197    3.9559 H         1 GTP         0.4411
     44 HN22        0.9765    5.2967    4.1108 H         1 GTP         0.4411
     45 H45         1.1068    3.6990    2.5819 H         1 GTP         0.4819
     46 H46        -1.5877    3.7943   -1.9074 H         1 GTP         0.5182
@<TRIPOS>BOND
     1    1    2 2
     2    1    3 1
     3    1    4 1
     4    1    5 1
     5    4   33 1
     6    5    6 1
     7    6    7 2
     8    6    8 1
     9    6    9 1
    10    9   10 1
    11   10   11 2
    12   10   12 1
    13   10   13 1
    14   13   14 1
    15   14   15 1
    16   14   34 1
    17   14   35 1
    18   15   16 1
    19   15   17 1
    20   15   36 1
    21   16   21 1
    22   17   18 1
    23   17   19 1
    24   17   37 1
    25   18   38 1
    26   19   20 1
    27   19   21 1
    28   19   39 1
    29   20   40 1
    30   21   22 1
    31   21   41 1
    32   22   23 ar
    33   22   32 ar
    34   23   24 ar
    35   23   42 1
    36   24   25 ar
    37   24   46 1
    38   25   26 ar
    39   25   32 ar
    40   26   27 2
    41   26   28 ar
    42   28   29 ar
    43   29   30 1
    44   29   31 ar
    45   30   43 1
    46   30   44 1
    47   31   32 ar
    48   31   45 1
@<TRIPOS>SUBSTRUCTURE
     1 GTP         1 GROUP 0 A     ****
@<TRIPOS>MOLECULE
[[[5-(2-amino-6-oxo-7,8-dihydro-3~{H}-purin-8-ylium-9-yl)-3,4-dihydroxy-tetrahydrofuran-2-yl]methoxy-oxido-phosphoryl]oxy-oxido-phosphoryl] hydrogen phosphate
   46    48     1     0     0
SMALL
USER_CHARGES

@<TRIPOS>ATOM
      1 PG         -0.6582   -1.9015   -6.9610 P.3       1 GTP         1.5447
      2 O1G        -1.1178   -3.3268   -7.1727 O.co2     1 GTP        -0.8705
      3 O2G        -1.6174   -0.8405   -6.4693 O.co2     1 GTP        -0.8705
      4 O3G         0.0393   -1.3715   -8.3388 O.3       1 GTP        -0.7914
      5 O3B         0.6624   -1.9061   -6.0020 O.3       1 GTP        -0.8116
      6 PB          1.6502   -0.6778   -5.5763 P.3       1 GTP         1.6738
      7 O1B         2.3719   -0.1859   -6.8111 O.co2     1 GTP        -0.8763
      8 O2B         0.8967    0.2696   -4.6695 O.co2     1 GTP        -0.8763
      9 O3A         2.6932   -1.4980   -4.6255 O.3       1 GTP        -0.8005
     10 PA          4.0010   -0.9663   -3.8028 P.3       1 GTP         1.5754
     11 O1A         4.5594   -2.1105   -2.9847 O.co2     1 GTP        -0.8771
     12 O2A         4.8809   -0.1785   -4.7487 O.co2     1 GTP        -0.8771
     13 O5'         3.2903    0.1346   -2.8241 O.3       1 GTP        -0.5809
     14 C5'         2.2816   -0.2918   -1.9206 C.3       1 GTP         0.1986
     15 C4'         2.7248    0.0226   -0.4980 C.3       1 GTP         0.0418
     16 O4'         2.4697    1.4219   -0.2462 O.3       1 GTP        -0.3505
     17 C3'         1.9404   -0.7419    0.5596 C.3       1 GTP         0.0909
     18 O3'         2.7418   -0.8086    1.7389 O.3       1 GTP        -0.6187
     19 C2'         0.7477    0.1630    0.7858 C.3       1 GTP         0.0706
     20 O2'         0.1373   -0.0577    2.0407 O.3       1 GTP        -0.6294
     21 C1'         1.3733    1.5427    0.6747 C.3       1 GTP         0.3895
     22 N9          0.4520    2.5240    0.1767 N.pl3     1 GTP        -0.4733
     23 C8          0.2012    2.8401   -1.0899 C.ar      1 GTP         0.2958
     24 N7         -0.7168    3.7990   -1.1981 N.pl3     1 GTP        -0.4933
     25 C5         -1.0645    4.1043    0.0896 C.ar      1 GTP        -0.1494
     26 C6         -2.0336    5.0870    0.5973 C.ar      1 GTP         0.7954
     27 O6         -2.6730    5.7839   -0.1834 O.2       1 GTP        -0.5729
     28 N1         -2.1539    5.1517    1.9868 N.2       1 GTP        -0.7443
     29 C2         -1.4288    4.3650    2.7566 C.ar      1 GTP         0.8831
     30 N2         -1.5126    4.3922    4.1250 N.pl3     1 GTP        -0.9204
     31 N3         -0.5167    3.4388    2.2748 N.pl3     1 GTP        -0.7173
     32 C4         -0.3638    3.3392    0.9318 C.ar      1 GTP         0.2626
     33 HOG3        0.3918   -0.4563   -8.3616 H         1 GTP         0.4102
     34 H5'         1.3514    0.2330   -2.1577 H         1 GTP         0.0289
     35 H5''        2.1280   -1.3678   -2.0460 H         1 GTP         0.0289
     36 H4'         3.8044   -0.1397   -0.4040 H         1 GTP         0.2056
     37 H3'         1.6764   -1.7639    0.2728 H         1 GTP         0.1140
     38 HO3'        3.5554   -1.2733    1.4914 H         1 GTP         0.4287
     39 H2'        -0.0011    0.0027    0.0003 H         1 GTP         0.0809
     40 HO2'       -0.6141    0.5574    2.1082 H         1 GTP         0.4385
     41 H1'         1.7826    1.9024    1.6451 H         1 GTP         0.0794
     42 H8          0.6787    2.3803   -1.9373 H         1 GTP         0.3821
     43 HN21       -2.1462    5.0320    4.5446 H         1 GTP         0.4411
     44 HN22       -0.9365    3.7712    4.6440 H         1 GTP         0.4411
     45 H45         0.0318    2.8419    2.8816 H         1 GTP         0.4819
     46 H46        -1.0718    4.2049   -2.0526 H         1 GTP         0.5182
@<TRIPOS>BOND
     1    1    2 2
     2    1    3 1
     3    1    4 1
     4    1    5 1
     5    4   33 1
     6    5    6 1
     7    6    7 2
     8    6    8 1
     9    6    9 1
    10    9   10 1
    11   10   11 2
    12   10   12 1
    13   10   13 1
    14   13   14 1
    15   14   15 1
    16   14   34 1
    17   14   35 1
    18   15   16 1
    19   15   17 1
    20   15   36 1
    21   16   21 1
    22   17   18 1
    23   17   19 1
    24   17   37 1
    25   18   38 1
    26   19   20 1
    27   19   21 1
    28   19   39 1
    29   20   40 1
    30   21   22 1
    31   21   41 1
    32   22   23 ar
    33   22   32 ar
    34   23   24 ar
    35   23   42 1
    36   24   25 ar
    37   24   46 1
    38   25   26 ar
    39   25   32 ar
    40   26   27 2
    41   26   28 ar
    42   28   29 ar
    43   29   30 1
    44   29   31 ar
    45   30   43 1
    46   30   44 1
    47   31   32 ar
    48   31   45 1
@<TRIPOS>SUBSTRUCTURE
     1 GTP         1 GROUP 0 A     ****
@<TRIPOS>MOLECULE
[[[5-(2-amino-6-oxo-7,8-dihydro-3~{H}-purin-8-ylium-9-yl)-3,4-dihydroxy-tetrahydrofuran-2-yl]methoxy-oxido-phosphoryl]oxy-oxido-phosphoryl] hydrogen phosphate
   46    48     1     0     0
SMALL
USER_CHARGES

@<TRIPOS>ATOM
      1 PG          4.9159   -4.8806   -4.8606 P.3       1 GTP         1.5447
      2 O1G         6.0045   -4.7677   -5.9045 O.co2     1 GTP        -0.8705
      3 O2G         5.2405   -5.2838   -3.4395 O.co2     1 GTP        -0.8705
      4 O3G         3.7533   -5.8761   -5.4292 O.3       1 GTP        -0.7914
      5 O3B         4.0596   -3.4914   -4.8339 O.3       1 GTP        -0.8116
      6 PB          4.5143   -1.9910   -4.3782 P.3       1 GTP         1.6738
      7 O1B         4.8121   -2.0040   -2.8954 O.co2     1 GTP        -0.8763
      8 O2B         5.5098   -1.4514   -5.3810 O.co2     1 GTP        -0.8763
      9 O3A         3.1119   -1.1996   -4.6459 O.3       1 GTP        -0.8005
     10 PA          2.7407    0.3769   -4.4297 P.3       1 GTP         1.5754
     11 O1A         3.7274    1.2201   -5.2081 O.co2     1 GTP        -0.8771
     12 O2A         1.2486    0.5523   -4.6100 O.co2     1 GTP        -0.8771
     13 O5'         3.0213    0.5153   -2.8245 O.3       1 GTP        -0.5809
     14 C5'         2.2816   -0.2918   -1.9206 C.3       1 GTP         0.1986
     15 C4'         2.7248    0.0226   -0.4980 C.3       1 GTP         0.0418
     16 O4'         2.4697    1.4219   -0.2462 O.3       1 GTP        -0.3505
     17 C3'         1.9404   -0.7419    0.5596 C.3       1 GTP         0.0909
     18 O3'         2.7418   -0.8086    1.7389 O.3       1 GTP        -0.6187
     19 C2'         0.7477    0.1630    0.7858 C.3       1 GTP         0.0706
     20 O2'         0.1373   -0.0577    2.0407 O.3       1 GTP        -0.6294
     21 C1'         1.3733    1.5427    0.6747 C.3       1 GTP         0.3895
     22 N9          0.4520    2.5240    0.1767 N.pl3     1 GTP        -0.4733
     23 C8          0.5427    3.2356   -0.9425 C.ar      1 GTP         0.2958
     24 N7         -0.4919    4.0590   -1.1018 N.pl3     1 GTP        -0.4933
     25 C5         -1.2850    3.8484   -0.0069 C.ar      1 GTP        -0.1494
     26 C6         -2.5644    4.4707    0.3650 C.ar      1 GTP         0.7954
     27 O6         -3.0718    5.3200   -0.3599 O.2       1 GTP        -0.5729
     28 N1         -3.1239    4.0269    1.5647 N.2       1 GTP        -0.7443
     29 C2         -2.5133    3.1079    2.2858 C.ar      1 GTP         0.8831
     30 N2         -3.0239    2.6409    3.4697 N.pl3     1 GTP        -0.9204
     31 N3         -1.3076    2.5223    1.9320 N.pl3     1 GTP        -0.7173
     32 C4         -0.7246    2.9211    0.7753 C.ar      1 GTP         0.2626
     33 HOG3        2.9717   -6.0524   -4.8632 H         1 GTP         0.4102
     34 H5'         1.2163   -0.0770   -2.0471 H         1 GTP         0.0289
     35 H5''        2.4655   -1.3443   -2.1563 H         1 GTP         0.0289
     36 H4'         3.8044   -0.1397   -0.4040 H         1 GTP         0.2056
     37 H3'         1.6764   -1.7639    0.2728 H         1 GTP         0.1140
     38 HO3'        3.5554   -1.2733    1.4914 H         1 GTP         0.4287
     39 H2'        -0.0011    0.0027    0.0003 H         1 GTP         0.0809
     40 HO2'       -0.1563   -0.9855    2.0596 H         1 GTP         0.4385
     41 H1'         1.7826    1.9024    1.6451 H         1 GTP         0.0794
     42 H8          1.3539    3.1622   -1.6455 H         1 GTP         0.3821
     43 HN21       -3.8871    3.0143    3.7893 H         1 GTP         0.4411
     44 HN22       -2.5108    1.9472    3.9621 H         1 GTP         0.4411
     45 H45        -0.8530    1.8168    2.4986 H         1 GTP         0.4819
     46 H46        -0.6466    4.6966   -1.8702 H         1 GTP         0.5182
@<TRIPOS>BOND
     1    1    2 2
     2    1    3 1
     3    1    4 1
     4    1    5 1
     5    4   33 1
     6    5    6 1
     7    6    7 2
     8    6    8 1
     9    6    9 1
    10    9   10 1
    11   10   11 2
    12   10   12 1
    13   10   13 1
    14   13   14 1
    15   14   15 1
    16   14   34 1
    17   14   35 1
    18   15   16 1
    19   15   17 1
    20   15   36 1
    21   16   21 1
    22   17   18 1
    23   17   19 1
    24   17   37 1
    25   18   38 1
    26   19   20 1
    27   19   21 1
    28   19   39 1
    29   20   40 1
    30   21   22 1
    31   21   41 1
    32   22   23 ar
    33   22   32 ar
    34   23   24 ar
    35   23   42 1
    36   24   25 ar
    37   24   46 1
    38   25   26 ar
    39   25   32 ar
    40   26   27 2
    41   26   28 ar
    42   28   29 ar
    43   29   30 1
    44   29   31 ar
    45   30   43 1
    46   30   44 1
    47   31   32 ar
    48   31   45 1
@<TRIPOS>SUBSTRUCTURE
     1 GTP         1 GROUP 0 A     ****
@<TRIPOS>MOLECULE
[[[5-(2-amino-6-oxo-7,8-dihydro-3~{H}-purin-8-ylium-9-yl)-3,4-dihydroxy-tetrahydrofuran-2-yl]methoxy-oxido-phosphoryl]oxy-oxido-phosphoryl] hydrogen phosphate
   46    48     1     0     0
SMALL
USER_CHARGES

@<TRIPOS>ATOM
      1 PG          3.8014    2.6549   -7.1410 P.3       1 GTP         1.5447
      2 O1G         5.1594    3.1335   -7.6040 O.co2     1 GTP        -0.8705
      3 O2G         3.3367    1.2436   -7.4239 O.co2     1 GTP        -0.8705
      4 O3G         2.6693    3.6939   -7.6930 O.3       1 GTP        -0.7914
      5 O3B         3.6501    2.9514   -5.5432 O.3       1 GTP        -0.8116
      6 PB          2.3529    2.7824   -4.5663 P.3       1 GTP         1.6738
      7 O1B         2.7792    3.0599   -3.1420 O.co2     1 GTP        -0.8763
      8 O2B         1.1700    3.4884   -5.1906 O.co2     1 GTP        -0.8763
      9 O3A         2.0898    1.1823   -4.7548 O.3       1 GTP        -0.8005
     10 PA          3.0675   -0.0857   -4.4293 P.3       1 GTP         1.5754
     11 O1A         2.3024   -1.3670   -4.6805 O.co2     1 GTP        -0.8771
     12 O2A         4.4130    0.1616   -5.0759 O.co2     1 GTP        -0.8771
     13 O5'         3.2903    0.1346   -2.8241 O.3       1 GTP        -0.5809
     14 C5'         2.2816   -0.2918   -1.9206 C.3       1 GTP         0.1986
     15 C4'         2.7248    0.0226   -0.4980 C.3       1 GTP         0.0418
     16 O4'         2.4697    1.4219   -0.2462 O.3       1 GTP        -0.3505
     17 C3'         1.9404   -0.7419    0.5596 C.3       1 GTP         0.0909
     18 O3'         2.7418   -0.8086    1.7389 O.3       1 GTP        -0.6187
     19 C2'         0.7477    0.1630    0.7858 C.3       1 GTP         0.0706
     20 O2'         0.1373   -0.0577    2.0407 O.3       1 GTP        -0.6294
     21 C1'         1.3733    1.5427    0.6747 C.3       1 GTP         0.3895
     22 N9          0.4520    2.5240    0.1767 N.pl3     1 GTP        -0.4733
     23 C8          0.2012    2.8401   -1.0899 C.ar      1 GTP         0.2958
     24 N7         -0.7168    3.7990   -1.1981 N.pl3     1 GTP        -0.4933
     25 C5         -1.0645    4.1043    0.0896 C.ar      1 GTP        -0.1494
     26 C6         -2.0336    5.0870    0.5973 C.ar      1 GTP         0.7954
     27 O6         -2.6730    5.7839   -0.1834 O.2       1 GTP        -0.5729
     28 N1         -2.1539    5.1517    1.9868 N.2       1 GTP        -0.7443
     29 C2         -1.4288    4.3650    2.7566 C.ar      1 GTP         0.8831
     30 N2         -1.5126    4.3922    4.1250 N.pl3     1 GTP        -0.9204
     31 N3         -0.5167    3.4388    2.2748 N.pl3     1 GTP        -0.7173
     32 C4         -0.3638    3.3392    0.9318 C.ar      1 GTP         0.2626
     33 HOG3        1.7291    3.5191   -7.4746 H         1 GTP         0.4102
     34 H5'         1.3514    0.2330   -2.1577 H         1 GTP         0.0289
     35 H5''        2.1280   -1.3678   -2.0460 H         1 GTP         0.0289
     36 H4'         3.8044   -0.1397   -0.4040 H         1 GTP         0.2056
     37 H3'         1.6764   -1.7639    0.2728 H         1 GTP         0.1140
     38 HO3'        3.5554   -1.2733    1.4914 H         1 GTP         0.4287
     39 H2'        -0.0011    0.0027    0.0003 H         1 GTP         0.0809
     40 HO2'       -0.1563   -0.9855    2.0596 H         1 GTP         0.4385
     41 H1'         1.7826    1.9024    1.6451 H         1 GTP         0.0794
     42 H8          0.6787    2.3803   -1.9373 H         1 GTP         0.3821
     43 HN21       -2.1462    5.0320    4.5446 H         1 GTP         0.4411
     44 HN22       -0.9365    3.7712    4.6440 H         1 GTP         0.4411
     45 H45         0.0318    2.8419    2.8816 H         1 GTP         0.4819
     46 H46        -1.0718    4.2049   -2.0526 H         1 GTP         0.5182
@<TRIPOS>BOND
     1    1    2 2
     2    1    3 1
     3    1    4 1
     4    1    5 1
     5    4   33 1
     6    5    6 1
     7    6    7 2
     8    6    8 1
     9    6    9 1
    10    9   10 1
    11   10   11 2
    12   10   12 1
    13   10   13 1
    14   13   14 1
    15   14   15 1
    16   14   34 1
    17   14   35 1
    18   15   16 1
    19   15   17 1
    20   15   36 1
    21   16   21 1
    22   17   18 1
    23   17   19 1
    24   17   37 1
    25   18   38 1
    26   19   20 1
    27   19   21 1
    28   19   39 1
    29   20   40 1
    30   21   22 1
    31   21   41 1
    32   22   23 ar
    33   22   32 ar
    34   23   24 ar
    35   23   42 1
    36   24   25 ar
    37   24   46 1
    38   25   26 ar
    39   25   32 ar
    40   26   27 2
    41   26   28 ar
    42   28   29 ar
    43   29   30 1
    44   29   31 ar
    45   30   43 1
    46   30   44 1
    47   31   32 ar
    48   31   45 1
@<TRIPOS>SUBSTRUCTURE
     1 GTP         1 GROUP 0 A     ****
@<TRIPOS>MOLECULE
[[[5-(2-amino-6-oxo-7,8-dihydro-3~{H}-purin-8-ylium-9-yl)-3,4-dihydroxy-tetrahydrofuran-2-yl]methoxy-oxido-phosphoryl]oxy-oxido-phosphoryl] hydrogen phosphate
   46    48     1     0     0
SMALL
USER_CHARGES

@<TRIPOS>ATOM
      1 PG          2.2464    2.9414   -7.2088 P.3       1 GTP         1.5447
      2 O1G         1.1101    2.8654   -8.2040 O.co2     1 GTP        -0.8705
      3 O2G         2.3667    4.1082   -6.2540 O.co2     1 GTP        -0.8705
      4 O3G         3.6559    2.7864   -8.0182 O.3       1 GTP        -0.7914
      5 O3B         2.2983    1.5515   -6.3548 O.3       1 GTP        -0.8116
      6 PB          1.2307    0.9444   -5.2791 P.3       1 GTP         1.6738
      7 O1B         1.1899    1.8532   -4.0708 O.co2     1 GTP        -0.8763
      8 O2B        -0.0308    0.5416   -6.0098 O.co2     1 GTP        -0.8763
      9 O3A         2.0053   -0.4400   -4.8942 O.3       1 GTP        -0.8005
     10 PA          3.4844   -0.6652   -4.2374 P.3       1 GTP         1.5754
     11 O1A         3.6822   -2.1433   -3.9794 O.co2     1 GTP        -0.8771
     12 O2A         4.4944    0.1320   -5.0337 O.co2     1 GTP        -0.8771
     13 O5'         3.2903    0.1346   -2.8241 O.3       1 GTP        -0.5809
     14 C5'         2.2816   -0.2918   -1.9206 C.3       1 GTP         0.1986
     15 C4'         2.7248    0.0226   -0.4980 C.3       1 GTP         0.0418
     16 O4'         2.4697    1.4219   -0.2462 O.3       1 GTP        -0.3505
     17 C3'         1.9404   -0.7419    0.5596 C.3       1 GTP         0.0909
     18 O3'         2.7418   -0.8086    1.7389 O.3       1 GTP        -0.6187
     19 C2'         0.7477    0.1630    0.7858 C.3       1 GTP         0.0706
     20 O2'         0.1373   -0.0577    2.0407 O.3       1 GTP        -0.6294
     21 C1'         1.3733    1.5427    0.6747 C.3       1 GTP         0.3895
     22 N9          0.4520    2.5240    0.1767 N.pl3     1 GTP        -0.4733
     23 C8          0.5427    3.2356   -0.9425 C.ar      1 GTP         0.2958
     24 N7         -0.4919    4.0590   -1.1018 N.pl3     1 GTP        -0.4933
     25 C5         -1.2850    3.8484   -0.0069 C.ar      1 GTP        -0.1494
     26 C6         -2.5644    4.4707    0.3650 C.ar      1 GTP         0.7954
     27 O6         -3.0718    5.3200   -0.3599 O.2       1 GTP        -0.5729
     28 N1         -3.1239    4.0269    1.5647 N.2       1 GTP        -0.7443
     29 C2         -2.5133    3.1079    2.2858 C.ar      1 GTP         0.8831
     30 N2         -3.0239    2.6409    3.4697 N.pl3     1 GTP        -0.9204
     31 N3         -1.3076    2.5223    1.9320 N.pl3     1 GTP        -0.7173
     32 C4         -0.7246    2.9211    0.7753 C.ar      1 GTP         0.2626
     33 HOG3        4.4931    2.8152   -7.5077 H         1 GTP         0.4102
     34 H5'         1.3514    0.2330   -2.1577 H         1 GTP         0.0289
     35 H5''        2.1280   -1.3678   -2.0460 H         1 GTP         0.0289
     36 H4'         3.8044   -0.1397   -0.4040 H         1 GTP         0.2056
     37 H3'         1.6764   -1.7639    0.2728 H         1 GTP         0.1140
     38 HO3'        2.2232   -1.2979    2.3953 H         1 GTP         0.4287
     39 H2'        -0.0011    0.0027    0.0003 H         1 GTP         0.0809
     40 HO2'       -0.1563   -0.9855    2.0596 H         1 GTP         0.4385
     41 H1'         1.7826    1.9024    1.6451 H         1 GTP         0.0794
     42 H8          1.3539    3.1622   -1.6455 H         1 GTP         0.3821
     43 HN21       -3.8871    3.0143    3.7893 H         1 GTP         0.4411
     44 HN22       -2.5108    1.9472    3.9621 H         1 GTP         0.4411
     45 H45        -0.8530    1.8168    2.4986 H         1 GTP         0.4819
     46 H46        -0.6466    4.6966   -1.8702 H         1 GTP         0.5182
@<TRIPOS>BOND
     1    1    2 2
     2    1    3 1
     3    1    4 1
     4    1    5 1
     5    4   33 1
     6    5    6 1
     7    6    7 2
     8    6    8 1
     9    6    9 1
    10    9   10 1
    11   10   11 2
    12   10   12 1
    13   10   13 1
    14   13   14 1
    15   14   15 1
    16   14   34 1
    17   14   35 1
    18   15   16 1
    19   15   17 1
    20   15   36 1
    21   16   21 1
    22   17   18 1
    23   17   19 1
    24   17   37 1
    25   18   38 1
    26   19   20 1
    27   19   21 1
    28   19   39 1
    29   20   40 1
    30   21   22 1
    31   21   41 1
    32   22   23 ar
    33   22   32 ar
    34   23   24 ar
    35   23   42 1
    36   24   25 ar
    37   24   46 1
    38   25   26 ar
    39   25   32 ar
    40   26   27 2
    41   26   28 ar
    42   28   29 ar
    43   29   30 1
    44   29   31 ar
    45   30   43 1
    46   30   44 1
    47   31   32 ar
    48   31   45 1
@<TRIPOS>SUBSTRUCTURE
     1 GTP         1 GROUP 0 A     ****
@<TRIPOS>MOLECULE
[[[5-(2-amino-6-oxo-7,8-dihydro-3~{H}-purin-8-ylium-9-yl)-3,4-dihydroxy-tetrahydrofuran-2-yl]methoxy-oxido-phosphoryl]oxy-oxido-phosphoryl] hydrogen phosphate
   46    48     1     0     0
SMALL
USER_CHARGES

@<TRIPOS>ATOM
      1 PG          4.6406   -2.3210   -8.2384 P.3       1 GTP         1.5447
      2 O1G         5.2802   -1.1498   -8.9502 O.co2     1 GTP        -0.8705
      3 O2G         5.3759   -3.6341   -8.0869 O.co2     1 GTP        -0.8705
      4 O3G         3.1892   -2.6159   -8.9256 O.3       1 GTP        -0.7914
      5 O3B         4.1233   -1.8319   -6.7697 O.3       1 GTP        -0.8116
      6 PB          3.1578   -0.5792   -6.3647 P.3       1 GTP         1.6738
      7 O1B         3.8707    0.7113   -6.7022 O.co2     1 GTP        -0.8763
      8 O2B         1.7544   -0.8598   -6.8539 O.co2     1 GTP        -0.8763
      9 O3A         3.1328   -0.7809   -4.7450 O.3       1 GTP        -0.8005
     10 PA          2.6196   -2.0516   -3.8552 P.3       1 GTP         1.5754
     11 O1A         1.1298   -2.2200   -4.0616 O.co2     1 GTP        -0.8771
     12 O2A         3.5739   -3.2069   -4.0652 O.co2     1 GTP        -0.8771
     13 O5'         2.9216   -1.4836   -2.3516 O.3       1 GTP        -0.5809
     14 C5'         2.2816   -0.2918   -1.9206 C.3       1 GTP         0.1986
     15 C4'         2.7248    0.0226   -0.4980 C.3       1 GTP         0.0418
     16 O4'         2.4697    1.4219   -0.2462 O.3       1 GTP        -0.3505
     17 C3'         1.9404   -0.7419    0.5596 C.3       1 GTP         0.0909
     18 O3'         2.7418   -0.8086    1.7389 O.3       1 GTP        -0.6187
     19 C2'         0.7477    0.1630    0.7858 C.3       1 GTP         0.0706
     20 O2'         0.1373   -0.0577    2.0407 O.3       1 GTP        -0.6294
     21 C1'         1.3733    1.5427    0.6747 C.3       1 GTP         0.3895
     22 N9          0.4520    2.5240    0.1767 N.pl3     1 GTP        -0.4733
     23 C8         -0.2136    2.5096   -0.9739 C.ar      1 GTP         0.2958
     24 N7         -0.9896    3.5820   -1.1212 N.pl3     1 GTP        -0.4933
     25 C5         -0.7962    4.3186    0.0156 C.ar      1 GTP        -0.1494
     26 C6         -1.3875    5.6031    0.4192 C.ar      1 GTP         0.7954
     27 O6         -2.1869    6.1731   -0.3158 O.2       1 GTP        -0.5729
     28 N1         -0.9745    6.0930    1.6597 N.2       1 GTP        -0.7443
     29 C2         -0.1105    5.4166    2.3900 C.ar      1 GTP         0.8831
     30 N2          0.3241    5.8571    3.6138 N.pl3     1 GTP        -0.9204
     31 N3          0.4444    4.2053    2.0072 N.pl3     1 GTP        -0.7173
     32 C4          0.0746    3.6889    0.8098 C.ar      1 GTP         0.2626
     33 HOG3        2.6463   -3.3526   -8.5723 H         1 GTP         0.4102
     34 H5'         2.5589    0.5217   -2.5976 H         1 GTP         0.0289
     35 H5''        1.1982   -0.4388   -1.9617 H         1 GTP         0.0289
     36 H4'         3.8044   -0.1397   -0.4040 H         1 GTP         0.2056
     37 H3'         1.6764   -1.7639    0.2728 H         1 GTP         0.1140
     38 HO3'        2.2232   -1.2979    2.3953 H         1 GTP         0.4287
     39 H2'        -0.0011    0.0027    0.0003 H         1 GTP         0.0809
     40 HO2'       -0.6141    0.5574    2.1082 H         1 GTP         0.4385
     41 H1'         1.7826    1.9024    1.6451 H         1 GTP         0.0794
     42 H8         -0.1415    1.7265   -1.7082 H         1 GTP         0.3821
     43 HN21       -0.0303    6.7197    3.9559 H         1 GTP         0.4411
     44 HN22        0.9765    5.2967    4.1108 H         1 GTP         0.4411
     45 H45         1.1068    3.6990    2.5819 H         1 GTP         0.4819
     46 H46        -1.5877    3.7943   -1.9074 H         1 GTP         0.5182
@<TRIPOS>BOND
     1    1    2 2
     2    1    3 1
     3    1    4 1
     4    1    5 1
     5    4   33 1
     6    5    6 1
     7    6    7 2
     8    6    8 1
     9    6    9 1
    10    9   10 1
    11   10   11 2
    12   10   12 1
    13   10   13 1
    14   13   14 1
    15   14   15 1
    16   14   34 1
    17   14   35 1
    18   15   16 1
    19   15   17 1
    20   15   36 1
    21   16   21 1
    22   17   18 1
    23   17   19 1
    24   17   37 1
    25   18   38 1
    26   19   20 1
    27   19   21 1
    28   19   39 1
    29   20   40 1
    30   21   22 1
    31   21   41 1
    32   22   23 ar
    33   22   32 ar
    34   23   24 ar
    35   23   42 1
    36   24   25 ar
    37   24   46 1
    38   25   26 ar
    39   25   32 ar
    40   26   27 2
    41   26   28 ar
    42   28   29 ar
    43   29   30 1
    44   29   31 ar
    45   30   43 1
    46   30   44 1
    47   31   32 ar
    48   31   45 1
@<TRIPOS>SUBSTRUCTURE
     1 GTP         1 GROUP 0 A     ****
@<TRIPOS>MOLECULE
[[[5-(2-amino-6-oxo-7,8-dihydro-3~{H}-purin-8-ylium-9-yl)-3,4-dihydroxy-tetrahydrofuran-2-yl]methoxy-oxido-phosphoryl]oxy-oxido-phosphoryl] hydrogen phosphate
   46    48     1     0     0
SMALL
USER_CHARGES

@<TRIPOS>ATOM
      1 PG         -1.2406   -1.4787   -4.9592 P.3       1 GTP         1.5447
      2 O1G        -0.2014   -2.5720   -4.8487 O.co2     1 GTP        -0.8705
      3 O2G        -2.0455   -1.0467   -3.7537 O.co2     1 GTP        -0.8705
      4 O3G        -2.2751   -1.8660   -6.1616 O.3       1 GTP        -0.7914
      5 O3B        -0.5559   -0.1616   -5.6377 O.3       1 GTP        -0.8116
      6 PB          0.6060    0.8286   -5.0589 P.3       1 GTP         1.6738
      7 O1B         0.9823    1.8179   -6.1392 O.co2     1 GTP        -0.8763
      8 O2B         0.2195    1.2830   -3.6690 O.co2     1 GTP        -0.8763
      9 O3A         1.8086   -0.2594   -4.8729 O.3       1 GTP        -0.8005
     10 PA          3.3343   -0.0514   -4.3264 P.3       1 GTP         1.5754
     11 O1A         4.0106   -1.4028   -4.2454 O.co2     1 GTP        -0.8771
     12 O2A         3.9675    1.0961   -5.0826 O.co2     1 GTP        -0.8771
     13 O5'         3.0213    0.5153   -2.8245 O.3       1 GTP        -0.5809
     14 C5'         2.2816   -0.2918   -1.9206 C.3       1 GTP         0.1986
     15 C4'         2.7248    0.0226   -0.4980 C.3       1 GTP         0.0418
     16 O4'         2.4697    1.4219   -0.2462 O.3       1 GTP        -0.3505
     17 C3'         1.9404   -0.7419    0.5596 C.3       1 GTP         0.0909
     18 O3'         2.7418   -0.8086    1.7389 O.3       1 GTP        -0.6187
     19 C2'         0.7477    0.1630    0.7858 C.3       1 GTP         0.0706
     20 O2'         0.1373   -0.0577    2.0407 O.3       1 GTP        -0.6294
     21 C1'         1.3733    1.5427    0.6747 C.3       1 GTP         0.3895
     22 N9          0.4520    2.5240    0.1767 N.pl3     1 GTP        -0.4733
     23 C8          0.5427    3.2356   -0.9425 C.ar      1 GTP         0.2958
     24 N7         -0.4919    4.0590   -1.1018 N.pl3     1 GTP        -0.4933
     25 C5         -1.2850    3.8484   -0.0069 C.ar      1 GTP        -0.1494
     26 C6         -2.5644    4.4707    0.3650 C.ar      1 GTP         0.7954
     27 O6         -3.0718    5.3200   -0.3599 O.2       1 GTP        -0.5729
     28 N1         -3.1239    4.0269    1.5647 N.2       1 GTP        -0.7443
     29 C2         -2.5133    3.1079    2.2858 C.ar      1 GTP         0.8831
     30 N2         -3.0239    2.6409    3.4697 N.pl3     1 GTP        -0.9204
     31 N3         -1.3076    2.5223    1.9320 N.pl3     1 GTP        -0.7173
     32 C4         -0.7246    2.9211    0.7753 C.ar      1 GTP         0.2626
     33 HOG3       -3.0129   -1.2505   -6.3591 H         1 GTP         0.4102
     34 H5'         1.2163   -0.0770   -2.0471 H         1 GTP         0.0289
     35 H5''        2.4655   -1.3443   -2.1563 H         1 GTP         0.0289
     36 H4'         3.8044   -0.1397   -0.4040 H         1 GTP         0.2056
     37 H3'         1.6764   -1.7639    0.2728 H         1 GTP         0.1140
     38 HO3'        2.2232   -1.2979    2.3953 H         1 GTP         0.4287
     39 H2'        -0.0011    0.0027    0.0003 H         1 GTP         0.0809
     40 HO2'       -0.1563   -0.9855    2.0596 H         1 GTP         0.4385
     41 H1'         1.7826    1.9024    1.6451 H         1 GTP         0.0794
     42 H8          1.3539    3.1622   -1.6455 H         1 GTP         0.3821
     43 HN21       -3.8871    3.0143    3.7893 H         1 GTP         0.4411
     44 HN22       -2.5108    1.9472    3.9621 H         1 GTP         0.4411
     45 H45        -0.8530    1.8168    2.4986 H         1 GTP         0.4819
     46 H46        -0.6466    4.6966   -1.8702 H         1 GTP         0.5182
@<TRIPOS>BOND
     1    1    2 2
     2    1    3 1
     3    1    4 1
     4    1    5 1
     5    4   33 1
     6    5    6 1
     7    6    7 2
     8    6    8 1
     9    6    9 1
    10    9   10 1
    11   10   11 2
    12   10   12 1
    13   10   13 1
    14   13   14 1
    15   14   15 1
    16   14   34 1
    17   14   35 1
    18   15   16 1
    19   15   17 1
    20   15   36 1
    21   16   21 1
    22   17   18 1
    23   17   19 1
    24   17   37 1
    25   18   38 1
    26   19   20 1
    27   19   21 1
    28   19   39 1
    29   20   40 1
    30   21   22 1
    31   21   41 1
    32   22   23 ar
    33   22   32 ar
    34   23   24 ar
    35   23   42 1
    36   24   25 ar
    37   24   46 1
    38   25   26 ar
    39   25   32 ar
    40   26   27 2
    41   26   28 ar
    42   28   29 ar
    43   29   30 1
    44   29   31 ar
    45   30   43 1
    46   30   44 1
    47   31   32 ar
    48   31   45 1
@<TRIPOS>SUBSTRUCTURE
     1 GTP         1 GROUP 0 A     ****
@<TRIPOS>MOLECULE
[[[5-(2-amino-6-oxo-7,8-dihydro-3~{H}-purin-8-ylium-9-yl)-3,4-dihydroxy-tetrahydrofuran-2-yl]methoxy-oxido-phosphoryl]oxy-oxido-phosphoryl] hydrogen phosphate
   46    48     1     0     0
SMALL
USER_CHARGES

@<TRIPOS>ATOM
      1 PG          1.5456    1.3125   -7.8624 P.3       1 GTP         1.5447
      2 O1G         2.6282    2.1471   -8.5096 O.co2     1 GTP        -0.8705
      3 O2G         0.6422    0.4301   -8.6949 O.co2     1 GTP        -0.8705
      4 O3G         0.6134    2.2918   -6.9469 O.3       1 GTP        -0.7914
      5 O3B         2.2074    0.4163   -6.6696 O.3       1 GTP        -0.8116
      6 PB          1.4889   -0.5382   -5.5569 P.3       1 GTP         1.6738
      7 O1B         0.6565    0.3290   -4.6391 O.co2     1 GTP        -0.8763
      8 O2B         0.9028   -1.7483   -6.2497 O.co2     1 GTP        -0.8763
      9 O3A         2.8162   -1.0576   -4.7611 O.3       1 GTP        -0.8005
     10 PA          3.9554   -0.2064   -3.9565 P.3       1 GTP         1.5754
     11 O1A         4.9156   -1.1760   -3.3022 O.co2     1 GTP        -0.8771
     12 O2A         4.4556    0.9034   -4.8553 O.co2     1 GTP        -0.8771
     13 O5'         3.0213    0.5153   -2.8245 O.3       1 GTP        -0.5809
     14 C5'         2.2816   -0.2918   -1.9206 C.3       1 GTP         0.1986
     15 C4'         2.7248    0.0226   -0.4980 C.3       1 GTP         0.0418
     16 O4'         2.4697    1.4219   -0.2462 O.3       1 GTP        -0.3505
     17 C3'         1.9404   -0.7419    0.5596 C.3       1 GTP         0.0909
     18 O3'         2.7418   -0.8086    1.7389 O.3       1 GTP        -0.6187
     19 C2'         0.7477    0.1630    0.7858 C.3       1 GTP         0.0706
     20 O2'         0.1373   -0.0577    2.0407 O.3       1 GTP        -0.6294
     21 C1'         1.3733    1.5427    0.6747 C.3       1 GTP         0.3895
     22 N9          0.4520    2.5240    0.1767 N.pl3     1 GTP        -0.4733
     23 C8         -0.2136    2.5096   -0.9739 C.ar      1 GTP         0.2958
     24 N7         -0.9896    3.5820   -1.1212 N.pl3     1 GTP        -0.4933
     25 C5         -0.7962    4.3186    0.0156 C.ar      1 GTP        -0.1494
     26 C6         -1.3875    5.6031    0.4192 C.ar      1 GTP         0.7954
     27 O6         -2.1869    6.1731   -0.3158 O.2       1 GTP        -0.5729
     28 N1         -0.9745    6.0930    1.6597 N.2       1 GTP        -0.7443
     29 C2         -0.1105    5.4166    2.3900 C.ar      1 GTP         0.8831
     30 N2          0.3241    5.8571    3.6138 N.pl3     1 GTP        -0.9204
     31 N3          0.4444    4.2053    2.0072 N.pl3     1 GTP        -0.7173
     32 C4          0.0746    3.6889    0.8098 C.ar      1 GTP         0.2626
     33 HOG3       -0.1394    1.8964   -6.4578 H         1 GTP         0.4102
     34 H5'         1.2163   -0.0770   -2.0471 H         1 GTP         0.0289
     35 H5''        2.4655   -1.3443   -2.1563 H         1 GTP         0.0289
     36 H4'         3.8044   -0.1397   -0.4040 H         1 GTP         0.2056
     37 H3'         1.6764   -1.7639    0.2728 H         1 GTP         0.1140
     38 HO3'        2.2232   -1.2979    2.3953 H         1 GTP         0.4287
     39 H2'        -0.0011    0.0027    0.0003 H         1 GTP         0.0809
     40 HO2'       -0.6141    0.5574    2.1082 H         1 GTP         0.4385
     41 H1'         1.7826    1.9024    1.6451 H         1 GTP         0.0794
     42 H8         -0.1415    1.7265   -1.7082 H         1 GTP         0.3821
     43 HN21       -0.0303    6.7197    3.9559 H         1 GTP         0.4411
     44 HN22        0.9765    5.2967    4.1108 H         1 GTP         0.4411
     45 H45         1.1068    3.6990    2.5819 H         1 GTP         0.4819
     46 H46        -1.5877    3.7943   -1.9074 H         1 GTP         0.5182
@<TRIPOS>BOND
     1    1    2 2
     2    1    3 1
     3    1    4 1
     4    1    5 1
     5    4   33 1
     6    5    6 1
     7    6    7 2
     8    6    8 1
     9    6    9 1
    10    9   10 1
    11   10   11 2
    12   10   12 1
    13   10   13 1
    14   13   14 1
    15   14   15 1
    16   14   34 1
    17   14   35 1
    18   15   16 1
    19   15   17 1
    20   15   36 1
    21   16   21 1
    22   17   18 1
    23   17   19 1
    24   17   37 1
    25   18   38 1
    26   19   20 1
    27   19   21 1
    28   19   39 1
    29   20   40 1
    30   21   22 1
    31   21   41 1
    32   22   23 ar
    33   22   32 ar
    34   23   24 ar
    35   23   42 1
    36   24   25 ar
    37   24   46 1
    38   25   26 ar
    39   25   32 ar
    40   26   27 2
    41   26   28 ar
    42   28   29 ar
    43   29   30 1
    44   29   31 ar
    45   30   43 1
    46   30   44 1
    47   31   32 ar
    48   31   45 1
@<TRIPOS>SUBSTRUCTURE
     1 GTP         1 GROUP 0 A     ****
@<TRIPOS>MOLECULE
[[[5-(2-amino-6-oxo-7,8-dihydro-3~{H}-purin-8-ylium-9-yl)-3,4-dihydroxy-tetrahydrofuran-2-yl]methoxy-oxido-phosphoryl]oxy-oxido-phosphoryl] hydrogen phosphate
   46    48     1     0     0
SMALL
USER_CHARGES

@<TRIPOS>ATOM
      1 PG          0.7669    3.2082   -6.8069 P.3       1 GTP         1.5447
      2 O1G         1.8874    3.8654   -7.5815 O.co2     1 GTP        -0.8705
      3 O2G        -0.5639    2.9147   -7.4632 O.co2     1 GTP        -0.8705
      4 O3G         0.4958    4.0755   -5.4504 O.3       1 GTP        -0.7914
      5 O3B         1.3293    1.8403   -6.1167 O.3       1 GTP        -0.8116
      6 PB          0.6060    0.8286   -5.0589 P.3       1 GTP         1.6738
      7 O1B         0.3855    1.5656   -3.7567 O.co2     1 GTP        -0.8763
      8 O2B        -0.5222    0.1057   -5.7604 O.co2     1 GTP        -0.8763
      9 O3A         1.8086   -0.2594   -4.8729 O.3       1 GTP        -0.8005
     10 PA          3.3343   -0.0514   -4.3264 P.3       1 GTP         1.5754
     11 O1A         4.0106   -1.4028   -4.2454 O.co2     1 GTP        -0.8771
     12 O2A         3.9675    1.0961   -5.0826 O.co2     1 GTP        -0.8771
     13 O5'         3.0213    0.5153   -2.8245 O.3       1 GTP        -0.5809
     14 C5'         2.2816   -0.2918   -1.9206 C.3       1 GTP         0.1986
     15 C4'         2.7248    0.0226   -0.4980 C.3       1 GTP         0.0418
     16 O4'         2.4697    1.4219   -0.2462 O.3       1 GTP        -0.3505
     17 C3'         1.9404   -0.7419    0.5596 C.3       1 GTP         0.0909
     18 O3'         2.7418   -0.8086    1.7389 O.3       1 GTP        -0.6187
     19 C2'         0.7477    0.1630    0.7858 C.3       1 GTP         0.0706
     20 O2'         0.1373   -0.0577    2.0407 O.3       1 GTP        -0.6294
     21 C1'         1.3733    1.5427    0.6747 C.3       1 GTP         0.3895
     22 N9          0.4520    2.5240    0.1767 N.pl3     1 GTP        -0.4733
     23 C8          0.5427    3.2356   -0.9425 C.ar      1 GTP         0.2958
     24 N7         -0.4919    4.0590   -1.1018 N.pl3     1 GTP        -0.4933
     25 C5         -1.2850    3.8484   -0.0069 C.ar      1 GTP        -0.1494
     26 C6         -2.5644    4.4707    0.3650 C.ar      1 GTP         0.7954
     27 O6         -3.0718    5.3200   -0.3599 O.2       1 GTP        -0.5729
     28 N1         -3.1239    4.0269    1.5647 N.2       1 GTP        -0.7443
     29 C2         -2.5133    3.1079    2.2858 C.ar      1 GTP         0.8831
     30 N2         -3.0239    2.6409    3.4697 N.pl3     1 GTP        -0.9204
     31 N3         -1.3076    2.5223    1.9320 N.pl3     1 GTP        -0.7173
     32 C4         -0.7246    2.9211    0.7753 C.ar      1 GTP         0.2626
     33 HOG3       -0.2078    3.7746   -4.8366 H         1 GTP         0.4102
     34 H5'         1.2163   -0.0770   -2.0471 H         1 GTP         0.0289
     35 H5''        2.4655   -1.3443   -2.1563 H         1 GTP         0.0289
     36 H4'         3.8044   -0.1397   -0.4040 H         1 GTP         0.2056
     37 H3'         1.6764   -1.7639    0.2728 H         1 GTP         0.1140
     38 HO3'        3.5554   -1.2733    1.4914 H         1 GTP         0.4287
     39 H2'        -0.0011    0.0027    0.0003 H         1 GTP         0.0809
     40 HO2'       -0.1563   -0.9855    2.0596 H         1 GTP         0.4385
     41 H1'         1.7826    1.9024    1.6451 H         1 GTP         0.0794
     42 H8          1.3539    3.1622   -1.6455 H         1 GTP         0.3821
     43 HN21       -3.8871    3.0143    3.7893 H         1 GTP         0.4411
     44 HN22       -2.5108    1.9472    3.9621 H         1 GTP         0.4411
     45 H45        -0.8530    1.8168    2.4986 H         1 GTP         0.4819
     46 H46        -0.6466    4.6966   -1.8702 H         1 GTP         0.5182
@<TRIPOS>BOND
     1    1    2 2
     2    1    3 1
     3    1    4 1
     4    1    5 1
     5    4   33 1
     6    5    6 1
     7    6    7 2
     8    6    8 1
     9    6    9 1
    10    9   10 1
    11   10   11 2
    12   10   12 1
    13   10   13 1
    14   13   14 1
    15   14   15 1
    16   14   34 1
    17   14   35 1
    18   15   16 1
    19   15   17 1
    20   15   36 1
    21   16   21 1
    22   17   18 1
    23   17   19 1
    24   17   37 1
    25   18   38 1
    26   19   20 1
    27   19   21 1
    28   19   39 1
    29   20   40 1
    30   21   22 1
    31   21   41 1
    32   22   23 ar
    33   22   32 ar
    34   23   24 ar
    35   23   42 1
    36   24   25 ar
    37   24   46 1
    38   25   26 ar
    39   25   32 ar
    40   26   27 2
    41   26   28 ar
    42   28   29 ar
    43   29   30 1
    44   29   31 ar
    45   30   43 1
    46   30   44 1
    47   31   32 ar
    48   31   45 1
@<TRIPOS>SUBSTRUCTURE
     1 GTP         1 GROUP 0 A     ****
@<TRIPOS>MOLECULE
[[[5-(2-amino-6-oxo-7,8-dihydro-3~{H}-purin-8-ylium-9-yl)-3,4-dihydroxy-tetrahydrofuran-2-yl]methoxy-oxido-phosphoryl]oxy-oxido-phosphoryl] hydrogen phosphate
   46    48     1     0     0
SMALL
USER_CHARGES

@<TRIPOS>ATOM
      1 PG          6.5546   -1.4316   -1.8814 P.3       1 GTP         1.5447
      2 O1G         7.6726   -0.7798   -2.6641 O.co2     1 GTP        -0.8705
      3 O2G         6.1728   -0.9294   -0.5067 O.co2     1 GTP        -0.8705
      4 O3G         6.8555   -3.0333   -1.7830 O.3       1 GTP        -0.7914
      5 O3B         5.2164   -1.4889   -2.8140 O.3       1 GTP        -0.8116
      6 PB          5.0152   -2.0896   -4.3188 P.3       1 GTP         1.6738
      7 O1B         5.8278   -1.2575   -5.2856 O.co2     1 GTP        -0.8763
      8 O2B         5.1424   -3.5959   -4.2696 O.co2     1 GTP        -0.8763
      9 O3A         3.4281   -1.7650   -4.5203 O.3       1 GTP        -0.8005
     10 PA          2.1372   -2.2718   -3.6563 P.3       1 GTP         1.5754
     11 O1A         0.8958   -1.5923   -4.1925 O.co2     1 GTP        -0.8771
     12 O2A         2.2074   -3.7770   -3.5183 O.co2     1 GTP        -0.8771
     13 O5'         2.5245   -1.6648   -2.1878 O.3       1 GTP        -0.5809
     14 C5'         2.2816   -0.2918   -1.9206 C.3       1 GTP         0.1986
     15 C4'         2.7248    0.0226   -0.4980 C.3       1 GTP         0.0418
     16 O4'         2.4697    1.4219   -0.2462 O.3       1 GTP        -0.3505
     17 C3'         1.9404   -0.7419    0.5596 C.3       1 GTP         0.0909
     18 O3'         2.7418   -0.8086    1.7389 O.3       1 GTP        -0.6187
     19 C2'         0.7477    0.1630    0.7858 C.3       1 GTP         0.0706
     20 O2'         0.1373   -0.0577    2.0407 O.3       1 GTP        -0.6294
     21 C1'         1.3733    1.5427    0.6747 C.3       1 GTP         0.3895
     22 N9          0.4520    2.5240    0.1767 N.pl3     1 GTP        -0.4733
     23 C8         -0.2136    2.5096   -0.9739 C.ar      1 GTP         0.2958
     24 N7         -0.9896    3.5820   -1.1212 N.pl3     1 GTP        -0.4933
     25 C5         -0.7962    4.3186    0.0156 C.ar      1 GTP        -0.1494
     26 C6         -1.3875    5.6031    0.4192 C.ar      1 GTP         0.7954
     27 O6         -2.1869    6.1731   -0.3158 O.2       1 GTP        -0.5729
     28 N1         -0.9745    6.0930    1.6597 N.2       1 GTP        -0.7443
     29 C2         -0.1105    5.4166    2.3900 C.ar      1 GTP         0.8831
     30 N2          0.3241    5.8571    3.6138 N.pl3     1 GTP        -0.9204
     31 N3          0.4444    4.2053    2.0072 N.pl3     1 GTP        -0.7173
     32 C4          0.0746    3.6889    0.8098 C.ar      1 GTP         0.2626
     33 HOG3        6.2157   -3.5999   -1.3014 H         1 GTP         0.4102
     34 H5'         2.8432    0.3119   -2.6398 H         1 GTP         0.0289
     35 H5''        1.2128   -0.0927   -2.0428 H         1 GTP         0.0289
     36 H4'         3.8044   -0.1397   -0.4040 H         1 GTP         0.2056
     37 H3'         1.6764   -1.7639    0.2728 H         1 GTP         0.1140
     38 HO3'        2.2232   -1.2979    2.3953 H         1 GTP         0.4287
     39 H2'        -0.0011    0.0027    0.0003 H         1 GTP         0.0809
     40 HO2'       -0.1563   -0.9855    2.0596 H         1 GTP         0.4385
     41 H1'         1.7826    1.9024    1.6451 H         1 GTP         0.0794
     42 H8         -0.1415    1.7265   -1.7082 H         1 GTP         0.3821
     43 HN21       -0.0303    6.7197    3.9559 H         1 GTP         0.4411
     44 HN22        0.9765    5.2967    4.1108 H         1 GTP         0.4411
     45 H45         1.1068    3.6990    2.5819 H         1 GTP         0.4819
     46 H46        -1.5877    3.7943   -1.9074 H         1 GTP         0.5182
@<TRIPOS>BOND
     1    1    2 2
     2    1    3 1
     3    1    4 1
     4    1    5 1
     5    4   33 1
     6    5    6 1
     7    6    7 2
     8    6    8 1
     9    6    9 1
    10    9   10 1
    11   10   11 2
    12   10   12 1
    13   10   13 1
    14   13   14 1
    15   14   15 1
    16   14   34 1
    17   14   35 1
    18   15   16 1
    19   15   17 1
    20   15   36 1
    21   16   21 1
    22   17   18 1
    23   17   19 1
    24   17   37 1
    25   18   38 1
    26   19   20 1
    27   19   21 1
    28   19   39 1
    29   20   40 1
    30   21   22 1
    31   21   41 1
    32   22   23 ar
    33   22   32 ar
    34   23   24 ar
    35   23   42 1
    36   24   25 ar
    37   24   46 1
    38   25   26 ar
    39   25   32 ar
    40   26   27 2
    41   26   28 ar
    42   28   29 ar
    43   29   30 1
    44   29   31 ar
    45   30   43 1
    46   30   44 1
    47   31   32 ar
    48   31   45 1
@<TRIPOS>SUBSTRUCTURE
     1 GTP         1 GROUP 0 A     ****
@<TRIPOS>MOLECULE
[[[5-(2-amino-6-oxo-7,8-dihydro-3~{H}-purin-8-ylium-9-yl)-3,4-dihydroxy-tetrahydrofuran-2-yl]methoxy-oxido-phosphoryl]oxy-oxido-phosphoryl] hydrogen phosphate
   46    48     1     0     0
SMALL
USER_CHARGES

@<TRIPOS>ATOM
      1 PG          5.9006   -3.0167   -4.4838 P.3       1 GTP         1.5447
      2 O1G         5.3827   -2.4857   -3.1657 O.co2     1 GTP        -0.8705
      3 O2G         6.5597   -4.3753   -4.5694 O.co2     1 GTP        -0.8705
      4 O3G         6.9119   -1.9084   -5.1280 O.3       1 GTP        -0.7914
      5 O3B         4.7073   -2.9367   -5.5944 O.3       1 GTP        -0.8116
      6 PB          3.7793   -1.6706   -6.0432 P.3       1 GTP         1.6738
      7 O1B         4.6823   -0.5260   -6.4453 O.co2     1 GTP        -0.8763
      8 O2B         2.6759   -2.1654   -6.9516 O.co2     1 GTP        -0.8763
      9 O3A         3.0809   -1.3355   -4.6062 O.3       1 GTP        -0.8005
     10 PA          2.1372   -2.2718   -3.6563 P.3       1 GTP         1.5754
     11 O1A         0.6864   -1.9828   -3.9759 O.co2     1 GTP        -0.8771
     12 O2A         2.6769   -3.6852   -3.6801 O.co2     1 GTP        -0.8771
     13 O5'         2.5245   -1.6648   -2.1878 O.3       1 GTP        -0.5809
     14 C5'         2.2816   -0.2918   -1.9206 C.3       1 GTP         0.1986
     15 C4'         2.7248    0.0226   -0.4980 C.3       1 GTP         0.0418
     16 O4'         2.4697    1.4219   -0.2462 O.3       1 GTP        -0.3505
     17 C3'         1.9404   -0.7419    0.5596 C.3       1 GTP         0.0909
     18 O3'         2.7418   -0.8086    1.7389 O.3       1 GTP        -0.6187
     19 C2'         0.7477    0.1630    0.7858 C.3       1 GTP         0.0706
     20 O2'         0.1373   -0.0577    2.0407 O.3       1 GTP        -0.6294
     21 C1'         1.3733    1.5427    0.6747 C.3       1 GTP         0.3895
     22 N9          0.4520    2.5240    0.1767 N.pl3     1 GTP        -0.4733
     23 C8          0.2012    2.8401   -1.0899 C.ar      1 GTP         0.2958
     24 N7         -0.7168    3.7990   -1.1981 N.pl3     1 GTP        -0.4933
     25 C5         -1.0645    4.1043    0.0896 C.ar      1 GTP        -0.1494
     26 C6         -2.0336    5.0870    0.5973 C.ar      1 GTP         0.7954
     27 O6         -2.6730    5.7839   -0.1834 O.2       1 GTP        -0.5729
     28 N1         -2.1539    5.1517    1.9868 N.2       1 GTP        -0.7443
     29 C2         -1.4288    4.3650    2.7566 C.ar      1 GTP         0.8831
     30 N2         -1.5126    4.3922    4.1250 N.pl3     1 GTP        -0.9204
     31 N3         -0.5167    3.4388    2.2748 N.pl3     1 GTP        -0.7173
     32 C4         -0.3638    3.3392    0.9318 C.ar      1 GTP         0.2626
     33 HOG3        7.3336   -2.1071   -5.9911 H         1 GTP         0.4102
     34 H5'         2.8432    0.3119   -2.6398 H         1 GTP         0.0289
     35 H5''        1.2128   -0.0927   -2.0428 H         1 GTP         0.0289
     36 H4'         3.8044   -0.1397   -0.4040 H         1 GTP         0.2056
     37 H3'         1.6764   -1.7639    0.2728 H         1 GTP         0.1140
     38 HO3'        2.2232   -1.2979    2.3953 H         1 GTP         0.4287
     39 H2'        -0.0011    0.0027    0.0003 H         1 GTP         0.0809
     40 HO2'       -0.6141    0.5574    2.1082 H         1 GTP         0.4385
     41 H1'         1.7826    1.9024    1.6451 H         1 GTP         0.0794
     42 H8          0.6787    2.3803   -1.9373 H         1 GTP         0.3821
     43 HN21       -2.1462    5.0320    4.5446 H         1 GTP         0.4411
     44 HN22       -0.9365    3.7712    4.6440 H         1 GTP         0.4411
     45 H45         0.0318    2.8419    2.8816 H         1 GTP         0.4819
     46 H46        -1.0718    4.2049   -2.0526 H         1 GTP         0.5182
@<TRIPOS>BOND
     1    1    2 2
     2    1    3 1
     3    1    4 1
     4    1    5 1
     5    4   33 1
     6    5    6 1
     7    6    7 2
     8    6    8 1
     9    6    9 1
    10    9   10 1
    11   10   11 2
    12   10   12 1
    13   10   13 1
    14   13   14 1
    15   14   15 1
    16   14   34 1
    17   14   35 1
    18   15   16 1
    19   15   17 1
    20   15   36 1
    21   16   21 1
    22   17   18 1
    23   17   19 1
    24   17   37 1
    25   18   38 1
    26   19   20 1
    27   19   21 1
    28   19   39 1
    29   20   40 1
    30   21   22 1
    31   21   41 1
    32   22   23 ar
    33   22   32 ar
    34   23   24 ar
    35   23   42 1
    36   24   25 ar
    37   24   46 1
    38   25   26 ar
    39   25   32 ar
    40   26   27 2
    41   26   28 ar
    42   28   29 ar
    43   29   30 1
    44   29   31 ar
    45   30   43 1
    46   30   44 1
    47   31   32 ar
    48   31   45 1
@<TRIPOS>SUBSTRUCTURE
     1 GTP         1 GROUP 0 A     ****
@<TRIPOS>MOLECULE
[[[5-(2-amino-6-oxo-7,8-dihydro-3~{H}-purin-8-ylium-9-yl)-3,4-dihydroxy-tetrahydrofuran-2-yl]methoxy-oxido-phosphoryl]oxy-oxido-phosphoryl] hydrogen phosphate
   46    48     1     0     0
SMALL
USER_CHARGES

@<TRIPOS>ATOM
      1 PG          4.3833   -0.1878   -7.3952 P.3       1 GTP         1.5447
      2 O1G         5.2364   -1.2316   -8.0810 O.co2     1 GTP        -0.8705
      3 O2G         2.8736   -0.2510   -7.4628 O.co2     1 GTP        -0.8705
      4 O3G         4.8635    1.2885   -7.9011 O.3       1 GTP        -0.7914
      5 O3B         4.8385   -0.0730   -5.8321 O.3       1 GTP        -0.8116
      6 PB          4.7038   -1.1596   -4.6210 P.3       1 GTP         1.6738
      7 O1B         5.3485   -2.4559   -5.0587 O.co2     1 GTP        -0.8763
      8 O2B         5.0751   -0.4919   -3.3157 O.co2     1 GTP        -0.8763
      9 O3A         3.0809   -1.3355   -4.6062 O.3       1 GTP        -0.8005
     10 PA          2.1372   -2.2718   -3.6563 P.3       1 GTP         1.5754
     11 O1A         0.6864   -1.9828   -3.9759 O.co2     1 GTP        -0.8771
     12 O2A         2.6769   -3.6852   -3.6801 O.co2     1 GTP        -0.8771
     13 O5'         2.5245   -1.6648   -2.1878 O.3       1 GTP        -0.5809
     14 C5'         2.2816   -0.2918   -1.9206 C.3       1 GTP         0.1986
     15 C4'         2.7248    0.0226   -0.4980 C.3       1 GTP         0.0418
     16 O4'         2.4697    1.4219   -0.2462 O.3       1 GTP        -0.3505
     17 C3'         1.9404   -0.7419    0.5596 C.3       1 GTP         0.0909
     18 O3'         2.7418   -0.8086    1.7389 O.3       1 GTP        -0.6187
     19 C2'         0.7477    0.1630    0.7858 C.3       1 GTP         0.0706
     20 O2'         0.1373   -0.0577    2.0407 O.3       1 GTP        -0.6294
     21 C1'         1.3733    1.5427    0.6747 C.3       1 GTP         0.3895
     22 N9          0.4520    2.5240    0.1767 N.pl3     1 GTP        -0.4733
     23 C8         -0.2136    2.5096   -0.9739 C.ar      1 GTP         0.2958
     24 N7         -0.9896    3.5820   -1.1212 N.pl3     1 GTP        -0.4933
     25 C5         -0.7962    4.3186    0.0156 C.ar      1 GTP        -0.1494
     26 C6         -1.3875    5.6031    0.4192 C.ar      1 GTP         0.7954
     27 O6         -2.1869    6.1731   -0.3158 O.2       1 GTP        -0.5729
     28 N1         -0.9745    6.0930    1.6597 N.2       1 GTP        -0.7443
     29 C2         -0.1105    5.4166    2.3900 C.ar      1 GTP         0.8831
     30 N2          0.3241    5.8571    3.6138 N.pl3     1 GTP        -0.9204
     31 N3          0.4444    4.2053    2.0072 N.pl3     1 GTP        -0.7173
     32 C4          0.0746    3.6889    0.8098 C.ar      1 GTP         0.2626
     33 HOG3        4.4026    2.0772   -7.5437 H         1 GTP         0.4102
     34 H5'         2.8432    0.3119   -2.6398 H         1 GTP         0.0289
     35 H5''        1.2128   -0.0927   -2.0428 H         1 GTP         0.0289
     36 H4'         3.8044   -0.1397   -0.4040 H         1 GTP         0.2056
     37 H3'         1.6764   -1.7639    0.2728 H         1 GTP         0.1140
     38 HO3'        2.2232   -1.2979    2.3953 H         1 GTP         0.4287
     39 H2'        -0.0011    0.0027    0.0003 H         1 GTP         0.0809
     40 HO2'       -0.6141    0.5574    2.1082 H         1 GTP         0.4385
     41 H1'         1.7826    1.9024    1.6451 H         1 GTP         0.0794
     42 H8         -0.1415    1.7265   -1.7082 H         1 GTP         0.3821
     43 HN21       -0.0303    6.7197    3.9559 H         1 GTP         0.4411
     44 HN22        0.9765    5.2967    4.1108 H         1 GTP         0.4411
     45 H45         1.1068    3.6990    2.5819 H         1 GTP         0.4819
     46 H46        -1.5877    3.7943   -1.9074 H         1 GTP         0.5182
@<TRIPOS>BOND
     1    1    2 2
     2    1    3 1
     3    1    4 1
     4    1    5 1
     5    4   33 1
     6    5    6 1
     7    6    7 2
     8    6    8 1
     9    6    9 1
    10    9   10 1
    11   10   11 2
    12   10   12 1
    13   10   13 1
    14   13   14 1
    15   14   15 1
    16   14   34 1
    17   14   35 1
    18   15   16 1
    19   15   17 1
    20   15   36 1
    21   16   21 1
    22   17   18 1
    23   17   19 1
    24   17   37 1
    25   18   38 1
    26   19   20 1
    27   19   21 1
    28   19   39 1
    29   20   40 1
    30   21   22 1
    31   21   41 1
    32   22   23 ar
    33   22   32 ar
    34   23   24 ar
    35   23   42 1
    36   24   25 ar
    37   24   46 1
    38   25   26 ar
    39   25   32 ar
    40   26   27 2
    41   26   28 ar
    42   28   29 ar
    43   29   30 1
    44   29   31 ar
    45   30   43 1
    46   30   44 1
    47   31   32 ar
    48   31   45 1
@<TRIPOS>SUBSTRUCTURE
     1 GTP         1 GROUP 0 A     ****
@<TRIPOS>MOLECULE
[[[5-(2-amino-6-oxo-7,8-dihydro-3~{H}-purin-8-ylium-9-yl)-3,4-dihydroxy-tetrahydrofuran-2-yl]methoxy-oxido-phosphoryl]oxy-oxido-phosphoryl] hydrogen phosphate
   46    48     1     0     0
SMALL
USER_CHARGES

@<TRIPOS>ATOM
      1 PG          4.4729   -0.0408   -7.9975 P.3       1 GTP         1.5447
      2 O1G         3.4563    1.0708   -8.1327 O.co2     1 GTP        -0.8705
      3 O2G         5.9380    0.2072   -8.2802 O.co2     1 GTP        -0.8705
      4 O3G         3.9783   -1.3086   -8.8997 O.3       1 GTP        -0.7914
      5 O3B         4.3265   -0.7178   -6.5197 O.3       1 GTP        -0.8116
      6 PB          3.0081   -1.3280   -5.7747 P.3       1 GTP         1.6738
      7 O1B         2.0341   -0.2009   -5.5128 O.co2     1 GTP        -0.8763
      8 O2B         2.5820   -2.5938   -6.4845 O.co2     1 GTP        -0.8763
      9 O3A         3.6940   -1.7938   -4.3685 O.3       1 GTP        -0.8005
     10 PA          4.4789   -0.9083   -3.2418 P.3       1 GTP         1.5754
     11 O1A         4.8237   -1.8045   -2.0721 O.co2     1 GTP        -0.8771
     12 O2A         5.5401   -0.0784   -3.9309 O.co2     1 GTP        -0.8771
     13 O5'         3.2903    0.1346   -2.8241 O.3       1 GTP        -0.5809
     14 C5'         2.2816   -0.2918   -1.9206 C.3       1 GTP         0.1986
     15 C4'         2.7248    0.0226   -0.4980 C.3       1 GTP         0.0418
     16 O4'         2.4697    1.4219   -0.2462 O.3       1 GTP        -0.3505
     17 C3'         1.9404   -0.7419    0.5596 C.3       1 GTP         0.0909
     18 O3'         2.7418   -0.8086    1.7389 O.3       1 GTP        -0.6187
     19 C2'         0.7477    0.1630    0.7858 C.3       1 GTP         0.0706
     20 O2'         0.1373   -0.0577    2.0407 O.3       1 GTP        -0.6294
     21 C1'         1.3733    1.5427    0.6747 C.3       1 GTP         0.3895
     22 N9          0.4520    2.5240    0.1767 N.pl3     1 GTP        -0.4733
     23 C8          0.2012    2.8401   -1.0899 C.ar      1 GTP         0.2958
     24 N7         -0.7168    3.7990   -1.1981 N.pl3     1 GTP        -0.4933
     25 C5         -1.0645    4.1043    0.0896 C.ar      1 GTP        -0.1494
     26 C6         -2.0336    5.0870    0.5973 C.ar      1 GTP         0.7954
     27 O6         -2.6730    5.7839   -0.1834 O.2       1 GTP        -0.5729
     28 N1         -2.1539    5.1517    1.9868 N.2       1 GTP        -0.7443
     29 C2         -1.4288    4.3650    2.7566 C.ar      1 GTP         0.8831
     30 N2         -1.5126    4.3922    4.1250 N.pl3     1 GTP        -0.9204
     31 N3         -0.5167    3.4388    2.2748 N.pl3     1 GTP        -0.7173
     32 C4         -0.3638    3.3392    0.9318 C.ar      1 GTP         0.2626
     33 HOG3        4.5360   -2.1154   -8.9167 H         1 GTP         0.4102
     34 H5'         1.3514    0.2330   -2.1577 H         1 GTP         0.0289
     35 H5''        2.1280   -1.3678   -2.0460 H         1 GTP         0.0289
     36 H4'         3.8044   -0.1397   -0.4040 H         1 GTP         0.2056
     37 H3'         1.6764   -1.7639    0.2728 H         1 GTP         0.1140
     38 HO3'        3.5554   -1.2733    1.4914 H         1 GTP         0.4287
     39 H2'        -0.0011    0.0027    0.0003 H         1 GTP         0.0809
     40 HO2'       -0.6141    0.5574    2.1082 H         1 GTP         0.4385
     41 H1'         1.7826    1.9024    1.6451 H         1 GTP         0.0794
     42 H8          0.6787    2.3803   -1.9373 H         1 GTP         0.3821
     43 HN21       -2.1462    5.0320    4.5446 H         1 GTP         0.4411
     44 HN22       -0.9365    3.7712    4.6440 H         1 GTP         0.4411
     45 H45         0.0318    2.8419    2.8816 H         1 GTP         0.4819
     46 H46        -1.0718    4.2049   -2.0526 H         1 GTP         0.5182
@<TRIPOS>BOND
     1    1    2 2
     2    1    3 1
     3    1    4 1
     4    1    5 1
     5    4   33 1
     6    5    6 1
     7    6    7 2
     8    6    8 1
     9    6    9 1
    10    9   10 1
    11   10   11 2
    12   10   12 1
    13   10   13 1
    14   13   14 1
    15   14   15 1
    16   14   34 1
    17   14   35 1
    18   15   16 1
    19   15   17 1
    20   15   36 1
    21   16   21 1
    22   17   18 1
    23   17   19 1
    24   17   37 1
    25   18   38 1
    26   19   20 1
    27   19   21 1
    28   19   39 1
    29   20   40 1
    30   21   22 1
    31   21   41 1
    32   22   23 ar
    33   22   32 ar
    34   23   24 ar
    35   23   42 1
    36   24   25 ar
    37   24   46 1
    38   25   26 ar
    39   25   32 ar
    40   26   27 2
    41   26   28 ar
    42   28   29 ar
    43   29   30 1
    44   29   31 ar
    45   30   43 1
    46   30   44 1
    47   31   32 ar
    48   31   45 1
@<TRIPOS>SUBSTRUCTURE
     1 GTP         1 GROUP 0 A     ****
@<TRIPOS>MOLECULE
[[[5-(2-amino-6-oxo-7,8-dihydro-3~{H}-purin-8-ylium-9-yl)-3,4-dihydroxy-tetrahydrofuran-2-yl]methoxy-oxido-phosphoryl]oxy-oxido-phosphoryl] hydrogen phosphate
   46    48     1     0     0
SMALL
USER_CHARGES

@<TRIPOS>ATOM
      1 PG          7.0743   -1.3422   -5.7084 P.3       1 GTP         1.5447
      2 O1G         7.8664   -0.9833   -4.4710 O.co2     1 GTP        -0.8705
      3 O2G         7.2842   -2.6663   -6.4087 O.co2     1 GTP        -0.8705
      4 O3G         7.2503   -0.1433   -6.8028 O.3       1 GTP        -0.7914
      5 O3B         5.4836   -1.1568   -5.3932 O.3       1 GTP        -0.8116
      6 PB          4.5143   -1.9910   -4.3782 P.3       1 GTP         1.6738
      7 O1B         4.3959   -3.4128   -4.8800 O.co2     1 GTP        -0.8763
      8 O2B         4.9141   -1.6855   -2.9519 O.co2     1 GTP        -0.8763
      9 O3A         3.1119   -1.1996   -4.6459 O.3       1 GTP        -0.8005
     10 PA          2.7407    0.3769   -4.4297 P.3       1 GTP         1.5754
     11 O1A         3.7274    1.2201   -5.2081 O.co2     1 GTP        -0.8771
     12 O2A         1.2486    0.5523   -4.6100 O.co2     1 GTP        -0.8771
     13 O5'         3.0213    0.5153   -2.8245 O.3       1 GTP        -0.5809
     14 C5'         2.2816   -0.2918   -1.9206 C.3       1 GTP         0.1986
     15 C4'         2.7248    0.0226   -0.4980 C.3       1 GTP         0.0418
     16 O4'         2.4697    1.4219   -0.2462 O.3       1 GTP        -0.3505
     17 C3'         1.9404   -0.7419    0.5596 C.3       1 GTP         0.0909
     18 O3'         2.7418   -0.8086    1.7389 O.3       1 GTP        -0.6187
     19 C2'         0.7477    0.1630    0.7858 C.3       1 GTP         0.0706
     20 O2'         0.1373   -0.0577    2.0407 O.3       1 GTP        -0.6294
     21 C1'         1.3733    1.5427    0.6747 C.3       1 GTP         0.3895
     22 N9          0.4520    2.5240    0.1767 N.pl3     1 GTP        -0.4733
     23 C8          0.5427    3.2356   -0.9425 C.ar      1 GTP         0.2958
     24 N7         -0.4919    4.0590   -1.1018 N.pl3     1 GTP        -0.4933
     25 C5         -1.2850    3.8484   -0.0069 C.ar      1 GTP        -0.1494
     26 C6         -2.5644    4.4707    0.3650 C.ar      1 GTP         0.7954
     27 O6         -3.0718    5.3200   -0.3599 O.2       1 GTP        -0.5729
     28 N1         -3.1239    4.0269    1.5647 N.2       1 GTP        -0.7443
     29 C2         -2.5133    3.1079    2.2858 C.ar      1 GTP         0.8831
     30 N2         -3.0239    2.6409    3.4697 N.pl3     1 GTP        -0.9204
     31 N3         -1.3076    2.5223    1.9320 N.pl3     1 GTP        -0.7173
     32 C4         -0.7246    2.9211    0.7753 C.ar      1 GTP         0.2626
     33 HOG3        6.7929   -0.2286   -7.6664 H         1 GTP         0.4102
     34 H5'         1.2163   -0.0770   -2.0471 H         1 GTP         0.0289
     35 H5''        2.4655   -1.3443   -2.1563 H         1 GTP         0.0289
     36 H4'         3.8044   -0.1397   -0.4040 H         1 GTP         0.2056
     37 H3'         1.6764   -1.7639    0.2728 H         1 GTP         0.1140
     38 HO3'        2.2232   -1.2979    2.3953 H         1 GTP         0.4287
     39 H2'        -0.0011    0.0027    0.0003 H         1 GTP         0.0809
     40 HO2'       -0.1563   -0.9855    2.0596 H         1 GTP         0.4385
     41 H1'         1.7826    1.9024    1.6451 H         1 GTP         0.0794
     42 H8          1.3539    3.1622   -1.6455 H         1 GTP         0.3821
     43 HN21       -3.8871    3.0143    3.7893 H         1 GTP         0.4411
     44 HN22       -2.5108    1.9472    3.9621 H         1 GTP         0.4411
     45 H45        -0.8530    1.8168    2.4986 H         1 GTP         0.4819
     46 H46        -0.6466    4.6966   -1.8702 H         1 GTP         0.5182
@<TRIPOS>BOND
     1    1    2 2
     2    1    3 1
     3    1    4 1
     4    1    5 1
     5    4   33 1
     6    5    6 1
     7    6    7 2
     8    6    8 1
     9    6    9 1
    10    9   10 1
    11   10   11 2
    12   10   12 1
    13   10   13 1
    14   13   14 1
    15   14   15 1
    16   14   34 1
    17   14   35 1
    18   15   16 1
    19   15   17 1
    20   15   36 1
    21   16   21 1
    22   17   18 1
    23   17   19 1
    24   17   37 1
    25   18   38 1
    26   19   20 1
    27   19   21 1
    28   19   39 1
    29   20   40 1
    30   21   22 1
    31   21   41 1
    32   22   23 ar
    33   22   32 ar
    34   23   24 ar
    35   23   42 1
    36   24   25 ar
    37   24   46 1
    38   25   26 ar
    39   25   32 ar
    40   26   27 2
    41   26   28 ar
    42   28   29 ar
    43   29   30 1
    44   29   31 ar
    45   30   43 1
    46   30   44 1
    47   31   32 ar
    48   31   45 1
@<TRIPOS>SUBSTRUCTURE
     1 GTP         1 GROUP 0 A     ****
@<TRIPOS>MOLECULE
[[[5-(2-amino-6-oxo-7,8-dihydro-3~{H}-purin-8-ylium-9-yl)-3,4-dihydroxy-tetrahydrofuran-2-yl]methoxy-oxido-phosphoryl]oxy-oxido-phosphoryl] hydrogen phosphate
   46    48     1     0     0
SMALL
USER_CHARGES

@<TRIPOS>ATOM
      1 PG         -0.8689   -0.3843   -7.5539 P.3       1 GTP         1.5447
      2 O1G        -1.4343   -1.7479   -7.2247 O.co2     1 GTP        -0.8705
      3 O2G        -1.7733    0.7484   -7.9861 O.co2     1 GTP        -0.8705
      4 O3G         0.3053   -0.5663   -8.6737 O.3       1 GTP        -0.7914
      5 O3B         0.0551    0.1225   -6.3077 O.3       1 GTP        -0.8116
      6 PB          0.4851    1.6362   -5.8724 P.3       1 GTP         1.6738
      7 O1B         1.3696    2.2185   -6.9523 O.co2     1 GTP        -0.8763
      8 O2B        -0.7373    2.3707   -5.3687 O.co2     1 GTP        -0.8763
      9 O3A         1.3881    1.2844   -4.5588 O.3       1 GTP        -0.8005
     10 PA          2.7407    0.3769   -4.4297 P.3       1 GTP         1.5754
     11 O1A         2.4007   -1.0556   -4.7799 O.co2     1 GTP        -0.8771
     12 O2A         3.8776    1.1015   -5.1169 O.co2     1 GTP        -0.8771
     13 O5'         3.0213    0.5153   -2.8245 O.3       1 GTP        -0.5809
     14 C5'         2.2816   -0.2918   -1.9206 C.3       1 GTP         0.1986
     15 C4'         2.7248    0.0226   -0.4980 C.3       1 GTP         0.0418
     16 O4'         2.4697    1.4219   -0.2462 O.3       1 GTP        -0.3505
     17 C3'         1.9404   -0.7419    0.5596 C.3       1 GTP         0.0909
     18 O3'         2.7418   -0.8086    1.7389 O.3       1 GTP        -0.6187
     19 C2'         0.7477    0.1630    0.7858 C.3       1 GTP         0.0706
     20 O2'         0.1373   -0.0577    2.0407 O.3       1 GTP        -0.6294
     21 C1'         1.3733    1.5427    0.6747 C.3       1 GTP         0.3895
     22 N9          0.4520    2.5240    0.1767 N.pl3     1 GTP        -0.4733
     23 C8          0.5427    3.2356   -0.9425 C.ar      1 GTP         0.2958
     24 N7         -0.4919    4.0590   -1.1018 N.pl3     1 GTP        -0.4933
     25 C5         -1.2850    3.8484   -0.0069 C.ar      1 GTP        -0.1494
     26 C6         -2.5644    4.4707    0.3650 C.ar      1 GTP         0.7954
     27 O6         -3.0718    5.3200   -0.3599 O.2       1 GTP        -0.5729
     28 N1         -3.1239    4.0269    1.5647 N.2       1 GTP        -0.7443
     29 C2         -2.5133    3.1079    2.2858 C.ar      1 GTP         0.8831
     30 N2         -3.0239    2.6409    3.4697 N.pl3     1 GTP        -0.9204
     31 N3         -1.3076    2.5223    1.9320 N.pl3     1 GTP        -0.7173
     32 C4         -0.7246    2.9211    0.7753 C.ar      1 GTP         0.2626
     33 HOG3        0.7734    0.2342   -8.9938 H         1 GTP         0.4102
     34 H5'         1.2163   -0.0770   -2.0471 H         1 GTP         0.0289
     35 H5''        2.4655   -1.3443   -2.1563 H         1 GTP         0.0289
     36 H4'         3.8044   -0.1397   -0.4040 H         1 GTP         0.2056
     37 H3'         1.6764   -1.7639    0.2728 H         1 GTP         0.1140
     38 HO3'        3.5554   -1.2733    1.4914 H         1 GTP         0.4287
     39 H2'        -0.0011    0.0027    0.0003 H         1 GTP         0.0809
     40 HO2'       -0.1563   -0.9855    2.0596 H         1 GTP         0.4385
     41 H1'         1.7826    1.9024    1.6451 H         1 GTP         0.0794
     42 H8          1.3539    3.1622   -1.6455 H         1 GTP         0.3821
     43 HN21       -3.8871    3.0143    3.7893 H         1 GTP         0.4411
     44 HN22       -2.5108    1.9472    3.9621 H         1 GTP         0.4411
     45 H45        -0.8530    1.8168    2.4986 H         1 GTP         0.4819
     46 H46        -0.6466    4.6966   -1.8702 H         1 GTP         0.5182
@<TRIPOS>BOND
     1    1    2 2
     2    1    3 1
     3    1    4 1
     4    1    5 1
     5    4   33 1
     6    5    6 1
     7    6    7 2
     8    6    8 1
     9    6    9 1
    10    9   10 1
    11   10   11 2
    12   10   12 1
    13   10   13 1
    14   13   14 1
    15   14   15 1
    16   14   34 1
    17   14   35 1
    18   15   16 1
    19   15   17 1
    20   15   36 1
    21   16   21 1
    22   17   18 1
    23   17   19 1
    24   17   37 1
    25   18   38 1
    26   19   20 1
    27   19   21 1
    28   19   39 1
    29   20   40 1
    30   21   22 1
    31   21   41 1
    32   22   23 ar
    33   22   32 ar
    34   23   24 ar
    35   23   42 1
    36   24   25 ar
    37   24   46 1
    38   25   26 ar
    39   25   32 ar
    40   26   27 2
    41   26   28 ar
    42   28   29 ar
    43   29   30 1
    44   29   31 ar
    45   30   43 1
    46   30   44 1
    47   31   32 ar
    48   31   45 1
@<TRIPOS>SUBSTRUCTURE
     1 GTP         1 GROUP 0 A     ****
@<TRIPOS>MOLECULE
[[[5-(2-amino-6-oxo-7,8-dihydro-3~{H}-purin-8-ylium-9-yl)-3,4-dihydroxy-tetrahydrofuran-2-yl]methoxy-oxido-phosphoryl]oxy-oxido-phosphoryl] hydrogen phosphate
   46    48     1     0     0
SMALL
USER_CHARGES

@<TRIPOS>ATOM
      1 PG          1.9292   -3.9242   -5.6964 P.3       1 GTP         1.5447
      2 O1G         1.0170   -5.0908   -5.3893 O.co2     1 GTP        -0.8705
      3 O2G         3.0343   -4.0504   -6.7214 O.co2     1 GTP        -0.8705
      4 O3G         2.5790   -3.3913   -4.2965 O.3       1 GTP        -0.7914
      5 O3B         1.0187   -2.6188   -6.0582 O.3       1 GTP        -0.8116
      6 PB          1.4668   -1.0703   -6.3172 P.3       1 GTP         1.6738
      7 O1B         2.5240   -1.0459   -7.3984 O.co2     1 GTP        -0.8763
      8 O2B         0.2284   -0.2060   -6.4010 O.co2     1 GTP        -0.8763
      9 O3A         2.1568   -0.7522   -4.8724 O.3       1 GTP        -0.8005
     10 PA          2.8621    0.6170   -4.3270 P.3       1 GTP         1.5754
     11 O1A         4.0956    0.8937   -5.1591 O.co2     1 GTP        -0.8771
     12 O2A         1.7927    1.6709   -4.1390 O.co2     1 GTP        -0.8771
     13 O5'         3.2903    0.1346   -2.8241 O.3       1 GTP        -0.5809
     14 C5'         2.2816   -0.2918   -1.9206 C.3       1 GTP         0.1986
     15 C4'         2.7248    0.0226   -0.4980 C.3       1 GTP         0.0418
     16 O4'         2.4697    1.4219   -0.2462 O.3       1 GTP        -0.3505
     17 C3'         1.9404   -0.7419    0.5596 C.3       1 GTP         0.0909
     18 O3'         2.7418   -0.8086    1.7389 O.3       1 GTP        -0.6187
     19 C2'         0.7477    0.1630    0.7858 C.3       1 GTP         0.0706
     20 O2'         0.1373   -0.0577    2.0407 O.3       1 GTP        -0.6294
     21 C1'         1.3733    1.5427    0.6747 C.3       1 GTP         0.3895
     22 N9          0.4520    2.5240    0.1767 N.pl3     1 GTP        -0.4733
     23 C8          0.5427    3.2356   -0.9425 C.ar      1 GTP         0.2958
     24 N7         -0.4919    4.0590   -1.1018 N.pl3     1 GTP        -0.4933
     25 C5         -1.2850    3.8484   -0.0069 C.ar      1 GTP        -0.1494
     26 C6         -2.5644    4.4707    0.3650 C.ar      1 GTP         0.7954
     27 O6         -3.0718    5.3200   -0.3599 O.2       1 GTP        -0.5729
     28 N1         -3.1239    4.0269    1.5647 N.2       1 GTP        -0.7443
     29 C2         -2.5133    3.1079    2.2858 C.ar      1 GTP         0.8831
     30 N2         -3.0239    2.6409    3.4697 N.pl3     1 GTP        -0.9204
     31 N3         -1.3076    2.5223    1.9320 N.pl3     1 GTP        -0.7173
     32 C4         -0.7246    2.9211    0.7753 C.ar      1 GTP         0.2626
     33 HOG3        3.1986   -2.6315   -4.3287 H         1 GTP         0.4102
     34 H5'         1.3514    0.2330   -2.1577 H         1 GTP         0.0289
     35 H5''        2.1280   -1.3678   -2.0460 H         1 GTP         0.0289
     36 H4'         3.8044   -0.1397   -0.4040 H         1 GTP         0.2056
     37 H3'         1.6764   -1.7639    0.2728 H         1 GTP         0.1140
     38 HO3'        2.2232   -1.2979    2.3953 H         1 GTP         0.4287
     39 H2'        -0.0011    0.0027    0.0003 H         1 GTP         0.0809
     40 HO2'       -0.1563   -0.9855    2.0596 H         1 GTP         0.4385
     41 H1'         1.7826    1.9024    1.6451 H         1 GTP         0.0794
     42 H8          1.3539    3.1622   -1.6455 H         1 GTP         0.3821
     43 HN21       -3.8871    3.0143    3.7893 H         1 GTP         0.4411
     44 HN22       -2.5108    1.9472    3.9621 H         1 GTP         0.4411
     45 H45        -0.8530    1.8168    2.4986 H         1 GTP         0.4819
     46 H46        -0.6466    4.6966   -1.8702 H         1 GTP         0.5182
@<TRIPOS>BOND
     1    1    2 2
     2    1    3 1
     3    1    4 1
     4    1    5 1
     5    4   33 1
     6    5    6 1
     7    6    7 2
     8    6    8 1
     9    6    9 1
    10    9   10 1
    11   10   11 2
    12   10   12 1
    13   10   13 1
    14   13   14 1
    15   14   15 1
    16   14   34 1
    17   14   35 1
    18   15   16 1
    19   15   17 1
    20   15   36 1
    21   16   21 1
    22   17   18 1
    23   17   19 1
    24   17   37 1
    25   18   38 1
    26   19   20 1
    27   19   21 1
    28   19   39 1
    29   20   40 1
    30   21   22 1
    31   21   41 1
    32   22   23 ar
    33   22   32 ar
    34   23   24 ar
    35   23   42 1
    36   24   25 ar
    37   24   46 1
    38   25   26 ar
    39   25   32 ar
    40   26   27 2
    41   26   28 ar
    42   28   29 ar
    43   29   30 1
    44   29   31 ar
    45   30   43 1
    46   30   44 1
    47   31   32 ar
    48   31   45 1
@<TRIPOS>SUBSTRUCTURE
     1 GTP         1 GROUP 0 A     ****
@<TRIPOS>MOLECULE
[[[5-(2-amino-6-oxo-7,8-dihydro-3~{H}-purin-8-ylium-9-yl)-3,4-dihydroxy-tetrahydrofuran-2-yl]methoxy-oxido-phosphoryl]oxy-oxido-phosphoryl] hydrogen phosphate
   46    48     1     0     0
SMALL
USER_CHARGES

@<TRIPOS>ATOM
      1 PG          1.4677   -3.4888   -6.0062 P.3       1 GTP         1.5447
      2 O1G         2.1125   -3.1829   -7.3397 O.co2     1 GTP        -0.8705
      3 O2G         0.2190   -4.3382   -5.9232 O.co2     1 GTP        -0.8705
      4 O3G         1.1889   -2.0799   -5.2296 O.3       1 GTP        -0.7914
      5 O3B         2.5951   -4.1060   -5.0002 O.3       1 GTP        -0.8116
      6 PB          4.0571   -3.5141   -4.5785 P.3       1 GTP         1.6738
      7 O1B         4.6496   -4.4030   -3.5079 O.co2     1 GTP        -0.8763
      8 O2B         4.8274   -3.1632   -5.8320 O.co2     1 GTP        -0.8763
      9 O3A         3.5853   -2.0999   -3.9136 O.3       1 GTP        -0.8005
     10 PA          4.4789   -0.9083   -3.2418 P.3       1 GTP         1.5754
     11 O1A         5.1592   -1.4497   -2.0031 O.co2     1 GTP        -0.8771
     12 O2A         5.2717   -0.2232   -4.3335 O.co2     1 GTP        -0.8771
     13 O5'         3.2903    0.1346   -2.8241 O.3       1 GTP        -0.5809
     14 C5'         2.2816   -0.2918   -1.9206 C.3       1 GTP         0.1986
     15 C4'         2.7248    0.0226   -0.4980 C.3       1 GTP         0.0418
     16 O4'         2.4697    1.4219   -0.2462 O.3       1 GTP        -0.3505
     17 C3'         1.9404   -0.7419    0.5596 C.3       1 GTP         0.0909
     18 O3'         2.7418   -0.8086    1.7389 O.3       1 GTP        -0.6187
     19 C2'         0.7477    0.1630    0.7858 C.3       1 GTP         0.0706
     20 O2'         0.1373   -0.0577    2.0407 O.3       1 GTP        -0.6294
     21 C1'         1.3733    1.5427    0.6747 C.3       1 GTP         0.3895
     22 N9          0.4520    2.5240    0.1767 N.pl3     1 GTP        -0.4733
     23 C8          0.2012    2.8401   -1.0899 C.ar      1 GTP         0.2958
     24 N7         -0.7168    3.7990   -1.1981 N.pl3     1 GTP        -0.4933
     25 C5         -1.0645    4.1043    0.0896 C.ar      1 GTP        -0.1494
     26 C6         -2.0336    5.0870    0.5973 C.ar      1 GTP         0.7954
     27 O6         -2.6730    5.7839   -0.1834 O.2       1 GTP        -0.5729
     28 N1         -2.1539    5.1517    1.9868 N.2       1 GTP        -0.7443
     29 C2         -1.4288    4.3650    2.7566 C.ar      1 GTP         0.8831
     30 N2         -1.5126    4.3922    4.1250 N.pl3     1 GTP        -0.9204
     31 N3         -0.5167    3.4388    2.2748 N.pl3     1 GTP        -0.7173
     32 C4         -0.3638    3.3392    0.9318 C.ar      1 GTP         0.2626
     33 HOG3        0.7707   -2.1104   -4.3428 H         1 GTP         0.4102
     34 H5'         1.3514    0.2330   -2.1577 H         1 GTP         0.0289
     35 H5''        2.1280   -1.3678   -2.0460 H         1 GTP         0.0289
     36 H4'         3.8044   -0.1397   -0.4040 H         1 GTP         0.2056
     37 H3'         1.6764   -1.7639    0.2728 H         1 GTP         0.1140
     38 HO3'        2.2232   -1.2979    2.3953 H         1 GTP         0.4287
     39 H2'        -0.0011    0.0027    0.0003 H         1 GTP         0.0809
     40 HO2'       -0.6141    0.5574    2.1082 H         1 GTP         0.4385
     41 H1'         1.7826    1.9024    1.6451 H         1 GTP         0.0794
     42 H8          0.6787    2.3803   -1.9373 H         1 GTP         0.3821
     43 HN21       -2.1462    5.0320    4.5446 H         1 GTP         0.4411
     44 HN22       -0.9365    3.7712    4.6440 H         1 GTP         0.4411
     45 H45         0.0318    2.8419    2.8816 H         1 GTP         0.4819
     46 H46        -1.0718    4.2049   -2.0526 H         1 GTP         0.5182
@<TRIPOS>BOND
     1    1    2 2
     2    1    3 1
     3    1    4 1
     4    1    5 1
     5    4   33 1
     6    5    6 1
     7    6    7 2
     8    6    8 1
     9    6    9 1
    10    9   10 1
    11   10   11 2
    12   10   12 1
    13   10   13 1
    14   13   14 1
    15   14   15 1
    16   14   34 1
    17   14   35 1
    18   15   16 1
    19   15   17 1
    20   15   36 1
    21   16   21 1
    22   17   18 1
    23   17   19 1
    24   17   37 1
    25   18   38 1
    26   19   20 1
    27   19   21 1
    28   19   39 1
    29   20   40 1
    30   21   22 1
    31   21   41 1
    32   22   23 ar
    33   22   32 ar
    34   23   24 ar
    35   23   42 1
    36   24   25 ar
    37   24   46 1
    38   25   26 ar
    39   25   32 ar
    40   26   27 2
    41   26   28 ar
    42   28   29 ar
    43   29   30 1
    44   29   31 ar
    45   30   43 1
    46   30   44 1
    47   31   32 ar
    48   31   45 1
@<TRIPOS>SUBSTRUCTURE
     1 GTP         1 GROUP 0 A     ****
@<TRIPOS>MOLECULE
[[[5-(2-amino-6-oxo-7,8-dihydro-3~{H}-purin-8-ylium-9-yl)-3,4-dihydroxy-tetrahydrofuran-2-yl]methoxy-oxido-phosphoryl]oxy-oxido-phosphoryl] hydrogen phosphate
   46    48     1     0     0
SMALL
USER_CHARGES

@<TRIPOS>ATOM
      1 PG          6.2678   -2.8906   -4.9306 P.3       1 GTP         1.5447
      2 O1G         6.6682   -4.2797   -4.4859 O.co2     1 GTP        -0.8705
      3 O2G         7.1889   -2.0541   -5.7906 O.co2     1 GTP        -0.8705
      4 O3G         5.8595   -2.0210   -3.6104 O.3       1 GTP        -0.7914
      5 O3B         4.8006   -2.9629   -5.6418 O.3       1 GTP        -0.8116
      6 PB          3.8313   -1.7576   -6.1646 P.3       1 GTP         1.6738
      7 O1B         4.6166   -0.8815   -7.1150 O.co2     1 GTP        -0.8763
      8 O2B         2.4877   -2.3365   -6.5484 O.co2     1 GTP        -0.8763
      9 O3A         3.6096   -0.9687   -4.7528 O.3       1 GTP        -0.8005
     10 PA          2.7407    0.3769   -4.4297 P.3       1 GTP         1.5754
     11 O1A         3.3568    1.5435   -5.1712 O.co2     1 GTP        -0.8771
     12 O2A         1.2702    0.0493   -4.5704 O.co2     1 GTP        -0.8771
     13 O5'         3.0213    0.5153   -2.8245 O.3       1 GTP        -0.5809
     14 C5'         2.2816   -0.2918   -1.9206 C.3       1 GTP         0.1986
     15 C4'         2.7248    0.0226   -0.4980 C.3       1 GTP         0.0418
     16 O4'         2.4697    1.4219   -0.2462 O.3       1 GTP        -0.3505
     17 C3'         1.9404   -0.7419    0.5596 C.3       1 GTP         0.0909
     18 O3'         2.7418   -0.8086    1.7389 O.3       1 GTP        -0.6187
     19 C2'         0.7477    0.1630    0.7858 C.3       1 GTP         0.0706
     20 O2'         0.1373   -0.0577    2.0407 O.3       1 GTP        -0.6294
     21 C1'         1.3733    1.5427    0.6747 C.3       1 GTP         0.3895
     22 N9          0.4520    2.5240    0.1767 N.pl3     1 GTP        -0.4733
     23 C8         -0.2136    2.5096   -0.9739 C.ar      1 GTP         0.2958
     24 N7         -0.9896    3.5820   -1.1212 N.pl3     1 GTP        -0.4933
     25 C5         -0.7962    4.3186    0.0156 C.ar      1 GTP        -0.1494
     26 C6         -1.3875    5.6031    0.4192 C.ar      1 GTP         0.7954
     27 O6         -2.1869    6.1731   -0.3158 O.2       1 GTP        -0.5729
     28 N1         -0.9745    6.0930    1.6597 N.2       1 GTP        -0.7443
     29 C2         -0.1105    5.4166    2.3900 C.ar      1 GTP         0.8831
     30 N2          0.3241    5.8571    3.6138 N.pl3     1 GTP        -0.9204
     31 N3          0.4444    4.2053    2.0072 N.pl3     1 GTP        -0.7173
     32 C4          0.0746    3.6889    0.8098 C.ar      1 GTP         0.2626
     33 HOG3        5.5741   -1.0907   -3.7340 H         1 GTP         0.4102
     34 H5'         1.2163   -0.0770   -2.0471 H         1 GTP         0.0289
     35 H5''        2.4655   -1.3443   -2.1563 H         1 GTP         0.0289
     36 H4'         3.8044   -0.1397   -0.4040 H         1 GTP         0.2056
     37 H3'         1.6764   -1.7639    0.2728 H         1 GTP         0.1140
     38 HO3'        2.2232   -1.2979    2.3953 H         1 GTP         0.4287
     39 H2'        -0.0011    0.0027    0.0003 H         1 GTP         0.0809
     40 HO2'       -0.6141    0.5574    2.1082 H         1 GTP         0.4385
     41 H1'         1.7826    1.9024    1.6451 H         1 GTP         0.0794
     42 H8         -0.1415    1.7265   -1.7082 H         1 GTP         0.3821
     43 HN21       -0.0303    6.7197    3.9559 H         1 GTP         0.4411
     44 HN22        0.9765    5.2967    4.1108 H         1 GTP         0.4411
     45 H45         1.1068    3.6990    2.5819 H         1 GTP         0.4819
     46 H46        -1.5877    3.7943   -1.9074 H         1 GTP         0.5182
@<TRIPOS>BOND
     1    1    2 2
     2    1    3 1
     3    1    4 1
     4    1    5 1
     5    4   33 1
     6    5    6 1
     7    6    7 2
     8    6    8 1
     9    6    9 1
    10    9   10 1
    11   10   11 2
    12   10   12 1
    13   10   13 1
    14   13   14 1
    15   14   15 1
    16   14   34 1
    17   14   35 1
    18   15   16 1
    19   15   17 1
    20   15   36 1
    21   16   21 1
    22   17   18 1
    23   17   19 1
    24   17   37 1
    25   18   38 1
    26   19   20 1
    27   19   21 1
    28   19   39 1
    29   20   40 1
    30   21   22 1
    31   21   41 1
    32   22   23 ar
    33   22   32 ar
    34   23   24 ar
    35   23   42 1
    36   24   25 ar
    37   24   46 1
    38   25   26 ar
    39   25   32 ar
    40   26   27 2
    41   26   28 ar
    42   28   29 ar
    43   29   30 1
    44   29   31 ar
    45   30   43 1
    46   30   44 1
    47   31   32 ar
    48   31   45 1
@<TRIPOS>SUBSTRUCTURE
     1 GTP         1 GROUP 0 A     ****
@<TRIPOS>MOLECULE
[[[5-(2-amino-6-oxo-7,8-dihydro-3~{H}-purin-8-ylium-9-yl)-3,4-dihydroxy-tetrahydrofuran-2-yl]methoxy-oxido-phosphoryl]oxy-oxido-phosphoryl] hydrogen phosphate
   46    48     1     0     0
SMALL
USER_CHARGES

@<TRIPOS>ATOM
      1 PG          8.4915   -1.3371   -3.2547 P.3       1 GTP         1.5447
      2 O1G         9.0356   -2.7482   -3.2677 O.co2     1 GTP        -0.8705
      3 O2G         9.1393   -0.2466   -4.0787 O.co2     1 GTP        -0.8705
      4 O3G         8.3999   -0.8308   -1.7051 O.3       1 GTP        -0.7914
      5 O3B         6.8958   -1.3799   -3.5949 O.3       1 GTP        -0.8116
      6 PB          5.7003   -2.2452   -2.8964 P.3       1 GTP         1.6738
      7 O1B         5.9434   -3.7134   -3.1660 O.co2     1 GTP        -0.8763
      8 O2B         5.4689   -1.7252   -1.4952 O.co2     1 GTP        -0.8763
      9 O3A         4.4413   -1.7265   -3.7968 O.3       1 GTP        -0.8005
     10 PA          2.8603   -2.1317   -3.7189 P.3       1 GTP         1.5754
     11 O1A         2.0908   -1.2810   -4.7060 O.co2     1 GTP        -0.8771
     12 O2A         2.7458   -3.6405   -3.7305 O.co2     1 GTP        -0.8771
     13 O5'         2.5245   -1.6648   -2.1878 O.3       1 GTP        -0.5809
     14 C5'         2.2816   -0.2918   -1.9206 C.3       1 GTP         0.1986
     15 C4'         2.7248    0.0226   -0.4980 C.3       1 GTP         0.0418
     16 O4'         2.4697    1.4219   -0.2462 O.3       1 GTP        -0.3505
     17 C3'         1.9404   -0.7419    0.5596 C.3       1 GTP         0.0909
     18 O3'         2.7418   -0.8086    1.7389 O.3       1 GTP        -0.6187
     19 C2'         0.7477    0.1630    0.7858 C.3       1 GTP         0.0706
     20 O2'         0.1373   -0.0577    2.0407 O.3       1 GTP        -0.6294
     21 C1'         1.3733    1.5427    0.6747 C.3       1 GTP         0.3895
     22 N9          0.4520    2.5240    0.1767 N.pl3     1 GTP        -0.4733
     23 C8         -0.2136    2.5096   -0.9739 C.ar      1 GTP         0.2958
     24 N7         -0.9896    3.5820   -1.1212 N.pl3     1 GTP        -0.4933
     25 C5         -0.7962    4.3186    0.0156 C.ar      1 GTP        -0.1494
     26 C6         -1.3875    5.6031    0.4192 C.ar      1 GTP         0.7954
     27 O6         -2.1869    6.1731   -0.3158 O.2       1 GTP        -0.5729
     28 N1         -0.9745    6.0930    1.6597 N.2       1 GTP        -0.7443
     29 C2         -0.1105    5.4166    2.3900 C.ar      1 GTP         0.8831
     30 N2          0.3241    5.8571    3.6138 N.pl3     1 GTP        -0.9204
     31 N3          0.4444    4.2053    2.0072 N.pl3     1 GTP        -0.7173
     32 C4          0.0746    3.6889    0.8098 C.ar      1 GTP         0.2626
     33 HOG3        8.0626    0.0732   -1.5284 H         1 GTP         0.4102
     34 H5'         2.8432    0.3119   -2.6398 H         1 GTP         0.0289
     35 H5''        1.2128   -0.0927   -2.0428 H         1 GTP         0.0289
     36 H4'         3.8044   -0.1397   -0.4040 H         1 GTP         0.2056
     37 H3'         1.6764   -1.7639    0.2728 H         1 GTP         0.1140
     38 HO3'        2.2232   -1.2979    2.3953 H         1 GTP         0.4287
     39 H2'        -0.0011    0.0027    0.0003 H         1 GTP         0.0809
     40 HO2'       -0.6141    0.5574    2.1082 H         1 GTP         0.4385
     41 H1'         1.7826    1.9024    1.6451 H         1 GTP         0.0794
     42 H8         -0.1415    1.7265   -1.7082 H         1 GTP         0.3821
     43 HN21       -0.0303    6.7197    3.9559 H         1 GTP         0.4411
     44 HN22        0.9765    5.2967    4.1108 H         1 GTP         0.4411
     45 H45         1.1068    3.6990    2.5819 H         1 GTP         0.4819
     46 H46        -1.5877    3.7943   -1.9074 H         1 GTP         0.5182
@<TRIPOS>BOND
     1    1    2 2
     2    1    3 1
     3    1    4 1
     4    1    5 1
     5    4   33 1
     6    5    6 1
     7    6    7 2
     8    6    8 1
     9    6    9 1
    10    9   10 1
    11   10   11 2
    12   10   12 1
    13   10   13 1
    14   13   14 1
    15   14   15 1
    16   14   34 1
    17   14   35 1
    18   15   16 1
    19   15   17 1
    20   15   36 1
    21   16   21 1
    22   17   18 1
    23   17   19 1
    24   17   37 1
    25   18   38 1
    26   19   20 1
    27   19   21 1
    28   19   39 1
    29   20   40 1
    30   21   22 1
    31   21   41 1
    32   22   23 ar
    33   22   32 ar
    34   23   24 ar
    35   23   42 1
    36   24   25 ar
    37   24   46 1
    38   25   26 ar
    39   25   32 ar
    40   26   27 2
    41   26   28 ar
    42   28   29 ar
    43   29   30 1
    44   29   31 ar
    45   30   43 1
    46   30   44 1
    47   31   32 ar
    48   31   45 1
@<TRIPOS>SUBSTRUCTURE
     1 GTP         1 GROUP 0 A     ****
@<TRIPOS>MOLECULE
[[[5-(2-amino-6-oxo-7,8-dihydro-3~{H}-purin-8-ylium-9-yl)-3,4-dihydroxy-tetrahydrofuran-2-yl]methoxy-oxido-phosphoryl]oxy-oxido-phosphoryl] hydrogen phosphate
   46    48     1     0     0
SMALL
USER_CHARGES

@<TRIPOS>ATOM
      1 PG          2.4827   -4.3429   -4.4628 P.3       1 GTP         1.5447
      2 O1G         1.8440   -3.3861   -3.4809 O.co2     1 GTP        -0.8705
      3 O2G         1.6355   -5.2494   -5.3277 O.co2     1 GTP        -0.8705
      4 O3G         3.5705   -5.2593   -3.6612 O.3       1 GTP        -0.7914
      5 O3B         3.5146   -3.5138   -5.4175 O.3       1 GTP        -0.8116
      6 PB          4.7457   -2.5207   -5.0126 P.3       1 GTP         1.6738
      7 O1B         5.6794   -3.2610   -4.0811 O.co2     1 GTP        -0.8763
      8 O2B         5.2535   -1.8310   -6.2592 O.co2     1 GTP        -0.8763
      9 O3A         3.9110   -1.3991   -4.1700 O.3       1 GTP        -0.8005
     10 PA          4.4374   -0.0466   -3.4193 P.3       1 GTP         1.5754
     11 O1A         5.3589   -0.4458   -2.2872 O.co2     1 GTP        -0.8771
     12 O2A         4.8750    0.9511   -4.4695 O.co2     1 GTP        -0.8771
     13 O5'         3.0213    0.5153   -2.8245 O.3       1 GTP        -0.5809
     14 C5'         2.2816   -0.2918   -1.9206 C.3       1 GTP         0.1986
     15 C4'         2.7248    0.0226   -0.4980 C.3       1 GTP         0.0418
     16 O4'         2.4697    1.4219   -0.2462 O.3       1 GTP        -0.3505
     17 C3'         1.9404   -0.7419    0.5596 C.3       1 GTP         0.0909
     18 O3'         2.7418   -0.8086    1.7389 O.3       1 GTP        -0.6187
     19 C2'         0.7477    0.1630    0.7858 C.3       1 GTP         0.0706
     20 O2'         0.1373   -0.0577    2.0407 O.3       1 GTP        -0.6294
     21 C1'         1.3733    1.5427    0.6747 C.3       1 GTP         0.3895
     22 N9          0.4520    2.5240    0.1767 N.pl3     1 GTP        -0.4733
     23 C8          0.2012    2.8401   -1.0899 C.ar      1 GTP         0.2958
     24 N7         -0.7168    3.7990   -1.1981 N.pl3     1 GTP        -0.4933
     25 C5         -1.0645    4.1043    0.0896 C.ar      1 GTP        -0.1494
     26 C6         -2.0336    5.0870    0.5973 C.ar      1 GTP         0.7954
     27 O6         -2.6730    5.7839   -0.1834 O.2       1 GTP        -0.5729
     28 N1         -2.1539    5.1517    1.9868 N.2       1 GTP        -0.7443
     29 C2         -1.4288    4.3650    2.7566 C.ar      1 GTP         0.8831
     30 N2         -1.5126    4.3922    4.1250 N.pl3     1 GTP        -0.9204
     31 N3         -0.5167    3.4388    2.2748 N.pl3     1 GTP        -0.7173
     32 C4         -0.3638    3.3392    0.9318 C.ar      1 GTP         0.2626
     33 HOG3        4.0733   -5.9347   -4.1645 H         1 GTP         0.4102
     34 H5'         1.2163   -0.0770   -2.0471 H         1 GTP         0.0289
     35 H5''        2.4655   -1.3443   -2.1563 H         1 GTP         0.0289
     36 H4'         3.8044   -0.1397   -0.4040 H         1 GTP         0.2056
     37 H3'         1.6764   -1.7639    0.2728 H         1 GTP         0.1140
     38 HO3'        3.5554   -1.2733    1.4914 H         1 GTP         0.4287
     39 H2'        -0.0011    0.0027    0.0003 H         1 GTP         0.0809
     40 HO2'       -0.6141    0.5574    2.1082 H         1 GTP         0.4385
     41 H1'         1.7826    1.9024    1.6451 H         1 GTP         0.0794
     42 H8          0.6787    2.3803   -1.9373 H         1 GTP         0.3821
     43 HN21       -2.1462    5.0320    4.5446 H         1 GTP         0.4411
     44 HN22       -0.9365    3.7712    4.6440 H         1 GTP         0.4411
     45 H45         0.0318    2.8419    2.8816 H         1 GTP         0.4819
     46 H46        -1.0718    4.2049   -2.0526 H         1 GTP         0.5182
@<TRIPOS>BOND
     1    1    2 2
     2    1    3 1
     3    1    4 1
     4    1    5 1
     5    4   33 1
     6    5    6 1
     7    6    7 2
     8    6    8 1
     9    6    9 1
    10    9   10 1
    11   10   11 2
    12   10   12 1
    13   10   13 1
    14   13   14 1
    15   14   15 1
    16   14   34 1
    17   14   35 1
    18   15   16 1
    19   15   17 1
    20   15   36 1
    21   16   21 1
    22   17   18 1
    23   17   19 1
    24   17   37 1
    25   18   38 1
    26   19   20 1
    27   19   21 1
    28   19   39 1
    29   20   40 1
    30   21   22 1
    31   21   41 1
    32   22   23 ar
    33   22   32 ar
    34   23   24 ar
    35   23   42 1
    36   24   25 ar
    37   24   46 1
    38   25   26 ar
    39   25   32 ar
    40   26   27 2
    41   26   28 ar
    42   28   29 ar
    43   29   30 1
    44   29   31 ar
    45   30   43 1
    46   30   44 1
    47   31   32 ar
    48   31   45 1
@<TRIPOS>SUBSTRUCTURE
     1 GTP         1 GROUP 0 A     ****
@<TRIPOS>MOLECULE
[[[5-(2-amino-6-oxo-7,8-dihydro-3~{H}-purin-8-ylium-9-yl)-3,4-dihydroxy-tetrahydrofuran-2-yl]methoxy-oxido-phosphoryl]oxy-oxido-phosphoryl] hydrogen phosphate
   46    48     1     0     0
SMALL
USER_CHARGES

@<TRIPOS>ATOM
      1 PG         -0.4260   -2.3155   -6.9418 P.3       1 GTP         1.5447
      2 O1G        -0.4019   -1.4902   -8.2090 O.co2     1 GTP        -0.8705
      3 O2G        -0.6108   -3.8158   -6.9947 O.co2     1 GTP        -0.8705
      4 O3G        -1.5504   -1.6898   -5.9367 O.3       1 GTP        -0.7914
      5 O3B         0.9066   -1.9774   -6.0623 O.3       1 GTP        -0.8116
      6 PB          1.4889   -0.5382   -5.5569 P.3       1 GTP         1.6738
      7 O1B         1.9079    0.2670   -6.7667 O.co2     1 GTP        -0.8763
      8 O2B         0.5566    0.0313   -4.5109 O.co2     1 GTP        -0.8763
      9 O3A         2.8162   -1.0576   -4.7611 O.3       1 GTP        -0.8005
     10 PA          3.9554   -0.2064   -3.9565 P.3       1 GTP         1.5754
     11 O1A         4.9156   -1.1760   -3.3022 O.co2     1 GTP        -0.8771
     12 O2A         4.4556    0.9034   -4.8553 O.co2     1 GTP        -0.8771
     13 O5'         3.0213    0.5153   -2.8245 O.3       1 GTP        -0.5809
     14 C5'         2.2816   -0.2918   -1.9206 C.3       1 GTP         0.1986
     15 C4'         2.7248    0.0226   -0.4980 C.3       1 GTP         0.0418
     16 O4'         2.4697    1.4219   -0.2462 O.3       1 GTP        -0.3505
     17 C3'         1.9404   -0.7419    0.5596 C.3       1 GTP         0.0909
     18 O3'         2.7418   -0.8086    1.7389 O.3       1 GTP        -0.6187
     19 C2'         0.7477    0.1630    0.7858 C.3       1 GTP         0.0706
     20 O2'         0.1373   -0.0577    2.0407 O.3       1 GTP        -0.6294
     21 C1'         1.3733    1.5427    0.6747 C.3       1 GTP         0.3895
     22 N9          0.4520    2.5240    0.1767 N.pl3     1 GTP        -0.4733
     23 C8         -0.2136    2.5096   -0.9739 C.ar      1 GTP         0.2958
     24 N7         -0.9896    3.5820   -1.1212 N.pl3     1 GTP        -0.4933
     25 C5         -0.7962    4.3186    0.0156 C.ar      1 GTP        -0.1494
     26 C6         -1.3875    5.6031    0.4192 C.ar      1 GTP         0.7954
     27 O6         -2.1869    6.1731   -0.3158 O.2       1 GTP        -0.5729
     28 N1         -0.9745    6.0930    1.6597 N.2       1 GTP        -0.7443
     29 C2         -0.1105    5.4166    2.3900 C.ar      1 GTP         0.8831
     30 N2          0.3241    5.8571    3.6138 N.pl3     1 GTP        -0.9204
     31 N3          0.4444    4.2053    2.0072 N.pl3     1 GTP        -0.7173
     32 C4          0.0746    3.6889    0.8098 C.ar      1 GTP         0.2626
     33 HOG3       -1.6874   -2.1182   -5.0649 H         1 GTP         0.4102
     34 H5'         1.2163   -0.0770   -2.0471 H         1 GTP         0.0289
     35 H5''        2.4655   -1.3443   -2.1563 H         1 GTP         0.0289
     36 H4'         3.8044   -0.1397   -0.4040 H         1 GTP         0.2056
     37 H3'         1.6764   -1.7639    0.2728 H         1 GTP         0.1140
     38 HO3'        2.2232   -1.2979    2.3953 H         1 GTP         0.4287
     39 H2'        -0.0011    0.0027    0.0003 H         1 GTP         0.0809
     40 HO2'       -0.1563   -0.9855    2.0596 H         1 GTP         0.4385
     41 H1'         1.7826    1.9024    1.6451 H         1 GTP         0.0794
     42 H8         -0.1415    1.7265   -1.7082 H         1 GTP         0.3821
     43 HN21       -0.0303    6.7197    3.9559 H         1 GTP         0.4411
     44 HN22        0.9765    5.2967    4.1108 H         1 GTP         0.4411
     45 H45         1.1068    3.6990    2.5819 H         1 GTP         0.4819
     46 H46        -1.5877    3.7943   -1.9074 H         1 GTP         0.5182
@<TRIPOS>BOND
     1    1    2 2
     2    1    3 1
     3    1    4 1
     4    1    5 1
     5    4   33 1
     6    5    6 1
     7    6    7 2
     8    6    8 1
     9    6    9 1
    10    9   10 1
    11   10   11 2
    12   10   12 1
    13   10   13 1
    14   13   14 1
    15   14   15 1
    16   14   34 1
    17   14   35 1
    18   15   16 1
    19   15   17 1
    20   15   36 1
    21   16   21 1
    22   17   18 1
    23   17   19 1
    24   17   37 1
    25   18   38 1
    26   19   20 1
    27   19   21 1
    28   19   39 1
    29   20   40 1
    30   21   22 1
    31   21   41 1
    32   22   23 ar
    33   22   32 ar
    34   23   24 ar
    35   23   42 1
    36   24   25 ar
    37   24   46 1
    38   25   26 ar
    39   25   32 ar
    40   26   27 2
    41   26   28 ar
    42   28   29 ar
    43   29   30 1
    44   29   31 ar
    45   30   43 1
    46   30   44 1
    47   31   32 ar
    48   31   45 1
@<TRIPOS>SUBSTRUCTURE
     1 GTP         1 GROUP 0 A     ****
@<TRIPOS>MOLECULE
[[[5-(2-amino-6-oxo-7,8-dihydro-3~{H}-purin-8-ylium-9-yl)-3,4-dihydroxy-tetrahydrofuran-2-yl]methoxy-oxido-phosphoryl]oxy-oxido-phosphoryl] hydrogen phosphate
   46    48     1     0     0
SMALL
USER_CHARGES

@<TRIPOS>ATOM
      1 PG          6.5546   -1.4316   -1.8814 P.3       1 GTP         1.5447
      2 O1G         7.6726   -0.7798   -2.6641 O.co2     1 GTP        -0.8705
      3 O2G         6.1728   -0.9294   -0.5067 O.co2     1 GTP        -0.8705
      4 O3G         6.8555   -3.0333   -1.7830 O.3       1 GTP        -0.7914
      5 O3B         5.2164   -1.4889   -2.8140 O.3       1 GTP        -0.8116
      6 PB          5.0152   -2.0896   -4.3188 P.3       1 GTP         1.6738
      7 O1B         5.8278   -1.2575   -5.2856 O.co2     1 GTP        -0.8763
      8 O2B         5.1424   -3.5959   -4.2696 O.co2     1 GTP        -0.8763
      9 O3A         3.4281   -1.7650   -4.5203 O.3       1 GTP        -0.8005
     10 PA          2.1372   -2.2718   -3.6563 P.3       1 GTP         1.5754
     11 O1A         0.8958   -1.5923   -4.1925 O.co2     1 GTP        -0.8771
     12 O2A         2.2074   -3.7770   -3.5183 O.co2     1 GTP        -0.8771
     13 O5'         2.5245   -1.6648   -2.1878 O.3       1 GTP        -0.5809
     14 C5'         2.2816   -0.2918   -1.9206 C.3       1 GTP         0.1986
     15 C4'         2.7248    0.0226   -0.4980 C.3       1 GTP         0.0418
     16 O4'         2.4697    1.4219   -0.2462 O.3       1 GTP        -0.3505
     17 C3'         1.9404   -0.7419    0.5596 C.3       1 GTP         0.0909
     18 O3'         2.7418   -0.8086    1.7389 O.3       1 GTP        -0.6187
     19 C2'         0.7477    0.1630    0.7858 C.3       1 GTP         0.0706
     20 O2'         0.1373   -0.0577    2.0407 O.3       1 GTP        -0.6294
     21 C1'         1.3733    1.5427    0.6747 C.3       1 GTP         0.3895
     22 N9          0.4520    2.5240    0.1767 N.pl3     1 GTP        -0.4733
     23 C8          0.5427    3.2356   -0.9425 C.ar      1 GTP         0.2958
     24 N7         -0.4919    4.0590   -1.1018 N.pl3     1 GTP        -0.4933
     25 C5         -1.2850    3.8484   -0.0069 C.ar      1 GTP        -0.1494
     26 C6         -2.5644    4.4707    0.3650 C.ar      1 GTP         0.7954
     27 O6         -3.0718    5.3200   -0.3599 O.2       1 GTP        -0.5729
     28 N1         -3.1239    4.0269    1.5647 N.2       1 GTP        -0.7443
     29 C2         -2.5133    3.1079    2.2858 C.ar      1 GTP         0.8831
     30 N2         -3.0239    2.6409    3.4697 N.pl3     1 GTP        -0.9204
     31 N3         -1.3076    2.5223    1.9320 N.pl3     1 GTP        -0.7173
     32 C4         -0.7246    2.9211    0.7753 C.ar      1 GTP         0.2626
     33 HOG3        6.2157   -3.5999   -1.3014 H         1 GTP         0.4102
     34 H5'         2.8432    0.3119   -2.6398 H         1 GTP         0.0289
     35 H5''        1.2128   -0.0927   -2.0428 H         1 GTP         0.0289
     36 H4'         3.8044   -0.1397   -0.4040 H         1 GTP         0.2056
     37 H3'         1.6764   -1.7639    0.2728 H         1 GTP         0.1140
     38 HO3'        2.2232   -1.2979    2.3953 H         1 GTP         0.4287
     39 H2'        -0.0011    0.0027    0.0003 H         1 GTP         0.0809
     40 HO2'       -0.1563   -0.9855    2.0596 H         1 GTP         0.4385
     41 H1'         1.7826    1.9024    1.6451 H         1 GTP         0.0794
     42 H8          1.3539    3.1622   -1.6455 H         1 GTP         0.3821
     43 HN21       -3.8871    3.0143    3.7893 H         1 GTP         0.4411
     44 HN22       -2.5108    1.9472    3.9621 H         1 GTP         0.4411
     45 H45        -0.8530    1.8168    2.4986 H         1 GTP         0.4819
     46 H46        -0.6466    4.6966   -1.8702 H         1 GTP         0.5182
@<TRIPOS>BOND
     1    1    2 2
     2    1    3 1
     3    1    4 1
     4    1    5 1
     5    4   33 1
     6    5    6 1
     7    6    7 2
     8    6    8 1
     9    6    9 1
    10    9   10 1
    11   10   11 2
    12   10   12 1
    13   10   13 1
    14   13   14 1
    15   14   15 1
    16   14   34 1
    17   14   35 1
    18   15   16 1
    19   15   17 1
    20   15   36 1
    21   16   21 1
    22   17   18 1
    23   17   19 1
    24   17   37 1
    25   18   38 1
    26   19   20 1
    27   19   21 1
    28   19   39 1
    29   20   40 1
    30   21   22 1
    31   21   41 1
    32   22   23 ar
    33   22   32 ar
    34   23   24 ar
    35   23   42 1
    36   24   25 ar
    37   24   46 1
    38   25   26 ar
    39   25   32 ar
    40   26   27 2
    41   26   28 ar
    42   28   29 ar
    43   29   30 1
    44   29   31 ar
    45   30   43 1
    46   30   44 1
    47   31   32 ar
    48   31   45 1
@<TRIPOS>SUBSTRUCTURE
     1 GTP         1 GROUP 0 A     ****
@<TRIPOS>MOLECULE
[[[5-(2-amino-6-oxo-7,8-dihydro-3~{H}-purin-8-ylium-9-yl)-3,4-dihydroxy-tetrahydrofuran-2-yl]methoxy-oxido-phosphoryl]oxy-oxido-phosphoryl] hydrogen phosphate
   46    48     1     0     0
SMALL
USER_CHARGES

@<TRIPOS>ATOM
      1 PG          4.9159   -4.8806   -4.8606 P.3       1 GTP         1.5447
      2 O1G         3.9879   -6.0242   -5.2046 O.co2     1 GTP        -0.8705
      3 O2G         6.1926   -4.6545   -5.6394 O.co2     1 GTP        -0.8705
      4 O3G         5.2863   -4.9726   -3.2731 O.3       1 GTP        -0.7914
      5 O3B         4.0596   -3.4914   -4.8339 O.3       1 GTP        -0.8116
      6 PB          4.5143   -1.9910   -4.3782 P.3       1 GTP         1.6738
      7 O1B         4.8121   -2.0040   -2.8954 O.co2     1 GTP        -0.8763
      8 O2B         5.5098   -1.4514   -5.3810 O.co2     1 GTP        -0.8763
      9 O3A         3.1119   -1.1996   -4.6459 O.3       1 GTP        -0.8005
     10 PA          2.7407    0.3769   -4.4297 P.3       1 GTP         1.5754
     11 O1A         3.7274    1.2201   -5.2081 O.co2     1 GTP        -0.8771
     12 O2A         1.2486    0.5523   -4.6100 O.co2     1 GTP        -0.8771
     13 O5'         3.0213    0.5153   -2.8245 O.3       1 GTP        -0.5809
     14 C5'         2.2816   -0.2918   -1.9206 C.3       1 GTP         0.1986
     15 C4'         2.7248    0.0226   -0.4980 C.3       1 GTP         0.0418
     16 O4'         2.4697    1.4219   -0.2462 O.3       1 GTP        -0.3505
     17 C3'         1.9404   -0.7419    0.5596 C.3       1 GTP         0.0909
     18 O3'         2.7418   -0.8086    1.7389 O.3       1 GTP        -0.6187
     19 C2'         0.7477    0.1630    0.7858 C.3       1 GTP         0.0706
     20 O2'         0.1373   -0.0577    2.0407 O.3       1 GTP        -0.6294
     21 C1'         1.3733    1.5427    0.6747 C.3       1 GTP         0.3895
     22 N9          0.4520    2.5240    0.1767 N.pl3     1 GTP        -0.4733
     23 C8         -0.6872    2.9292    0.7291 C.ar      1 GTP         0.2958
     24 N7         -1.2991    3.8596   -0.0015 N.pl3     1 GTP        -0.4933
     25 C5         -0.4870    4.0499   -1.0861 C.ar      1 GTP        -0.1494
     26 C6         -0.6427    4.9562   -2.2336 C.ar      1 GTP         0.7954
     27 O6         -1.6219    5.6904   -2.3123 O.2       1 GTP        -0.5729
     28 N1          0.3798    4.9069   -3.1832 N.2       1 GTP        -0.7443
     29 C2          1.4004    4.0885   -3.0226 C.ar      1 GTP         0.8831
     30 N2          2.4275    4.0052   -3.9273 N.pl3     1 GTP        -0.9204
     31 N3          1.5448    3.2359   -1.9390 N.pl3     1 GTP        -0.7173
     32 C4          0.5769    3.2470   -0.9903 C.ar      1 GTP         0.2626
     33 HOG3        5.8849   -4.2946   -2.8933 H         1 GTP         0.4102
     34 H5'         1.2163   -0.0770   -2.0471 H         1 GTP         0.0289
     35 H5''        2.4655   -1.3443   -2.1563 H         1 GTP         0.0289
     36 H4'         3.8044   -0.1397   -0.4040 H         1 GTP         0.2056
     37 H3'         1.6764   -1.7639    0.2728 H         1 GTP         0.1140
     38 HO3'        2.2232   -1.2979    2.3953 H         1 GTP         0.4287
     39 H2'        -0.0011    0.0027    0.0003 H         1 GTP         0.0809
     40 HO2'       -0.1563   -0.9855    2.0596 H         1 GTP         0.4385
     41 H1'         1.7826    1.9024    1.6451 H         1 GTP         0.0794
     42 H8         -1.0786    2.5555    1.6591 H         1 GTP         0.3821
     43 HN21        2.3939    4.5871   -4.7317 H         1 GTP         0.4411
     44 HN22        3.1656    3.3663   -3.7434 H         1 GTP         0.4411
     45 H45         2.3366    2.6138   -1.8319 H         1 GTP         0.4819
     46 H46        -2.1740    4.3186    0.2105 H         1 GTP         0.5182
@<TRIPOS>BOND
     1    1    2 2
     2    1    3 1
     3    1    4 1
     4    1    5 1
     5    4   33 1
     6    5    6 1
     7    6    7 2
     8    6    8 1
     9    6    9 1
    10    9   10 1
    11   10   11 2
    12   10   12 1
    13   10   13 1
    14   13   14 1
    15   14   15 1
    16   14   34 1
    17   14   35 1
    18   15   16 1
    19   15   17 1
    20   15   36 1
    21   16   21 1
    22   17   18 1
    23   17   19 1
    24   17   37 1
    25   18   38 1
    26   19   20 1
    27   19   21 1
    28   19   39 1
    29   20   40 1
    30   21   22 1
    31   21   41 1
    32   22   23 ar
    33   22   32 ar
    34   23   24 ar
    35   23   42 1
    36   24   25 ar
    37   24   46 1
    38   25   26 ar
    39   25   32 ar
    40   26   27 2
    41   26   28 ar
    42   28   29 ar
    43   29   30 1
    44   29   31 ar
    45   30   43 1
    46   30   44 1
    47   31   32 ar
    48   31   45 1
@<TRIPOS>SUBSTRUCTURE
     1 GTP         1 GROUP 0 A     ****
@<TRIPOS>MOLECULE
[[[5-(2-amino-6-oxo-7,8-dihydro-3~{H}-purin-8-ylium-9-yl)-3,4-dihydroxy-tetrahydrofuran-2-yl]methoxy-oxido-phosphoryl]oxy-oxido-phosphoryl] hydrogen phosphate
   46    48     1     0     0
SMALL
USER_CHARGES

@<TRIPOS>ATOM
      1 PG         -1.9028   -5.1678   -2.3078 P.3       1 GTP         1.5447
      2 O1G        -1.5717   -6.5781   -2.7425 O.co2     1 GTP        -0.8705
      3 O2G        -2.1221   -4.8354   -0.8487 O.co2     1 GTP        -0.8705
      4 O3G        -3.1995   -4.6544   -3.1570 O.3       1 GTP        -0.7914
      5 O3B        -0.7866   -4.1471   -2.9209 O.3       1 GTP        -0.8116
      6 PB          0.8048   -4.0116   -2.5823 P.3       1 GTP         1.6738
      7 O1B         0.9582   -3.5480   -1.1509 O.co2     1 GTP        -0.8763
      8 O2B         1.5252   -5.2369   -3.0993 O.co2     1 GTP        -0.8763
      9 O3A         1.1849   -2.7890   -3.5951 O.3       1 GTP        -0.8005
     10 PA          2.6196   -2.0516   -3.8552 P.3       1 GTP         1.5754
     11 O1A         3.6435   -3.0995   -4.2342 O.co2     1 GTP        -0.8771
     12 O2A         2.3880   -0.8341   -4.7234 O.co2     1 GTP        -0.8771
     13 O5'         2.9216   -1.4836   -2.3516 O.3       1 GTP        -0.5809
     14 C5'         2.2816   -0.2918   -1.9206 C.3       1 GTP         0.1986
     15 C4'         2.7248    0.0226   -0.4980 C.3       1 GTP         0.0418
     16 O4'         2.4697    1.4219   -0.2462 O.3       1 GTP        -0.3505
     17 C3'         1.9404   -0.7419    0.5596 C.3       1 GTP         0.0909
     18 O3'         2.7418   -0.8086    1.7389 O.3       1 GTP        -0.6187
     19 C2'         0.7477    0.1630    0.7858 C.3       1 GTP         0.0706
     20 O2'         0.1373   -0.0577    2.0407 O.3       1 GTP        -0.6294
     21 C1'         1.3733    1.5427    0.6747 C.3       1 GTP         0.3895
     22 N9          0.4520    2.5240    0.1767 N.pl3     1 GTP        -0.4733
     23 C8          0.2012    2.8401   -1.0899 C.ar      1 GTP         0.2958
     24 N7         -0.7168    3.7990   -1.1981 N.pl3     1 GTP        -0.4933
     25 C5         -1.0645    4.1043    0.0896 C.ar      1 GTP        -0.1494
     26 C6         -2.0336    5.0870    0.5973 C.ar      1 GTP         0.7954
     27 O6         -2.6730    5.7839   -0.1834 O.2       1 GTP        -0.5729
     28 N1         -2.1539    5.1517    1.9868 N.2       1 GTP        -0.7443
     29 C2         -1.4288    4.3650    2.7566 C.ar      1 GTP         0.8831
     30 N2         -1.5126    4.3922    4.1250 N.pl3     1 GTP        -0.9204
     31 N3         -0.5167    3.4388    2.2748 N.pl3     1 GTP        -0.7173
     32 C4         -0.3638    3.3392    0.9318 C.ar      1 GTP         0.2626
     33 HOG3       -3.5400   -3.7500   -2.9880 H         1 GTP         0.4102
     34 H5'         2.5589    0.5217   -2.5976 H         1 GTP         0.0289
     35 H5''        1.1982   -0.4388   -1.9617 H         1 GTP         0.0289
     36 H4'         3.8044   -0.1397   -0.4040 H         1 GTP         0.2056
     37 H3'         1.6764   -1.7639    0.2728 H         1 GTP         0.1140
     38 HO3'        2.2232   -1.2979    2.3953 H         1 GTP         0.4287
     39 H2'        -0.0011    0.0027    0.0003 H         1 GTP         0.0809
     40 HO2'       -0.6141    0.5574    2.1082 H         1 GTP         0.4385
     41 H1'         1.7826    1.9024    1.6451 H         1 GTP         0.0794
     42 H8          0.6787    2.3803   -1.9373 H         1 GTP         0.3821
     43 HN21       -2.1462    5.0320    4.5446 H         1 GTP         0.4411
     44 HN22       -0.9365    3.7712    4.6440 H         1 GTP         0.4411
     45 H45         0.0318    2.8419    2.8816 H         1 GTP         0.4819
     46 H46        -1.0718    4.2049   -2.0526 H         1 GTP         0.5182
@<TRIPOS>BOND
     1    1    2 2
     2    1    3 1
     3    1    4 1
     4    1    5 1
     5    4   33 1
     6    5    6 1
     7    6    7 2
     8    6    8 1
     9    6    9 1
    10    9   10 1
    11   10   11 2
    12   10   12 1
    13   10   13 1
    14   13   14 1
    15   14   15 1
    16   14   34 1
    17   14   35 1
    18   15   16 1
    19   15   17 1
    20   15   36 1
    21   16   21 1
    22   17   18 1
    23   17   19 1
    24   17   37 1
    25   18   38 1
    26   19   20 1
    27   19   21 1
    28   19   39 1
    29   20   40 1
    30   21   22 1
    31   21   41 1
    32   22   23 ar
    33   22   32 ar
    34   23   24 ar
    35   23   42 1
    36   24   25 ar
    37   24   46 1
    38   25   26 ar
    39   25   32 ar
    40   26   27 2
    41   26   28 ar
    42   28   29 ar
    43   29   30 1
    44   29   31 ar
    45   30   43 1
    46   30   44 1
    47   31   32 ar
    48   31   45 1
@<TRIPOS>SUBSTRUCTURE
     1 GTP         1 GROUP 0 A     ****
@<TRIPOS>MOLECULE
[[[5-(2-amino-6-oxo-7,8-dihydro-3~{H}-purin-8-ylium-9-yl)-3,4-dihydroxy-tetrahydrofuran-2-yl]methoxy-oxido-phosphoryl]oxy-oxido-phosphoryl] hydrogen phosphate
   46    48     1     0     0
SMALL
USER_CHARGES

@<TRIPOS>ATOM
      1 PG          7.0663   -1.5026   -5.6705 P.3       1 GTP         1.5447
      2 O1G         7.3983   -2.9516   -5.9490 O.co2     1 GTP        -0.8705
      3 O2G         7.4523   -0.4149   -6.6480 O.co2     1 GTP        -0.8705
      4 O3G         7.6541   -1.1095   -4.1988 O.3       1 GTP        -0.7914
      5 O3B         5.4727   -1.3767   -5.3412 O.3       1 GTP        -0.8116
      6 PB          4.6092   -0.0895   -4.8281 P.3       1 GTP         1.6738
      7 O1B         5.0724    0.2816   -3.4369 O.co2     1 GTP        -0.8763
      8 O2B         4.5419    0.9341   -5.9395 O.co2     1 GTP        -0.8763
      9 O3A         3.1328   -0.7809   -4.7450 O.3       1 GTP        -0.8005
     10 PA          2.6196   -2.0516   -3.8552 P.3       1 GTP         1.5754
     11 O1A         1.1298   -2.2200   -4.0616 O.co2     1 GTP        -0.8771
     12 O2A         3.5739   -3.2069   -4.0652 O.co2     1 GTP        -0.8771
     13 O5'         2.9216   -1.4836   -2.3516 O.3       1 GTP        -0.5809
     14 C5'         2.2816   -0.2918   -1.9206 C.3       1 GTP         0.1986
     15 C4'         2.7248    0.0226   -0.4980 C.3       1 GTP         0.0418
     16 O4'         2.4697    1.4219   -0.2462 O.3       1 GTP        -0.3505
     17 C3'         1.9404   -0.7419    0.5596 C.3       1 GTP         0.0909
     18 O3'         2.7418   -0.8086    1.7389 O.3       1 GTP        -0.6187
     19 C2'         0.7477    0.1630    0.7858 C.3       1 GTP         0.0706
     20 O2'         0.1373   -0.0577    2.0407 O.3       1 GTP        -0.6294
     21 C1'         1.3733    1.5427    0.6747 C.3       1 GTP         0.3895
     22 N9          0.4520    2.5240    0.1767 N.pl3     1 GTP        -0.4733
     23 C8         -0.2136    2.5096   -0.9739 C.ar      1 GTP         0.2958
     24 N7         -0.9896    3.5820   -1.1212 N.pl3     1 GTP        -0.4933
     25 C5         -0.7962    4.3186    0.0156 C.ar      1 GTP        -0.1494
     26 C6         -1.3875    5.6031    0.4192 C.ar      1 GTP         0.7954
     27 O6         -2.1869    6.1731   -0.3158 O.2       1 GTP        -0.5729
     28 N1         -0.9745    6.0930    1.6597 N.2       1 GTP        -0.7443
     29 C2         -0.1105    5.4166    2.3900 C.ar      1 GTP         0.8831
     30 N2          0.3241    5.8571    3.6138 N.pl3     1 GTP        -0.9204
     31 N3          0.4444    4.2053    2.0072 N.pl3     1 GTP        -0.7173
     32 C4          0.0746    3.6889    0.8098 C.ar      1 GTP         0.2626
     33 HOG3        7.5183   -0.1950   -3.8709 H         1 GTP         0.4102
     34 H5'         2.5589    0.5217   -2.5976 H         1 GTP         0.0289
     35 H5''        1.1982   -0.4388   -1.9617 H         1 GTP         0.0289
     36 H4'         3.8044   -0.1397   -0.4040 H         1 GTP         0.2056
     37 H3'         1.6764   -1.7639    0.2728 H         1 GTP         0.1140
     38 HO3'        2.2232   -1.2979    2.3953 H         1 GTP         0.4287
     39 H2'        -0.0011    0.0027    0.0003 H         1 GTP         0.0809
     40 HO2'       -0.6141    0.5574    2.1082 H         1 GTP         0.4385
     41 H1'         1.7826    1.9024    1.6451 H         1 GTP         0.0794
     42 H8         -0.1415    1.7265   -1.7082 H         1 GTP         0.3821
     43 HN21       -0.0303    6.7197    3.9559 H         1 GTP         0.4411
     44 HN22        0.9765    5.2967    4.1108 H         1 GTP         0.4411
     45 H45         1.1068    3.6990    2.5819 H         1 GTP         0.4819
     46 H46        -1.5877    3.7943   -1.9074 H         1 GTP         0.5182
@<TRIPOS>BOND
     1    1    2 2
     2    1    3 1
     3    1    4 1
     4    1    5 1
     5    4   33 1
     6    5    6 1
     7    6    7 2
     8    6    8 1
     9    6    9 1
    10    9   10 1
    11   10   11 2
    12   10   12 1
    13   10   13 1
    14   13   14 1
    15   14   15 1
    16   14   34 1
    17   14   35 1
    18   15   16 1
    19   15   17 1
    20   15   36 1
    21   16   21 1
    22   17   18 1
    23   17   19 1
    24   17   37 1
    25   18   38 1
    26   19   20 1
    27   19   21 1
    28   19   39 1
    29   20   40 1
    30   21   22 1
    31   21   41 1
    32   22   23 ar
    33   22   32 ar
    34   23   24 ar
    35   23   42 1
    36   24   25 ar
    37   24   46 1
    38   25   26 ar
    39   25   32 ar
    40   26   27 2
    41   26   28 ar
    42   28   29 ar
    43   29   30 1
    44   29   31 ar
    45   30   43 1
    46   30   44 1
    47   31   32 ar
    48   31   45 1
@<TRIPOS>SUBSTRUCTURE
     1 GTP         1 GROUP 0 A     ****
@<TRIPOS>MOLECULE
[[[5-(2-amino-6-oxo-7,8-dihydro-3~{H}-purin-8-ylium-9-yl)-3,4-dihydroxy-tetrahydrofuran-2-yl]methoxy-oxido-phosphoryl]oxy-oxido-phosphoryl] hydrogen phosphate
   46    48     1     0     0
SMALL
USER_CHARGES

@<TRIPOS>ATOM
      1 PG         -0.0111   -3.2190   -4.9576 P.3       1 GTP         1.5447
      2 O1G        -0.9367   -3.8522   -5.9724 O.co2     1 GTP        -0.8705
      3 O2G         0.1626   -3.8220   -3.5814 O.co2     1 GTP        -0.8705
      4 O3G        -0.4246   -1.6487   -4.7872 O.3       1 GTP        -0.7914
      5 O3B         1.4597   -3.0146   -5.6350 O.3       1 GTP        -0.8116
      6 PB          2.7807   -2.2495   -5.0560 P.3       1 GTP         1.6738
      7 O1B         3.1189   -2.8258   -3.6991 O.co2     1 GTP        -0.8763
      8 O2B         3.8153   -2.1517   -6.1548 O.co2     1 GTP        -0.8763
      9 O3A         2.1568   -0.7522   -4.8724 O.3       1 GTP        -0.8005
     10 PA          2.8621    0.6170   -4.3270 P.3       1 GTP         1.5754
     11 O1A         4.0956    0.8937   -5.1591 O.co2     1 GTP        -0.8771
     12 O2A         1.7927    1.6709   -4.1390 O.co2     1 GTP        -0.8771
     13 O5'         3.2903    0.1346   -2.8241 O.3       1 GTP        -0.5809
     14 C5'         2.2816   -0.2918   -1.9206 C.3       1 GTP         0.1986
     15 C4'         2.7248    0.0226   -0.4980 C.3       1 GTP         0.0418
     16 O4'         2.4697    1.4219   -0.2462 O.3       1 GTP        -0.3505
     17 C3'         1.9404   -0.7419    0.5596 C.3       1 GTP         0.0909
     18 O3'         2.7418   -0.8086    1.7389 O.3       1 GTP        -0.6187
     19 C2'         0.7477    0.1630    0.7858 C.3       1 GTP         0.0706
     20 O2'         0.1373   -0.0577    2.0407 O.3       1 GTP        -0.6294
     21 C1'         1.3733    1.5427    0.6747 C.3       1 GTP         0.3895
     22 N9          0.4520    2.5240    0.1767 N.pl3     1 GTP        -0.4733
     23 C8          0.2012    2.8401   -1.0899 C.ar      1 GTP         0.2958
     24 N7         -0.7168    3.7990   -1.1981 N.pl3     1 GTP        -0.4933
     25 C5         -1.0645    4.1043    0.0896 C.ar      1 GTP        -0.1494
     26 C6         -2.0336    5.0870    0.5973 C.ar      1 GTP         0.7954
     27 O6         -2.6730    5.7839   -0.1834 O.2       1 GTP        -0.5729
     28 N1         -2.1539    5.1517    1.9868 N.2       1 GTP        -0.7443
     29 C2         -1.4288    4.3650    2.7566 C.ar      1 GTP         0.8831
     30 N2         -1.5126    4.3922    4.1250 N.pl3     1 GTP        -0.9204
     31 N3         -0.5167    3.4388    2.2748 N.pl3     1 GTP        -0.7173
     32 C4         -0.3638    3.3392    0.9318 C.ar      1 GTP         0.2626
     33 HOG3        0.0872   -1.0967   -4.1581 H         1 GTP         0.4102
     34 H5'         1.3514    0.2330   -2.1577 H         1 GTP         0.0289
     35 H5''        2.1280   -1.3678   -2.0460 H         1 GTP         0.0289
     36 H4'         3.8044   -0.1397   -0.4040 H         1 GTP         0.2056
     37 H3'         1.6764   -1.7639    0.2728 H         1 GTP         0.1140
     38 HO3'        2.2232   -1.2979    2.3953 H         1 GTP         0.4287
     39 H2'        -0.0011    0.0027    0.0003 H         1 GTP         0.0809
     40 HO2'       -0.6141    0.5574    2.1082 H         1 GTP         0.4385
     41 H1'         1.7826    1.9024    1.6451 H         1 GTP         0.0794
     42 H8          0.6787    2.3803   -1.9373 H         1 GTP         0.3821
     43 HN21       -2.1462    5.0320    4.5446 H         1 GTP         0.4411
     44 HN22       -0.9365    3.7712    4.6440 H         1 GTP         0.4411
     45 H45         0.0318    2.8419    2.8816 H         1 GTP         0.4819
     46 H46        -1.0718    4.2049   -2.0526 H         1 GTP         0.5182
@<TRIPOS>BOND
     1    1    2 2
     2    1    3 1
     3    1    4 1
     4    1    5 1
     5    4   33 1
     6    5    6 1
     7    6    7 2
     8    6    8 1
     9    6    9 1
    10    9   10 1
    11   10   11 2
    12   10   12 1
    13   10   13 1
    14   13   14 1
    15   14   15 1
    16   14   34 1
    17   14   35 1
    18   15   16 1
    19   15   17 1
    20   15   36 1
    21   16   21 1
    22   17   18 1
    23   17   19 1
    24   17   37 1
    25   18   38 1
    26   19   20 1
    27   19   21 1
    28   19   39 1
    29   20   40 1
    30   21   22 1
    31   21   41 1
    32   22   23 ar
    33   22   32 ar
    34   23   24 ar
    35   23   42 1
    36   24   25 ar
    37   24   46 1
    38   25   26 ar
    39   25   32 ar
    40   26   27 2
    41   26   28 ar
    42   28   29 ar
    43   29   30 1
    44   29   31 ar
    45   30   43 1
    46   30   44 1
    47   31   32 ar
    48   31   45 1
@<TRIPOS>SUBSTRUCTURE
     1 GTP         1 GROUP 0 A     ****
@<TRIPOS>MOLECULE
[[[5-(2-amino-6-oxo-7,8-dihydro-3~{H}-purin-8-ylium-9-yl)-3,4-dihydroxy-tetrahydrofuran-2-yl]methoxy-oxido-phosphoryl]oxy-oxido-phosphoryl] hydrogen phosphate
   46    48     1     0     0
SMALL
USER_CHARGES

@<TRIPOS>ATOM
      1 PG         -0.4194   -0.0100   -7.7767 P.3       1 GTP         1.5447
      2 O1G        -1.4121   -1.0797   -7.3793 O.co2     1 GTP        -0.8705
      3 O2G        -0.8844    1.2950   -8.3838 O.co2     1 GTP        -0.8705
      4 O3G         0.6919   -0.6769   -8.7697 O.3       1 GTP        -0.7914
      5 O3B         0.5498    0.3142   -6.5042 O.3       1 GTP        -0.8116
      6 PB          1.4216    1.6531   -6.1679 P.3       1 GTP         1.6738
      7 O1B         2.5039    1.8023   -7.2137 O.co2     1 GTP        -0.8763
      8 O2B         0.4766    2.7873   -5.8390 O.co2     1 GTP        -0.8763
      9 O3A         2.0898    1.1823   -4.7548 O.3       1 GTP        -0.8005
     10 PA          3.0675   -0.0857   -4.4293 P.3       1 GTP         1.5754
     11 O1A         2.3024   -1.3670   -4.6805 O.co2     1 GTP        -0.8771
     12 O2A         4.4130    0.1616   -5.0759 O.co2     1 GTP        -0.8771
     13 O5'         3.2903    0.1346   -2.8241 O.3       1 GTP        -0.5809
     14 C5'         2.2816   -0.2918   -1.9206 C.3       1 GTP         0.1986
     15 C4'         2.7248    0.0226   -0.4980 C.3       1 GTP         0.0418
     16 O4'         2.4697    1.4219   -0.2462 O.3       1 GTP        -0.3505
     17 C3'         1.9404   -0.7419    0.5596 C.3       1 GTP         0.0909
     18 O3'         2.7418   -0.8086    1.7389 O.3       1 GTP        -0.6187
     19 C2'         0.7477    0.1630    0.7858 C.3       1 GTP         0.0706
     20 O2'         0.1373   -0.0577    2.0407 O.3       1 GTP        -0.6294
     21 C1'         1.3733    1.5427    0.6747 C.3       1 GTP         0.3895
     22 N9          0.4520    2.5240    0.1767 N.pl3     1 GTP        -0.4733
     23 C8         -0.2136    2.5096   -0.9739 C.ar      1 GTP         0.2958
     24 N7         -0.9896    3.5820   -1.1212 N.pl3     1 GTP        -0.4933
     25 C5         -0.7962    4.3186    0.0156 C.ar      1 GTP        -0.1494
     26 C6         -1.3875    5.6031    0.4192 C.ar      1 GTP         0.7954
     27 O6         -2.1869    6.1731   -0.3158 O.2       1 GTP        -0.5729
     28 N1         -0.9745    6.0930    1.6597 N.2       1 GTP        -0.7443
     29 C2         -0.1105    5.4166    2.3900 C.ar      1 GTP         0.8831
     30 N2          0.3241    5.8571    3.6138 N.pl3     1 GTP        -0.9204
     31 N3          0.4444    4.2053    2.0072 N.pl3     1 GTP        -0.7173
     32 C4          0.0746    3.6889    0.8098 C.ar      1 GTP         0.2626
     33 HOG3        1.4102   -0.1060   -9.1169 H         1 GTP         0.4102
     34 H5'         1.3514    0.2330   -2.1577 H         1 GTP         0.0289
     35 H5''        2.1280   -1.3678   -2.0460 H         1 GTP         0.0289
     36 H4'         3.8044   -0.1397   -0.4040 H         1 GTP         0.2056
     37 H3'         1.6764   -1.7639    0.2728 H         1 GTP         0.1140
     38 HO3'        3.5554   -1.2733    1.4914 H         1 GTP         0.4287
     39 H2'        -0.0011    0.0027    0.0003 H         1 GTP         0.0809
     40 HO2'       -0.6141    0.5574    2.1082 H         1 GTP         0.4385
     41 H1'         1.7826    1.9024    1.6451 H         1 GTP         0.0794
     42 H8         -0.1415    1.7265   -1.7082 H         1 GTP         0.3821
     43 HN21       -0.0303    6.7197    3.9559 H         1 GTP         0.4411
     44 HN22        0.9765    5.2967    4.1108 H         1 GTP         0.4411
     45 H45         1.1068    3.6990    2.5819 H         1 GTP         0.4819
     46 H46        -1.5877    3.7943   -1.9074 H         1 GTP         0.5182
@<TRIPOS>BOND
     1    1    2 2
     2    1    3 1
     3    1    4 1
     4    1    5 1
     5    4   33 1
     6    5    6 1
     7    6    7 2
     8    6    8 1
     9    6    9 1
    10    9   10 1
    11   10   11 2
    12   10   12 1
    13   10   13 1
    14   13   14 1
    15   14   15 1
    16   14   34 1
    17   14   35 1
    18   15   16 1
    19   15   17 1
    20   15   36 1
    21   16   21 1
    22   17   18 1
    23   17   19 1
    24   17   37 1
    25   18   38 1
    26   19   20 1
    27   19   21 1
    28   19   39 1
    29   20   40 1
    30   21   22 1
    31   21   41 1
    32   22   23 ar
    33   22   32 ar
    34   23   24 ar
    35   23   42 1
    36   24   25 ar
    37   24   46 1
    38   25   26 ar
    39   25   32 ar
    40   26   27 2
    41   26   28 ar
    42   28   29 ar
    43   29   30 1
    44   29   31 ar
    45   30   43 1
    46   30   44 1
    47   31   32 ar
    48   31   45 1
@<TRIPOS>SUBSTRUCTURE
     1 GTP         1 GROUP 0 A     ****
@<TRIPOS>MOLECULE
[[[5-(2-amino-6-oxo-7,8-dihydro-3~{H}-purin-8-ylium-9-yl)-3,4-dihydroxy-tetrahydrofuran-2-yl]methoxy-oxido-phosphoryl]oxy-oxido-phosphoryl] hydrogen phosphate
   46    48     1     0     0
SMALL
USER_CHARGES

@<TRIPOS>ATOM
      1 PG          7.0743   -1.3422   -5.7084 P.3       1 GTP         1.5447
      2 O1G         7.8664   -0.9833   -4.4710 O.co2     1 GTP        -0.8705
      3 O2G         7.2842   -2.6663   -6.4087 O.co2     1 GTP        -0.8705
      4 O3G         7.2503   -0.1433   -6.8028 O.3       1 GTP        -0.7914
      5 O3B         5.4836   -1.1568   -5.3932 O.3       1 GTP        -0.8116
      6 PB          4.5143   -1.9910   -4.3782 P.3       1 GTP         1.6738
      7 O1B         4.3959   -3.4128   -4.8800 O.co2     1 GTP        -0.8763
      8 O2B         4.9141   -1.6855   -2.9519 O.co2     1 GTP        -0.8763
      9 O3A         3.1119   -1.1996   -4.6459 O.3       1 GTP        -0.8005
     10 PA          2.7407    0.3769   -4.4297 P.3       1 GTP         1.5754
     11 O1A         3.7274    1.2201   -5.2081 O.co2     1 GTP        -0.8771
     12 O2A         1.2486    0.5523   -4.6100 O.co2     1 GTP        -0.8771
     13 O5'         3.0213    0.5153   -2.8245 O.3       1 GTP        -0.5809
     14 C5'         2.2816   -0.2918   -1.9206 C.3       1 GTP         0.1986
     15 C4'         2.7248    0.0226   -0.4980 C.3       1 GTP         0.0418
     16 O4'         2.4697    1.4219   -0.2462 O.3       1 GTP        -0.3505
     17 C3'         1.9404   -0.7419    0.5596 C.3       1 GTP         0.0909
     18 O3'         2.7418   -0.8086    1.7389 O.3       1 GTP        -0.6187
     19 C2'         0.7477    0.1630    0.7858 C.3       1 GTP         0.0706
     20 O2'         0.1373   -0.0577    2.0407 O.3       1 GTP        -0.6294
     21 C1'         1.3733    1.5427    0.6747 C.3       1 GTP         0.3895
     22 N9          0.4520    2.5240    0.1767 N.pl3     1 GTP        -0.4733
     23 C8         -0.6872    2.9292    0.7291 C.ar      1 GTP         0.2958
     24 N7         -1.2991    3.8596   -0.0015 N.pl3     1 GTP        -0.4933
     25 C5         -0.4870    4.0499   -1.0861 C.ar      1 GTP        -0.1494
     26 C6         -0.6427    4.9562   -2.2336 C.ar      1 GTP         0.7954
     27 O6         -1.6219    5.6904   -2.3123 O.2       1 GTP        -0.5729
     28 N1          0.3798    4.9069   -3.1832 N.2       1 GTP        -0.7443
     29 C2          1.4004    4.0885   -3.0226 C.ar      1 GTP         0.8831
     30 N2          2.4275    4.0052   -3.9273 N.pl3     1 GTP        -0.9204
     31 N3          1.5448    3.2359   -1.9390 N.pl3     1 GTP        -0.7173
     32 C4          0.5769    3.2470   -0.9903 C.ar      1 GTP         0.2626
     33 HOG3        6.7929   -0.2286   -7.6664 H         1 GTP         0.4102
     34 H5'         1.2163   -0.0770   -2.0471 H         1 GTP         0.0289
     35 H5''        2.4655   -1.3443   -2.1563 H         1 GTP         0.0289
     36 H4'         3.8044   -0.1397   -0.4040 H         1 GTP         0.2056
     37 H3'         1.6764   -1.7639    0.2728 H         1 GTP         0.1140
     38 HO3'        2.2232   -1.2979    2.3953 H         1 GTP         0.4287
     39 H2'        -0.0011    0.0027    0.0003 H         1 GTP         0.0809
     40 HO2'       -0.1563   -0.9855    2.0596 H         1 GTP         0.4385
     41 H1'         1.7826    1.9024    1.6451 H         1 GTP         0.0794
     42 H8         -1.0786    2.5555    1.6591 H         1 GTP         0.3821
     43 HN21        2.3939    4.5871   -4.7317 H         1 GTP         0.4411
     44 HN22        3.1656    3.3663   -3.7434 H         1 GTP         0.4411
     45 H45         2.3366    2.6138   -1.8319 H         1 GTP         0.4819
     46 H46        -2.1740    4.3186    0.2105 H         1 GTP         0.5182
@<TRIPOS>BOND
     1    1    2 2
     2    1    3 1
     3    1    4 1
     4    1    5 1
     5    4   33 1
     6    5    6 1
     7    6    7 2
     8    6    8 1
     9    6    9 1
    10    9   10 1
    11   10   11 2
    12   10   12 1
    13   10   13 1
    14   13   14 1
    15   14   15 1
    16   14   34 1
    17   14   35 1
    18   15   16 1
    19   15   17 1
    20   15   36 1
    21   16   21 1
    22   17   18 1
    23   17   19 1
    24   17   37 1
    25   18   38 1
    26   19   20 1
    27   19   21 1
    28   19   39 1
    29   20   40 1
    30   21   22 1
    31   21   41 1
    32   22   23 ar
    33   22   32 ar
    34   23   24 ar
    35   23   42 1
    36   24   25 ar
    37   24   46 1
    38   25   26 ar
    39   25   32 ar
    40   26   27 2
    41   26   28 ar
    42   28   29 ar
    43   29   30 1
    44   29   31 ar
    45   30   43 1
    46   30   44 1
    47   31   32 ar
    48   31   45 1
@<TRIPOS>SUBSTRUCTURE
     1 GTP         1 GROUP 0 A     ****
@<TRIPOS>MOLECULE
[[[5-(2-amino-6-oxo-7,8-dihydro-3~{H}-purin-8-ylium-9-yl)-3,4-dihydroxy-tetrahydrofuran-2-yl]methoxy-oxido-phosphoryl]oxy-oxido-phosphoryl] hydrogen phosphate
   46    48     1     0     0
SMALL
USER_CHARGES

@<TRIPOS>ATOM
      1 PG          6.6257   -1.1194   -1.9725 P.3       1 GTP         1.5447
      2 O1G         6.1589   -1.3777   -0.5573 O.co2     1 GTP        -0.8705
      3 O2G         7.6610   -2.0090   -2.6241 O.co2     1 GTP        -0.8705
      4 O3G         7.1331    0.4290   -2.0768 O.3       1 GTP        -0.7914
      5 O3B         5.3236   -1.0186   -2.9513 O.3       1 GTP        -0.8116
      6 PB          5.2054   -1.2550   -4.5625 P.3       1 GTP         1.6738
      7 O1B         5.9995   -0.1796   -5.2698 O.co2     1 GTP        -0.8763
      8 O2B         5.4170   -2.7222   -4.8626 O.co2     1 GTP        -0.8763
      9 O3A         3.6096   -0.9687   -4.7528 O.3       1 GTP        -0.8005
     10 PA          2.7407    0.3769   -4.4297 P.3       1 GTP         1.5754
     11 O1A         3.3568    1.5435   -5.1712 O.co2     1 GTP        -0.8771
     12 O2A         1.2702    0.0493   -4.5704 O.co2     1 GTP        -0.8771
     13 O5'         3.0213    0.5153   -2.8245 O.3       1 GTP        -0.5809
     14 C5'         2.2816   -0.2918   -1.9206 C.3       1 GTP         0.1986
     15 C4'         2.7248    0.0226   -0.4980 C.3       1 GTP         0.0418
     16 O4'         2.4697    1.4219   -0.2462 O.3       1 GTP        -0.3505
     17 C3'         1.9404   -0.7419    0.5596 C.3       1 GTP         0.0909
     18 O3'         2.7418   -0.8086    1.7389 O.3       1 GTP        -0.6187
     19 C2'         0.7477    0.1630    0.7858 C.3       1 GTP         0.0706
     20 O2'         0.1373   -0.0577    2.0407 O.3       1 GTP        -0.6294
     21 C1'         1.3733    1.5427    0.6747 C.3       1 GTP         0.3895
     22 N9          0.4520    2.5240    0.1767 N.pl3     1 GTP        -0.4733
     23 C8         -0.2136    2.5096   -0.9739 C.ar      1 GTP         0.2958
     24 N7         -0.9896    3.5820   -1.1212 N.pl3     1 GTP        -0.4933
     25 C5         -0.7962    4.3186    0.0156 C.ar      1 GTP        -0.1494
     26 C6         -1.3875    5.6031    0.4192 C.ar      1 GTP         0.7954
     27 O6         -2.1869    6.1731   -0.3158 O.2       1 GTP        -0.5729
     28 N1         -0.9745    6.0930    1.6597 N.2       1 GTP        -0.7443
     29 C2         -0.1105    5.4166    2.3900 C.ar      1 GTP         0.8831
     30 N2          0.3241    5.8571    3.6138 N.pl3     1 GTP        -0.9204
     31 N3          0.4444    4.2053    2.0072 N.pl3     1 GTP        -0.7173
     32 C4          0.0746    3.6889    0.8098 C.ar      1 GTP         0.2626
     33 HOG3        7.4693    0.7531   -2.9395 H         1 GTP         0.4102
     34 H5'         1.2163   -0.0770   -2.0471 H         1 GTP         0.0289
     35 H5''        2.4655   -1.3443   -2.1563 H         1 GTP         0.0289
     36 H4'         3.8044   -0.1397   -0.4040 H         1 GTP         0.2056
     37 H3'         1.6764   -1.7639    0.2728 H         1 GTP         0.1140
     38 HO3'        2.2232   -1.2979    2.3953 H         1 GTP         0.4287
     39 H2'        -0.0011    0.0027    0.0003 H         1 GTP         0.0809
     40 HO2'       -0.6141    0.5574    2.1082 H         1 GTP         0.4385
     41 H1'         1.7826    1.9024    1.6451 H         1 GTP         0.0794
     42 H8         -0.1415    1.7265   -1.7082 H         1 GTP         0.3821
     43 HN21       -0.0303    6.7197    3.9559 H         1 GTP         0.4411
     44 HN22        0.9765    5.2967    4.1108 H         1 GTP         0.4411
     45 H45         1.1068    3.6990    2.5819 H         1 GTP         0.4819
     46 H46        -1.5877    3.7943   -1.9074 H         1 GTP         0.5182
@<TRIPOS>BOND
     1    1    2 2
     2    1    3 1
     3    1    4 1
     4    1    5 1
     5    4   33 1
     6    5    6 1
     7    6    7 2
     8    6    8 1
     9    6    9 1
    10    9   10 1
    11   10   11 2
    12   10   12 1
    13   10   13 1
    14   13   14 1
    15   14   15 1
    16   14   34 1
    17   14   35 1
    18   15   16 1
    19   15   17 1
    20   15   36 1
    21   16   21 1
    22   17   18 1
    23   17   19 1
    24   17   37 1
    25   18   38 1
    26   19   20 1
    27   19   21 1
    28   19   39 1
    29   20   40 1
    30   21   22 1
    31   21   41 1
    32   22   23 ar
    33   22   32 ar
    34   23   24 ar
    35   23   42 1
    36   24   25 ar
    37   24   46 1
    38   25   26 ar
    39   25   32 ar
    40   26   27 2
    41   26   28 ar
    42   28   29 ar
    43   29   30 1
    44   29   31 ar
    45   30   43 1
    46   30   44 1
    47   31   32 ar
    48   31   45 1
@<TRIPOS>SUBSTRUCTURE
     1 GTP         1 GROUP 0 A     ****
@<TRIPOS>MOLECULE
[[[5-(2-amino-6-oxo-7,8-dihydro-3~{H}-purin-8-ylium-9-yl)-3,4-dihydroxy-tetrahydrofuran-2-yl]methoxy-oxido-phosphoryl]oxy-oxido-phosphoryl] hydrogen phosphate
   46    48     1     0     0
SMALL
USER_CHARGES

@<TRIPOS>ATOM
      1 PG         -2.0904    0.1740   -6.0808 P.3       1 GTP         1.5447
      2 O1G        -2.0771    1.3093   -7.0800 O.co2     1 GTP        -0.8705
      3 O2G        -2.8070   -1.1224   -6.3869 O.co2     1 GTP        -0.8705
      4 O3G        -2.6400    0.7456   -4.6535 O.3       1 GTP        -0.7914
      5 O3B        -0.5559   -0.1616   -5.6377 O.3       1 GTP        -0.8116
      6 PB          0.6060    0.8286   -5.0589 P.3       1 GTP         1.6738
      7 O1B         0.9823    1.8179   -6.1392 O.co2     1 GTP        -0.8763
      8 O2B         0.2195    1.2830   -3.6690 O.co2     1 GTP        -0.8763
      9 O3A         1.8086   -0.2594   -4.8729 O.3       1 GTP        -0.8005
     10 PA          3.3343   -0.0514   -4.3264 P.3       1 GTP         1.5754
     11 O1A         4.0106   -1.4028   -4.2454 O.co2     1 GTP        -0.8771
     12 O2A         3.9675    1.0961   -5.0826 O.co2     1 GTP        -0.8771
     13 O5'         3.0213    0.5153   -2.8245 O.3       1 GTP        -0.5809
     14 C5'         2.2816   -0.2918   -1.9206 C.3       1 GTP         0.1986
     15 C4'         2.7248    0.0226   -0.4980 C.3       1 GTP         0.0418
     16 O4'         2.4697    1.4219   -0.2462 O.3       1 GTP        -0.3505
     17 C3'         1.9404   -0.7419    0.5596 C.3       1 GTP         0.0909
     18 O3'         2.7418   -0.8086    1.7389 O.3       1 GTP        -0.6187
     19 C2'         0.7477    0.1630    0.7858 C.3       1 GTP         0.0706
     20 O2'         0.1373   -0.0577    2.0407 O.3       1 GTP        -0.6294
     21 C1'         1.3733    1.5427    0.6747 C.3       1 GTP         0.3895
     22 N9          0.4520    2.5240    0.1767 N.pl3     1 GTP        -0.4733
     23 C8          0.5427    3.2356   -0.9425 C.ar      1 GTP         0.2958
     24 N7         -0.4919    4.0590   -1.1018 N.pl3     1 GTP        -0.4933
     25 C5         -1.2850    3.8484   -0.0069 C.ar      1 GTP        -0.1494
     26 C6         -2.5644    4.4707    0.3650 C.ar      1 GTP         0.7954
     27 O6         -3.0718    5.3200   -0.3599 O.2       1 GTP        -0.5729
     28 N1         -3.1239    4.0269    1.5647 N.2       1 GTP        -0.7443
     29 C2         -2.5133    3.1079    2.2858 C.ar      1 GTP         0.8831
     30 N2         -3.0239    2.6409    3.4697 N.pl3     1 GTP        -0.9204
     31 N3         -1.3076    2.5223    1.9320 N.pl3     1 GTP        -0.7173
     32 C4         -0.7246    2.9211    0.7753 C.ar      1 GTP         0.2626
     33 HOG3       -2.7079    0.1249   -3.8970 H         1 GTP         0.4102
     34 H5'         1.2163   -0.0770   -2.0471 H         1 GTP         0.0289
     35 H5''        2.4655   -1.3443   -2.1563 H         1 GTP         0.0289
     36 H4'         3.8044   -0.1397   -0.4040 H         1 GTP         0.2056
     37 H3'         1.6764   -1.7639    0.2728 H         1 GTP         0.1140
     38 HO3'        2.2232   -1.2979    2.3953 H         1 GTP         0.4287
     39 H2'        -0.0011    0.0027    0.0003 H         1 GTP         0.0809
     40 HO2'       -0.1563   -0.9855    2.0596 H         1 GTP         0.4385
     41 H1'         1.7826    1.9024    1.6451 H         1 GTP         0.0794
     42 H8          1.3539    3.1622   -1.6455 H         1 GTP         0.3821
     43 HN21       -3.8871    3.0143    3.7893 H         1 GTP         0.4411
     44 HN22       -2.5108    1.9472    3.9621 H         1 GTP         0.4411
     45 H45        -0.8530    1.8168    2.4986 H         1 GTP         0.4819
     46 H46        -0.6466    4.6966   -1.8702 H         1 GTP         0.5182
@<TRIPOS>BOND
     1    1    2 2
     2    1    3 1
     3    1    4 1
     4    1    5 1
     5    4   33 1
     6    5    6 1
     7    6    7 2
     8    6    8 1
     9    6    9 1
    10    9   10 1
    11   10   11 2
    12   10   12 1
    13   10   13 1
    14   13   14 1
    15   14   15 1
    16   14   34 1
    17   14   35 1
    18   15   16 1
    19   15   17 1
    20   15   36 1
    21   16   21 1
    22   17   18 1
    23   17   19 1
    24   17   37 1
    25   18   38 1
    26   19   20 1
    27   19   21 1
    28   19   39 1
    29   20   40 1
    30   21   22 1
    31   21   41 1
    32   22   23 ar
    33   22   32 ar
    34   23   24 ar
    35   23   42 1
    36   24   25 ar
    37   24   46 1
    38   25   26 ar
    39   25   32 ar
    40   26   27 2
    41   26   28 ar
    42   28   29 ar
    43   29   30 1
    44   29   31 ar
    45   30   43 1
    46   30   44 1
    47   31   32 ar
    48   31   45 1
@<TRIPOS>SUBSTRUCTURE
     1 GTP         1 GROUP 0 A     ****
@<TRIPOS>MOLECULE
[[[5-(2-amino-6-oxo-7,8-dihydro-3~{H}-purin-8-ylium-9-yl)-3,4-dihydroxy-tetrahydrofuran-2-yl]methoxy-oxido-phosphoryl]oxy-oxido-phosphoryl] hydrogen phosphate
   46    48     1     0     0
SMALL
USER_CHARGES

@<TRIPOS>ATOM
      1 PG          4.7582   -4.3329   -2.5917 P.3       1 GTP         1.5447
      2 O1G         3.6407   -5.1657   -3.1791 O.co2     1 GTP        -0.8705
      3 O2G         5.8163   -4.9614   -1.7124 O.co2     1 GTP        -0.8705
      4 O3G         4.0993   -3.0726   -1.7896 O.3       1 GTP        -0.7914
      5 O3B         5.4912   -3.5051   -3.7922 O.3       1 GTP        -0.8116
      6 PB          4.8510   -2.5203   -4.9260 P.3       1 GTP         1.6738
      7 O1B         5.9780   -1.8933   -5.7160 O.co2     1 GTP        -0.8763
      8 O2B         3.7062   -3.2341   -5.6099 O.co2     1 GTP        -0.8763
      9 O3A         4.1796   -1.3979   -3.9491 O.3       1 GTP        -0.8005
     10 PA          3.3343   -0.0514   -4.3264 P.3       1 GTP         1.5754
     11 O1A         4.2455    0.9036   -5.0666 O.co2     1 GTP        -0.8771
     12 O2A         1.9982   -0.4643   -4.9043 O.co2     1 GTP        -0.8771
     13 O5'         3.0213    0.5153   -2.8245 O.3       1 GTP        -0.5809
     14 C5'         2.2816   -0.2918   -1.9206 C.3       1 GTP         0.1986
     15 C4'         2.7248    0.0226   -0.4980 C.3       1 GTP         0.0418
     16 O4'         2.4697    1.4219   -0.2462 O.3       1 GTP        -0.3505
     17 C3'         1.9404   -0.7419    0.5596 C.3       1 GTP         0.0909
     18 O3'         2.7418   -0.8086    1.7389 O.3       1 GTP        -0.6187
     19 C2'         0.7477    0.1630    0.7858 C.3       1 GTP         0.0706
     20 O2'         0.1373   -0.0577    2.0407 O.3       1 GTP        -0.6294
     21 C1'         1.3733    1.5427    0.6747 C.3       1 GTP         0.3895
     22 N9          0.4520    2.5240    0.1767 N.pl3     1 GTP        -0.4733
     23 C8         -0.2136    2.5096   -0.9739 C.ar      1 GTP         0.2958
     24 N7         -0.9896    3.5820   -1.1212 N.pl3     1 GTP        -0.4933
     25 C5         -0.7962    4.3186    0.0156 C.ar      1 GTP        -0.1494
     26 C6         -1.3875    5.6031    0.4192 C.ar      1 GTP         0.7954
     27 O6         -2.1869    6.1731   -0.3158 O.2       1 GTP        -0.5729
     28 N1         -0.9745    6.0930    1.6597 N.2       1 GTP        -0.7443
     29 C2         -0.1105    5.4166    2.3900 C.ar      1 GTP         0.8831
     30 N2          0.3241    5.8571    3.6138 N.pl3     1 GTP        -0.9204
     31 N3          0.4444    4.2053    2.0072 N.pl3     1 GTP        -0.7173
     32 C4          0.0746    3.6889    0.8098 C.ar      1 GTP         0.2626
     33 HOG3        4.6997   -2.4343   -1.3488 H         1 GTP         0.4102
     34 H5'         1.2163   -0.0770   -2.0471 H         1 GTP         0.0289
     35 H5''        2.4655   -1.3443   -2.1563 H         1 GTP         0.0289
     36 H4'         3.8044   -0.1397   -0.4040 H         1 GTP         0.2056
     37 H3'         1.6764   -1.7639    0.2728 H         1 GTP         0.1140
     38 HO3'        2.2232   -1.2979    2.3953 H         1 GTP         0.4287
     39 H2'        -0.0011    0.0027    0.0003 H         1 GTP         0.0809
     40 HO2'       -0.6141    0.5574    2.1082 H         1 GTP         0.4385
     41 H1'         1.7826    1.9024    1.6451 H         1 GTP         0.0794
     42 H8         -0.1415    1.7265   -1.7082 H         1 GTP         0.3821
     43 HN21       -0.0303    6.7197    3.9559 H         1 GTP         0.4411
     44 HN22        0.9765    5.2967    4.1108 H         1 GTP         0.4411
     45 H45         1.1068    3.6990    2.5819 H         1 GTP         0.4819
     46 H46        -1.5877    3.7943   -1.9074 H         1 GTP         0.5182
@<TRIPOS>BOND
     1    1    2 2
     2    1    3 1
     3    1    4 1
     4    1    5 1
     5    4   33 1
     6    5    6 1
     7    6    7 2
     8    6    8 1
     9    6    9 1
    10    9   10 1
    11   10   11 2
    12   10   12 1
    13   10   13 1
    14   13   14 1
    15   14   15 1
    16   14   34 1
    17   14   35 1
    18   15   16 1
    19   15   17 1
    20   15   36 1
    21   16   21 1
    22   17   18 1
    23   17   19 1
    24   17   37 1
    25   18   38 1
    26   19   20 1
    27   19   21 1
    28   19   39 1
    29   20   40 1
    30   21   22 1
    31   21   41 1
    32   22   23 ar
    33   22   32 ar
    34   23   24 ar
    35   23   42 1
    36   24   25 ar
    37   24   46 1
    38   25   26 ar
    39   25   32 ar
    40   26   27 2
    41   26   28 ar
    42   28   29 ar
    43   29   30 1
    44   29   31 ar
    45   30   43 1
    46   30   44 1
    47   31   32 ar
    48   31   45 1
@<TRIPOS>SUBSTRUCTURE
     1 GTP         1 GROUP 0 A     ****
@<TRIPOS>MOLECULE
[[[5-(2-amino-6-oxo-7,8-dihydro-3~{H}-purin-8-ylium-9-yl)-3,4-dihydroxy-tetrahydrofuran-2-yl]methoxy-oxido-phosphoryl]oxy-oxido-phosphoryl] hydrogen phosphate
   46    48     1     0     0
SMALL
USER_CHARGES

@<TRIPOS>ATOM
      1 PG          3.3340   -4.9740   -2.0513 P.3       1 GTP         1.5447
      2 O1G         3.4124   -6.4555   -2.3455 O.co2     1 GTP        -0.8705
      3 O2G         3.0636   -4.4732   -0.6499 O.co2     1 GTP        -0.8705
      4 O3G         2.2421   -4.3015   -3.0619 O.3       1 GTP        -0.7914
      5 O3B         4.6791   -4.2472   -2.6224 O.3       1 GTP        -0.8116
      6 PB          5.0515   -2.6602   -2.7145 P.3       1 GTP         1.6738
      7 O1B         4.9024   -2.0466   -1.3402 O.co2     1 GTP        -0.8763
      8 O2B         6.3207   -2.4974   -3.5209 O.co2     1 GTP        -0.8763
      9 O3A         3.8274   -2.1590   -3.6712 O.3       1 GTP        -0.8005
     10 PA          3.4844   -0.6652   -4.2374 P.3       1 GTP         1.5754
     11 O1A         4.6940   -0.1355   -4.9767 O.co2     1 GTP        -0.8771
     12 O2A         2.1200   -0.6965   -4.8909 O.co2     1 GTP        -0.8771
     13 O5'         3.2903    0.1346   -2.8241 O.3       1 GTP        -0.5809
     14 C5'         2.2816   -0.2918   -1.9206 C.3       1 GTP         0.1986
     15 C4'         2.7248    0.0226   -0.4980 C.3       1 GTP         0.0418
     16 O4'         2.4697    1.4219   -0.2462 O.3       1 GTP        -0.3505
     17 C3'         1.9404   -0.7419    0.5596 C.3       1 GTP         0.0909
     18 O3'         2.7418   -0.8086    1.7389 O.3       1 GTP        -0.6187
     19 C2'         0.7477    0.1630    0.7858 C.3       1 GTP         0.0706
     20 O2'         0.1373   -0.0577    2.0407 O.3       1 GTP        -0.6294
     21 C1'         1.3733    1.5427    0.6747 C.3       1 GTP         0.3895
     22 N9          0.4520    2.5240    0.1767 N.pl3     1 GTP        -0.4733
     23 C8          0.2012    2.8401   -1.0899 C.ar      1 GTP         0.2958
     24 N7         -0.7168    3.7990   -1.1981 N.pl3     1 GTP        -0.4933
     25 C5         -1.0645    4.1043    0.0896 C.ar      1 GTP        -0.1494
     26 C6         -2.0336    5.0870    0.5973 C.ar      1 GTP         0.7954
     27 O6         -2.6730    5.7839   -0.1834 O.2       1 GTP        -0.5729
     28 N1         -2.1539    5.1517    1.9868 N.2       1 GTP        -0.7443
     29 C2         -1.4288    4.3650    2.7566 C.ar      1 GTP         0.8831
     30 N2         -1.5126    4.3922    4.1250 N.pl3     1 GTP        -0.9204
     31 N3         -0.5167    3.4388    2.2748 N.pl3     1 GTP        -0.7173
     32 C4         -0.3638    3.3392    0.9318 C.ar      1 GTP         0.2626
     33 HOG3        2.0760   -3.3371   -2.9950 H         1 GTP         0.4102
     34 H5'         1.3514    0.2330   -2.1577 H         1 GTP         0.0289
     35 H5''        2.1280   -1.3678   -2.0460 H         1 GTP         0.0289
     36 H4'         3.8044   -0.1397   -0.4040 H         1 GTP         0.2056
     37 H3'         1.6764   -1.7639    0.2728 H         1 GTP         0.1140
     38 HO3'        3.5554   -1.2733    1.4914 H         1 GTP         0.4287
     39 H2'        -0.0011    0.0027    0.0003 H         1 GTP         0.0809
     40 HO2'       -0.1563   -0.9855    2.0596 H         1 GTP         0.4385
     41 H1'         1.7826    1.9024    1.6451 H         1 GTP         0.0794
     42 H8          0.6787    2.3803   -1.9373 H         1 GTP         0.3821
     43 HN21       -2.1462    5.0320    4.5446 H         1 GTP         0.4411
     44 HN22       -0.9365    3.7712    4.6440 H         1 GTP         0.4411
     45 H45         0.0318    2.8419    2.8816 H         1 GTP         0.4819
     46 H46        -1.0718    4.2049   -2.0526 H         1 GTP         0.5182
@<TRIPOS>BOND
     1    1    2 2
     2    1    3 1
     3    1    4 1
     4    1    5 1
     5    4   33 1
     6    5    6 1
     7    6    7 2
     8    6    8 1
     9    6    9 1
    10    9   10 1
    11   10   11 2
    12   10   12 1
    13   10   13 1
    14   13   14 1
    15   14   15 1
    16   14   34 1
    17   14   35 1
    18   15   16 1
    19   15   17 1
    20   15   36 1
    21   16   21 1
    22   17   18 1
    23   17   19 1
    24   17   37 1
    25   18   38 1
    26   19   20 1
    27   19   21 1
    28   19   39 1
    29   20   40 1
    30   21   22 1
    31   21   41 1
    32   22   23 ar
    33   22   32 ar
    34   23   24 ar
    35   23   42 1
    36   24   25 ar
    37   24   46 1
    38   25   26 ar
    39   25   32 ar
    40   26   27 2
    41   26   28 ar
    42   28   29 ar
    43   29   30 1
    44   29   31 ar
    45   30   43 1
    46   30   44 1
    47   31   32 ar
    48   31   45 1
@<TRIPOS>SUBSTRUCTURE
     1 GTP         1 GROUP 0 A     ****
@<TRIPOS>MOLECULE
[[[5-(2-amino-6-oxo-7,8-dihydro-3~{H}-purin-8-ylium-9-yl)-3,4-dihydroxy-tetrahydrofuran-2-yl]methoxy-oxido-phosphoryl]oxy-oxido-phosphoryl] hydrogen phosphate
   46    48     1     0     0
SMALL
USER_CHARGES

@<TRIPOS>ATOM
      1 PG          6.8426    4.0345   -3.4287 P.3       1 GTP         1.5447
      2 O1G         7.4522    3.8633   -4.8021 O.co2     1 GTP        -0.8705
      3 O2G         6.8367    5.3829   -2.7435 O.co2     1 GTP        -0.8705
      4 O3G         7.5205    2.9436   -2.4206 O.3       1 GTP        -0.7914
      5 O3B         5.3215    3.4430   -3.4452 O.3       1 GTP        -0.8116
      6 PB          4.2675    3.2329   -2.2161 P.3       1 GTP         1.6738
      7 O1B         4.8193    2.1823   -1.2785 O.co2     1 GTP        -0.8763
      8 O2B         3.8207    4.5873   -1.7126 O.co2     1 GTP        -0.8763
      9 O3A         3.0106    2.6117   -3.0522 O.3       1 GTP        -0.8005
     10 PA          2.9232    1.2546   -3.9579 P.3       1 GTP         1.5754
     11 O1A         1.4961    1.0747   -4.4283 O.co2     1 GTP        -0.8771
     12 O2A         4.0762    1.2511   -4.9378 O.co2     1 GTP        -0.8771
     13 O5'         3.2903    0.1346   -2.8241 O.3       1 GTP        -0.5809
     14 C5'         2.2816   -0.2918   -1.9206 C.3       1 GTP         0.1986
     15 C4'         2.7248    0.0226   -0.4980 C.3       1 GTP         0.0418
     16 O4'         2.4697    1.4219   -0.2462 O.3       1 GTP        -0.3505
     17 C3'         1.9404   -0.7419    0.5596 C.3       1 GTP         0.0909
     18 O3'         2.7418   -0.8086    1.7389 O.3       1 GTP        -0.6187
     19 C2'         0.7477    0.1630    0.7858 C.3       1 GTP         0.0706
     20 O2'         0.1373   -0.0577    2.0407 O.3       1 GTP        -0.6294
     21 C1'         1.3733    1.5427    0.6747 C.3       1 GTP         0.3895
     22 N9          0.4520    2.5240    0.1767 N.pl3     1 GTP        -0.4733
     23 C8          0.2012    2.8401   -1.0899 C.ar      1 GTP         0.2958
     24 N7         -0.7168    3.7990   -1.1981 N.pl3     1 GTP        -0.4933
     25 C5         -1.0645    4.1043    0.0896 C.ar      1 GTP        -0.1494
     26 C6         -2.0336    5.0870    0.5973 C.ar      1 GTP         0.7954
     27 O6         -2.6730    5.7839   -0.1834 O.2       1 GTP        -0.5729
     28 N1         -2.1539    5.1517    1.9868 N.2       1 GTP        -0.7443
     29 C2         -1.4288    4.3650    2.7566 C.ar      1 GTP         0.8831
     30 N2         -1.5126    4.3922    4.1250 N.pl3     1 GTP        -0.9204
     31 N3         -0.5167    3.4388    2.2748 N.pl3     1 GTP        -0.7173
     32 C4         -0.3638    3.3392    0.9318 C.ar      1 GTP         0.2626
     33 HOG3        7.2276    2.9278   -1.4845 H         1 GTP         0.4102
     34 H5'         1.3514    0.2330   -2.1577 H         1 GTP         0.0289
     35 H5''        2.1280   -1.3678   -2.0460 H         1 GTP         0.0289
     36 H4'         3.8044   -0.1397   -0.4040 H         1 GTP         0.2056
     37 H3'         1.6764   -1.7639    0.2728 H         1 GTP         0.1140
     38 HO3'        2.2232   -1.2979    2.3953 H         1 GTP         0.4287
     39 H2'        -0.0011    0.0027    0.0003 H         1 GTP         0.0809
     40 HO2'       -0.1563   -0.9855    2.0596 H         1 GTP         0.4385
     41 H1'         1.7826    1.9024    1.6451 H         1 GTP         0.0794
     42 H8          0.6787    2.3803   -1.9373 H         1 GTP         0.3821
     43 HN21       -2.1462    5.0320    4.5446 H         1 GTP         0.4411
     44 HN22       -0.9365    3.7712    4.6440 H         1 GTP         0.4411
     45 H45         0.0318    2.8419    2.8816 H         1 GTP         0.4819
     46 H46        -1.0718    4.2049   -2.0526 H         1 GTP         0.5182
@<TRIPOS>BOND
     1    1    2 2
     2    1    3 1
     3    1    4 1
     4    1    5 1
     5    4   33 1
     6    5    6 1
     7    6    7 2
     8    6    8 1
     9    6    9 1
    10    9   10 1
    11   10   11 2
    12   10   12 1
    13   10   13 1
    14   13   14 1
    15   14   15 1
    16   14   34 1
    17   14   35 1
    18   15   16 1
    19   15   17 1
    20   15   36 1
    21   16   21 1
    22   17   18 1
    23   17   19 1
    24   17   37 1
    25   18   38 1
    26   19   20 1
    27   19   21 1
    28   19   39 1
    29   20   40 1
    30   21   22 1
    31   21   41 1
    32   22   23 ar
    33   22   32 ar
    34   23   24 ar
    35   23   42 1
    36   24   25 ar
    37   24   46 1
    38   25   26 ar
    39   25   32 ar
    40   26   27 2
    41   26   28 ar
    42   28   29 ar
    43   29   30 1
    44   29   31 ar
    45   30   43 1
    46   30   44 1
    47   31   32 ar
    48   31   45 1
@<TRIPOS>SUBSTRUCTURE
     1 GTP         1 GROUP 0 A     ****
@<TRIPOS>MOLECULE
[[[5-(2-amino-6-oxo-7,8-dihydro-3~{H}-purin-8-ylium-9-yl)-3,4-dihydroxy-tetrahydrofuran-2-yl]methoxy-oxido-phosphoryl]oxy-oxido-phosphoryl] hydrogen phosphate
   46    48     1     0     0
SMALL
USER_CHARGES

@<TRIPOS>ATOM
      1 PG         -0.5847   -5.4007   -1.7726 P.3       1 GTP         1.5447
      2 O1G        -0.6327   -6.8265   -2.2750 O.co2     1 GTP        -0.8705
      3 O2G         0.6743   -4.8373   -1.1521 O.co2     1 GTP        -0.8705
      4 O3G        -1.8215   -5.1761   -0.7306 O.3       1 GTP        -0.7914
      5 O3B        -1.0807   -4.4009   -2.9634 O.3       1 GTP        -0.8116
      6 PB         -1.3685   -2.7942   -2.9281 P.3       1 GTP         1.6738
      7 O1B        -1.6742   -2.3254   -4.3331 O.co2     1 GTP        -0.8763
      8 O2B        -2.2920   -2.4838   -1.7712 O.co2     1 GTP        -0.8763
      9 O3A         0.1148   -2.2721   -2.4897 O.3       1 GTP        -0.8005
     10 PA          1.5544   -2.4558   -3.2404 P.3       1 GTP         1.5754
     11 O1A         1.9037   -3.9280   -3.2692 O.co2     1 GTP        -0.8771
     12 O2A         1.5492   -1.6282   -4.5072 O.co2     1 GTP        -0.8771
     13 O5'         2.5245   -1.6648   -2.1878 O.3       1 GTP        -0.5809
     14 C5'         2.2816   -0.2918   -1.9206 C.3       1 GTP         0.1986
     15 C4'         2.7248    0.0226   -0.4980 C.3       1 GTP         0.0418
     16 O4'         2.4697    1.4219   -0.2462 O.3       1 GTP        -0.3505
     17 C3'         1.9404   -0.7419    0.5596 C.3       1 GTP         0.0909
     18 O3'         2.7418   -0.8086    1.7389 O.3       1 GTP        -0.6187
     19 C2'         0.7477    0.1630    0.7858 C.3       1 GTP         0.0706
     20 O2'         0.1373   -0.0577    2.0407 O.3       1 GTP        -0.6294
     21 C1'         1.3733    1.5427    0.6747 C.3       1 GTP         0.3895
     22 N9          0.4520    2.5240    0.1767 N.pl3     1 GTP        -0.4733
     23 C8          0.2012    2.8401   -1.0899 C.ar      1 GTP         0.2958
     24 N7         -0.7168    3.7990   -1.1981 N.pl3     1 GTP        -0.4933
     25 C5         -1.0645    4.1043    0.0896 C.ar      1 GTP        -0.1494
     26 C6         -2.0336    5.0870    0.5973 C.ar      1 GTP         0.7954
     27 O6         -2.6730    5.7839   -0.1834 O.2       1 GTP        -0.5729
     28 N1         -2.1539    5.1517    1.9868 N.2       1 GTP        -0.7443
     29 C2         -1.4288    4.3650    2.7566 C.ar      1 GTP         0.8831
     30 N2         -1.5126    4.3922    4.1250 N.pl3     1 GTP        -0.9204
     31 N3         -0.5167    3.4388    2.2748 N.pl3     1 GTP        -0.7173
     32 C4         -0.3638    3.3392    0.9318 C.ar      1 GTP         0.2626
     33 HOG3       -1.9274   -4.2939   -0.3149 H         1 GTP         0.4102
     34 H5'         2.8432    0.3119   -2.6398 H         1 GTP         0.0289
     35 H5''        1.2128   -0.0927   -2.0428 H         1 GTP         0.0289
     36 H4'         3.8044   -0.1397   -0.4040 H         1 GTP         0.2056
     37 H3'         1.6764   -1.7639    0.2728 H         1 GTP         0.1140
     38 HO3'        2.2232   -1.2979    2.3953 H         1 GTP         0.4287
     39 H2'        -0.0011    0.0027    0.0003 H         1 GTP         0.0809
     40 HO2'       -0.6141    0.5574    2.1082 H         1 GTP         0.4385
     41 H1'         1.7826    1.9024    1.6451 H         1 GTP         0.0794
     42 H8          0.6787    2.3803   -1.9373 H         1 GTP         0.3821
     43 HN21       -2.1462    5.0320    4.5446 H         1 GTP         0.4411
     44 HN22       -0.9365    3.7712    4.6440 H         1 GTP         0.4411
     45 H45         0.0318    2.8419    2.8816 H         1 GTP         0.4819
     46 H46        -1.0718    4.2049   -2.0526 H         1 GTP         0.5182
@<TRIPOS>BOND
     1    1    2 2
     2    1    3 1
     3    1    4 1
     4    1    5 1
     5    4   33 1
     6    5    6 1
     7    6    7 2
     8    6    8 1
     9    6    9 1
    10    9   10 1
    11   10   11 2
    12   10   12 1
    13   10   13 1
    14   13   14 1
    15   14   15 1
    16   14   34 1
    17   14   35 1
    18   15   16 1
    19   15   17 1
    20   15   36 1
    21   16   21 1
    22   17   18 1
    23   17   19 1
    24   17   37 1
    25   18   38 1
    26   19   20 1
    27   19   21 1
    28   19   39 1
    29   20   40 1
    30   21   22 1
    31   21   41 1
    32   22   23 ar
    33   22   32 ar
    34   23   24 ar
    35   23   42 1
    36   24   25 ar
    37   24   46 1
    38   25   26 ar
    39   25   32 ar
    40   26   27 2
    41   26   28 ar
    42   28   29 ar
    43   29   30 1
    44   29   31 ar
    45   30   43 1
    46   30   44 1
    47   31   32 ar
    48   31   45 1
@<TRIPOS>SUBSTRUCTURE
     1 GTP         1 GROUP 0 A     ****
@<TRIPOS>MOLECULE
[[[5-(2-amino-6-oxo-7,8-dihydro-3~{H}-purin-8-ylium-9-yl)-3,4-dihydroxy-tetrahydrofuran-2-yl]methoxy-oxido-phosphoryl]oxy-oxido-phosphoryl] hydrogen phosphate
   46    48     1     0     0
SMALL
USER_CHARGES

@<TRIPOS>ATOM
      1 PG          6.1498    2.5247   -2.0552 P.3       1 GTP         1.5447
      2 O1G         4.7959    2.1012   -1.5307 O.co2     1 GTP        -0.8705
      3 O2G         7.1485    3.2201   -1.1570 O.co2     1 GTP        -0.8705
      4 O3G         5.9263    3.4403   -3.3885 O.3       1 GTP        -0.7914
      5 O3B         6.8732    1.2406   -2.7563 O.3       1 GTP        -0.8116
      6 PB          6.3223    0.2358   -3.9192 P.3       1 GTP         1.6738
      7 O1B         5.8905    1.0626   -5.1097 O.co2     1 GTP        -0.8763
      8 O2B         7.2838   -0.9224   -4.0665 O.co2     1 GTP        -0.8763
      9 O3A         5.0041   -0.3507   -3.1556 O.3       1 GTP        -0.8005
     10 PA          3.8940   -1.4358   -3.6657 P.3       1 GTP         1.5754
     11 O1A         3.1495   -0.8515   -4.8466 O.co2     1 GTP        -0.8771
     12 O2A         4.5501   -2.7967   -3.7501 O.co2     1 GTP        -0.8771
     13 O5'         2.9216   -1.4836   -2.3516 O.3       1 GTP        -0.5809
     14 C5'         2.2816   -0.2918   -1.9206 C.3       1 GTP         0.1986
     15 C4'         2.7248    0.0226   -0.4980 C.3       1 GTP         0.0418
     16 O4'         2.4697    1.4219   -0.2462 O.3       1 GTP        -0.3505
     17 C3'         1.9404   -0.7419    0.5596 C.3       1 GTP         0.0909
     18 O3'         2.7418   -0.8086    1.7389 O.3       1 GTP        -0.6187
     19 C2'         0.7477    0.1630    0.7858 C.3       1 GTP         0.0706
     20 O2'         0.1373   -0.0577    2.0407 O.3       1 GTP        -0.6294
     21 C1'         1.3733    1.5427    0.6747 C.3       1 GTP         0.3895
     22 N9          0.4520    2.5240    0.1767 N.pl3     1 GTP        -0.4733
     23 C8          0.2012    2.8401   -1.0899 C.ar      1 GTP         0.2958
     24 N7         -0.7168    3.7990   -1.1981 N.pl3     1 GTP        -0.4933
     25 C5         -1.0645    4.1043    0.0896 C.ar      1 GTP        -0.1494
     26 C6         -2.0336    5.0870    0.5973 C.ar      1 GTP         0.7954
     27 O6         -2.6730    5.7839   -0.1834 O.2       1 GTP        -0.5729
     28 N1         -2.1539    5.1517    1.9868 N.2       1 GTP        -0.7443
     29 C2         -1.4288    4.3650    2.7566 C.ar      1 GTP         0.8831
     30 N2         -1.5126    4.3922    4.1250 N.pl3     1 GTP        -0.9204
     31 N3         -0.5167    3.4388    2.2748 N.pl3     1 GTP        -0.7173
     32 C4         -0.3638    3.3392    0.9318 C.ar      1 GTP         0.2626
     33 HOG3        6.7164    3.7948   -3.8493 H         1 GTP         0.4102
     34 H5'         2.5589    0.5217   -2.5976 H         1 GTP         0.0289
     35 H5''        1.1982   -0.4388   -1.9617 H         1 GTP         0.0289
     36 H4'         3.8044   -0.1397   -0.4040 H         1 GTP         0.2056
     37 H3'         1.6764   -1.7639    0.2728 H         1 GTP         0.1140
     38 HO3'        2.2232   -1.2979    2.3953 H         1 GTP         0.4287
     39 H2'        -0.0011    0.0027    0.0003 H         1 GTP         0.0809
     40 HO2'       -0.1563   -0.9855    2.0596 H         1 GTP         0.4385
     41 H1'         1.7826    1.9024    1.6451 H         1 GTP         0.0794
     42 H8          0.6787    2.3803   -1.9373 H         1 GTP         0.3821
     43 HN21       -2.1462    5.0320    4.5446 H         1 GTP         0.4411
     44 HN22       -0.9365    3.7712    4.6440 H         1 GTP         0.4411
     45 H45         0.0318    2.8419    2.8816 H         1 GTP         0.4819
     46 H46        -1.0718    4.2049   -2.0526 H         1 GTP         0.5182
@<TRIPOS>BOND
     1    1    2 2
     2    1    3 1
     3    1    4 1
     4    1    5 1
     5    4   33 1
     6    5    6 1
     7    6    7 2
     8    6    8 1
     9    6    9 1
    10    9   10 1
    11   10   11 2
    12   10   12 1
    13   10   13 1
    14   13   14 1
    15   14   15 1
    16   14   34 1
    17   14   35 1
    18   15   16 1
    19   15   17 1
    20   15   36 1
    21   16   21 1
    22   17   18 1
    23   17   19 1
    24   17   37 1
    25   18   38 1
    26   19   20 1
    27   19   21 1
    28   19   39 1
    29   20   40 1
    30   21   22 1
    31   21   41 1
    32   22   23 ar
    33   22   32 ar
    34   23   24 ar
    35   23   42 1
    36   24   25 ar
    37   24   46 1
    38   25   26 ar
    39   25   32 ar
    40   26   27 2
    41   26   28 ar
    42   28   29 ar
    43   29   30 1
    44   29   31 ar
    45   30   43 1
    46   30   44 1
    47   31   32 ar
    48   31   45 1
@<TRIPOS>SUBSTRUCTURE
     1 GTP         1 GROUP 0 A     ****
@<TRIPOS>MOLECULE
[[[5-(2-amino-6-oxo-7,8-dihydro-3~{H}-purin-8-ylium-9-yl)-3,4-dihydroxy-tetrahydrofuran-2-yl]methoxy-oxido-phosphoryl]oxy-oxido-phosphoryl] hydrogen phosphate
   46    48     1     0     0
SMALL
USER_CHARGES

@<TRIPOS>ATOM
      1 PG         -0.9842    0.7239   -5.0996 P.3       1 GTP         1.5447
      2 O1G        -1.6992    0.0456   -6.2469 O.co2     1 GTP        -0.8705
      3 O2G        -0.3325   -0.0871   -4.0017 O.co2     1 GTP        -0.8705
      4 O3G        -2.0055    1.7978   -4.4143 O.3       1 GTP        -0.7914
      5 O3B         0.1100    1.7742   -5.7022 O.3       1 GTP        -0.8116
      6 PB          1.0423    2.8705   -4.9312 P.3       1 GTP         1.6738
      7 O1B         1.9862    3.4953   -5.9342 O.co2     1 GTP        -0.8763
      8 O2B         0.1680    3.7169   -4.0330 O.co2     1 GTP        -0.8763
      9 O3A         1.8750    1.8640   -3.9522 O.3       1 GTP        -0.8005
     10 PA          2.8621    0.6170   -4.3270 P.3       1 GTP         1.5754
     11 O1A         2.0475   -0.4600   -5.0101 O.co2     1 GTP        -0.8771
     12 O2A         4.1194    1.1687   -4.9631 O.co2     1 GTP        -0.8771
     13 O5'         3.2903    0.1346   -2.8241 O.3       1 GTP        -0.5809
     14 C5'         2.2816   -0.2918   -1.9206 C.3       1 GTP         0.1986
     15 C4'         2.7248    0.0226   -0.4980 C.3       1 GTP         0.0418
     16 O4'         2.4697    1.4219   -0.2462 O.3       1 GTP        -0.3505
     17 C3'         1.9404   -0.7419    0.5596 C.3       1 GTP         0.0909
     18 O3'         2.7418   -0.8086    1.7389 O.3       1 GTP        -0.6187
     19 C2'         0.7477    0.1630    0.7858 C.3       1 GTP         0.0706
     20 O2'         0.1373   -0.0577    2.0407 O.3       1 GTP        -0.6294
     21 C1'         1.3733    1.5427    0.6747 C.3       1 GTP         0.3895
     22 N9          0.4520    2.5240    0.1767 N.pl3     1 GTP        -0.4733
     23 C8         -0.2136    2.5096   -0.9739 C.ar      1 GTP         0.2958
     24 N7         -0.9896    3.5820   -1.1212 N.pl3     1 GTP        -0.4933
     25 C5         -0.7962    4.3186    0.0156 C.ar      1 GTP        -0.1494
     26 C6         -1.3875    5.6031    0.4192 C.ar      1 GTP         0.7954
     27 O6         -2.1869    6.1731   -0.3158 O.2       1 GTP        -0.5729
     28 N1         -0.9745    6.0930    1.6597 N.2       1 GTP        -0.7443
     29 C2         -0.1105    5.4166    2.3900 C.ar      1 GTP         0.8831
     30 N2          0.3241    5.8571    3.6138 N.pl3     1 GTP        -0.9204
     31 N3          0.4444    4.2053    2.0072 N.pl3     1 GTP        -0.7173
     32 C4          0.0746    3.6889    0.8098 C.ar      1 GTP         0.2626
     33 HOG3       -1.6867    2.3228   -3.6494 H         1 GTP         0.4102
     34 H5'         1.3514    0.2330   -2.1577 H         1 GTP         0.0289
     35 H5''        2.1280   -1.3678   -2.0460 H         1 GTP         0.0289
     36 H4'         3.8044   -0.1397   -0.4040 H         1 GTP         0.2056
     37 H3'         1.6764   -1.7639    0.2728 H         1 GTP         0.1140
     38 HO3'        2.2232   -1.2979    2.3953 H         1 GTP         0.4287
     39 H2'        -0.0011    0.0027    0.0003 H         1 GTP         0.0809
     40 HO2'       -0.6141    0.5574    2.1082 H         1 GTP         0.4385
     41 H1'         1.7826    1.9024    1.6451 H         1 GTP         0.0794
     42 H8         -0.1415    1.7265   -1.7082 H         1 GTP         0.3821
     43 HN21       -0.0303    6.7197    3.9559 H         1 GTP         0.4411
     44 HN22        0.9765    5.2967    4.1108 H         1 GTP         0.4411
     45 H45         1.1068    3.6990    2.5819 H         1 GTP         0.4819
     46 H46        -1.5877    3.7943   -1.9074 H         1 GTP         0.5182
@<TRIPOS>BOND
     1    1    2 2
     2    1    3 1
     3    1    4 1
     4    1    5 1
     5    4   33 1
     6    5    6 1
     7    6    7 2
     8    6    8 1
     9    6    9 1
    10    9   10 1
    11   10   11 2
    12   10   12 1
    13   10   13 1
    14   13   14 1
    15   14   15 1
    16   14   34 1
    17   14   35 1
    18   15   16 1
    19   15   17 1
    20   15   36 1
    21   16   21 1
    22   17   18 1
    23   17   19 1
    24   17   37 1
    25   18   38 1
    26   19   20 1
    27   19   21 1
    28   19   39 1
    29   20   40 1
    30   21   22 1
    31   21   41 1
    32   22   23 ar
    33   22   32 ar
    34   23   24 ar
    35   23   42 1
    36   24   25 ar
    37   24   46 1
    38   25   26 ar
    39   25   32 ar
    40   26   27 2
    41   26   28 ar
    42   28   29 ar
    43   29   30 1
    44   29   31 ar
    45   30   43 1
    46   30   44 1
    47   31   32 ar
    48   31   45 1
@<TRIPOS>SUBSTRUCTURE
     1 GTP         1 GROUP 0 A     ****
@<TRIPOS>MOLECULE
[[[5-(2-amino-6-oxo-7,8-dihydro-3~{H}-purin-8-ylium-9-yl)-3,4-dihydroxy-tetrahydrofuran-2-yl]methoxy-oxido-phosphoryl]oxy-oxido-phosphoryl] hydrogen phosphate
   46    48     1     0     0
SMALL
USER_CHARGES

@<TRIPOS>ATOM
      1 PG          4.8749   -3.3743   -6.6316 P.3       1 GTP         1.5447
      2 O1G         6.1449   -2.8389   -6.0088 O.co2     1 GTP        -0.8705
      3 O2G         4.6902   -4.8567   -6.8682 O.co2     1 GTP        -0.8705
      4 O3G         4.6164   -2.5885   -8.0394 O.3       1 GTP        -0.7914
      5 O3B         3.5932   -2.8085   -5.7944 O.3       1 GTP        -0.8116
      6 PB          3.1956   -1.2747   -5.4007 P.3       1 GTP         1.6738
      7 O1B         4.2386   -0.7326   -4.4490 O.co2     1 GTP        -0.8763
      8 O2B         2.8057   -0.5282   -6.6569 O.co2     1 GTP        -0.8763
      9 O3A         1.8113   -1.5642   -4.5853 O.3       1 GTP        -0.8005
     10 PA          1.5544   -2.4558   -3.2404 P.3       1 GTP         1.5754
     11 O1A         0.1056   -2.3088   -2.8286 O.co2     1 GTP        -0.8771
     12 O2A         2.1769   -3.8208   -3.4380 O.co2     1 GTP        -0.8771
     13 O5'         2.5245   -1.6648   -2.1878 O.3       1 GTP        -0.5809
     14 C5'         2.2816   -0.2918   -1.9206 C.3       1 GTP         0.1986
     15 C4'         2.7248    0.0226   -0.4980 C.3       1 GTP         0.0418
     16 O4'         2.4697    1.4219   -0.2462 O.3       1 GTP        -0.3505
     17 C3'         1.9404   -0.7419    0.5596 C.3       1 GTP         0.0909
     18 O3'         2.7418   -0.8086    1.7389 O.3       1 GTP        -0.6187
     19 C2'         0.7477    0.1630    0.7858 C.3       1 GTP         0.0706
     20 O2'         0.1373   -0.0577    2.0407 O.3       1 GTP        -0.6294
     21 C1'         1.3733    1.5427    0.6747 C.3       1 GTP         0.3895
     22 N9          0.4520    2.5240    0.1767 N.pl3     1 GTP        -0.4733
     23 C8          0.5427    3.2356   -0.9425 C.ar      1 GTP         0.2958
     24 N7         -0.4919    4.0590   -1.1018 N.pl3     1 GTP        -0.4933
     25 C5         -1.2850    3.8484   -0.0069 C.ar      1 GTP        -0.1494
     26 C6         -2.5644    4.4707    0.3650 C.ar      1 GTP         0.7954
     27 O6         -3.0718    5.3200   -0.3599 O.2       1 GTP        -0.5729
     28 N1         -3.1239    4.0269    1.5647 N.2       1 GTP        -0.7443
     29 C2         -2.5133    3.1079    2.2858 C.ar      1 GTP         0.8831
     30 N2         -3.0239    2.6409    3.4697 N.pl3     1 GTP        -0.9204
     31 N3         -1.3076    2.5223    1.9320 N.pl3     1 GTP        -0.7173
     32 C4         -0.7246    2.9211    0.7753 C.ar      1 GTP         0.2626
     33 HOG3        3.8242   -2.8250   -8.5674 H         1 GTP         0.4102
     34 H5'         2.8432    0.3119   -2.6398 H         1 GTP         0.0289
     35 H5''        1.2128   -0.0927   -2.0428 H         1 GTP         0.0289
     36 H4'         3.8044   -0.1397   -0.4040 H         1 GTP         0.2056
     37 H3'         1.6764   -1.7639    0.2728 H         1 GTP         0.1140
     38 HO3'        2.2232   -1.2979    2.3953 H         1 GTP         0.4287
     39 H2'        -0.0011    0.0027    0.0003 H         1 GTP         0.0809
     40 HO2'       -0.1563   -0.9855    2.0596 H         1 GTP         0.4385
     41 H1'         1.7826    1.9024    1.6451 H         1 GTP         0.0794
     42 H8          1.3539    3.1622   -1.6455 H         1 GTP         0.3821
     43 HN21       -3.8871    3.0143    3.7893 H         1 GTP         0.4411
     44 HN22       -2.5108    1.9472    3.9621 H         1 GTP         0.4411
     45 H45        -0.8530    1.8168    2.4986 H         1 GTP         0.4819
     46 H46        -0.6466    4.6966   -1.8702 H         1 GTP         0.5182
@<TRIPOS>BOND
     1    1    2 2
     2    1    3 1
     3    1    4 1
     4    1    5 1
     5    4   33 1
     6    5    6 1
     7    6    7 2
     8    6    8 1
     9    6    9 1
    10    9   10 1
    11   10   11 2
    12   10   12 1
    13   10   13 1
    14   13   14 1
    15   14   15 1
    16   14   34 1
    17   14   35 1
    18   15   16 1
    19   15   17 1
    20   15   36 1
    21   16   21 1
    22   17   18 1
    23   17   19 1
    24   17   37 1
    25   18   38 1
    26   19   20 1
    27   19   21 1
    28   19   39 1
    29   20   40 1
    30   21   22 1
    31   21   41 1
    32   22   23 ar
    33   22   32 ar
    34   23   24 ar
    35   23   42 1
    36   24   25 ar
    37   24   46 1
    38   25   26 ar
    39   25   32 ar
    40   26   27 2
    41   26   28 ar
    42   28   29 ar
    43   29   30 1
    44   29   31 ar
    45   30   43 1
    46   30   44 1
    47   31   32 ar
    48   31   45 1
@<TRIPOS>SUBSTRUCTURE
     1 GTP         1 GROUP 0 A     ****
@<TRIPOS>MOLECULE
[[[5-(2-amino-6-oxo-7,8-dihydro-3~{H}-purin-8-ylium-9-yl)-3,4-dihydroxy-tetrahydrofuran-2-yl]methoxy-oxido-phosphoryl]oxy-oxido-phosphoryl] hydrogen phosphate
   46    48     1     0     0
SMALL
USER_CHARGES

@<TRIPOS>ATOM
      1 PG          5.2705    2.2274   -6.5422 P.3       1 GTP         1.5447
      2 O1G         4.5325    2.9653   -7.6369 O.co2     1 GTP        -0.8705
      3 O2G         5.9331    2.9783   -5.4088 O.co2     1 GTP        -0.8705
      4 O3G         6.3793    1.2481   -7.2333 O.3       1 GTP        -0.7914
      5 O3B         4.2879    1.0843   -5.9164 O.3       1 GTP        -0.8116
      6 PB          4.6092   -0.0895   -4.8281 P.3       1 GTP         1.6738
      7 O1B         5.5897   -1.0641   -5.4415 O.co2     1 GTP        -0.8763
      8 O2B         4.8627    0.5449   -3.4787 O.co2     1 GTP        -0.8763
      9 O3A         3.1328   -0.7809   -4.7450 O.3       1 GTP        -0.8005
     10 PA          2.6196   -2.0516   -3.8552 P.3       1 GTP         1.5754
     11 O1A         1.1298   -2.2200   -4.0616 O.co2     1 GTP        -0.8771
     12 O2A         3.5739   -3.2069   -4.0652 O.co2     1 GTP        -0.8771
     13 O5'         2.9216   -1.4836   -2.3516 O.3       1 GTP        -0.5809
     14 C5'         2.2816   -0.2918   -1.9206 C.3       1 GTP         0.1986
     15 C4'         2.7248    0.0226   -0.4980 C.3       1 GTP         0.0418
     16 O4'         2.4697    1.4219   -0.2462 O.3       1 GTP        -0.3505
     17 C3'         1.9404   -0.7419    0.5596 C.3       1 GTP         0.0909
     18 O3'         2.7418   -0.8086    1.7389 O.3       1 GTP        -0.6187
     19 C2'         0.7477    0.1630    0.7858 C.3       1 GTP         0.0706
     20 O2'         0.1373   -0.0577    2.0407 O.3       1 GTP        -0.6294
     21 C1'         1.3733    1.5427    0.6747 C.3       1 GTP         0.3895
     22 N9          0.4520    2.5240    0.1767 N.pl3     1 GTP        -0.4733
     23 C8         -0.2136    2.5096   -0.9739 C.ar      1 GTP         0.2958
     24 N7         -0.9896    3.5820   -1.1212 N.pl3     1 GTP        -0.4933
     25 C5         -0.7962    4.3186    0.0156 C.ar      1 GTP        -0.1494
     26 C6         -1.3875    5.6031    0.4192 C.ar      1 GTP         0.7954
     27 O6         -2.1869    6.1731   -0.3158 O.2       1 GTP        -0.5729
     28 N1         -0.9745    6.0930    1.6597 N.2       1 GTP        -0.7443
     29 C2         -0.1105    5.4166    2.3900 C.ar      1 GTP         0.8831
     30 N2          0.3241    5.8571    3.6138 N.pl3     1 GTP        -0.9204
     31 N3          0.4444    4.2053    2.0072 N.pl3     1 GTP        -0.7173
     32 C4          0.0746    3.6889    0.8098 C.ar      1 GTP         0.2626
     33 HOG3        6.9440    0.6974   -6.6501 H         1 GTP         0.4102
     34 H5'         2.5589    0.5217   -2.5976 H         1 GTP         0.0289
     35 H5''        1.1982   -0.4388   -1.9617 H         1 GTP         0.0289
     36 H4'         3.8044   -0.1397   -0.4040 H         1 GTP         0.2056
     37 H3'         1.6764   -1.7639    0.2728 H         1 GTP         0.1140
     38 HO3'        2.2232   -1.2979    2.3953 H         1 GTP         0.4287
     39 H2'        -0.0011    0.0027    0.0003 H         1 GTP         0.0809
     40 HO2'       -0.6141    0.5574    2.1082 H         1 GTP         0.4385
     41 H1'         1.7826    1.9024    1.6451 H         1 GTP         0.0794
     42 H8         -0.1415    1.7265   -1.7082 H         1 GTP         0.3821
     43 HN21       -0.0303    6.7197    3.9559 H         1 GTP         0.4411
     44 HN22        0.9765    5.2967    4.1108 H         1 GTP         0.4411
     45 H45         1.1068    3.6990    2.5819 H         1 GTP         0.4819
     46 H46        -1.5877    3.7943   -1.9074 H         1 GTP         0.5182
@<TRIPOS>BOND
     1    1    2 2
     2    1    3 1
     3    1    4 1
     4    1    5 1
     5    4   33 1
     6    5    6 1
     7    6    7 2
     8    6    8 1
     9    6    9 1
    10    9   10 1
    11   10   11 2
    12   10   12 1
    13   10   13 1
    14   13   14 1
    15   14   15 1
    16   14   34 1
    17   14   35 1
    18   15   16 1
    19   15   17 1
    20   15   36 1
    21   16   21 1
    22   17   18 1
    23   17   19 1
    24   17   37 1
    25   18   38 1
    26   19   20 1
    27   19   21 1
    28   19   39 1
    29   20   40 1
    30   21   22 1
    31   21   41 1
    32   22   23 ar
    33   22   32 ar
    34   23   24 ar
    35   23   42 1
    36   24   25 ar
    37   24   46 1
    38   25   26 ar
    39   25   32 ar
    40   26   27 2
    41   26   28 ar
    42   28   29 ar
    43   29   30 1
    44   29   31 ar
    45   30   43 1
    46   30   44 1
    47   31   32 ar
    48   31   45 1
@<TRIPOS>SUBSTRUCTURE
     1 GTP         1 GROUP 0 A     ****
@<TRIPOS>MOLECULE
[[[5-(2-amino-6-oxo-7,8-dihydro-3~{H}-purin-8-ylium-9-yl)-3,4-dihydroxy-tetrahydrofuran-2-yl]methoxy-oxido-phosphoryl]oxy-oxido-phosphoryl] hydrogen phosphate
   46    48     1     0     0
SMALL
USER_CHARGES

@<TRIPOS>ATOM
      1 PG          2.4712   -4.6809   -5.8065 P.3       1 GTP         1.5447
      2 O1G         3.5837   -4.7264   -6.8300 O.co2     1 GTP        -0.8705
      3 O2G         1.5800   -5.8805   -5.5732 O.co2     1 GTP        -0.8705
      4 O3G         1.5268   -3.3874   -6.1242 O.3       1 GTP        -0.7914
      5 O3B         3.0855   -4.1921   -4.3756 O.3       1 GTP        -0.8116
      6 PB          3.9753   -2.8714   -4.0157 P.3       1 GTP         1.6738
      7 O1B         4.1720   -2.8128   -2.5173 O.co2     1 GTP        -0.8763
      8 O2B         5.1445   -2.7889   -4.9716 O.co2     1 GTP        -0.8763
      9 O3A         2.9205   -1.7124   -4.4729 O.3       1 GTP        -0.8005
     10 PA          3.0675   -0.0857   -4.4293 P.3       1 GTP         1.5754
     11 O1A         4.3144    0.3107   -5.1899 O.co2     1 GTP        -0.8771
     12 O2A         1.7243    0.5309   -4.7535 O.co2     1 GTP        -0.8771
     13 O5'         3.2903    0.1346   -2.8241 O.3       1 GTP        -0.5809
     14 C5'         2.2816   -0.2918   -1.9206 C.3       1 GTP         0.1986
     15 C4'         2.7248    0.0226   -0.4980 C.3       1 GTP         0.0418
     16 O4'         2.4697    1.4219   -0.2462 O.3       1 GTP        -0.3505
     17 C3'         1.9404   -0.7419    0.5596 C.3       1 GTP         0.0909
     18 O3'         2.7418   -0.8086    1.7389 O.3       1 GTP        -0.6187
     19 C2'         0.7477    0.1630    0.7858 C.3       1 GTP         0.0706
     20 O2'         0.1373   -0.0577    2.0407 O.3       1 GTP        -0.6294
     21 C1'         1.3733    1.5427    0.6747 C.3       1 GTP         0.3895
     22 N9          0.4520    2.5240    0.1767 N.pl3     1 GTP        -0.4733
     23 C8          0.5427    3.2356   -0.9425 C.ar      1 GTP         0.2958
     24 N7         -0.4919    4.0590   -1.1018 N.pl3     1 GTP        -0.4933
     25 C5         -1.2850    3.8484   -0.0069 C.ar      1 GTP        -0.1494
     26 C6         -2.5644    4.4707    0.3650 C.ar      1 GTP         0.7954
     27 O6         -3.0718    5.3200   -0.3599 O.2       1 GTP        -0.5729
     28 N1         -3.1239    4.0269    1.5647 N.2       1 GTP        -0.7443
     29 C2         -2.5133    3.1079    2.2858 C.ar      1 GTP         0.8831
     30 N2         -3.0239    2.6409    3.4697 N.pl3     1 GTP        -0.9204
     31 N3         -1.3076    2.5223    1.9320 N.pl3     1 GTP        -0.7173
     32 C4         -0.7246    2.9211    0.7753 C.ar      1 GTP         0.2626
     33 HOG3        0.7546   -3.2191   -5.5430 H         1 GTP         0.4102
     34 H5'         1.3514    0.2330   -2.1577 H         1 GTP         0.0289
     35 H5''        2.1280   -1.3678   -2.0460 H         1 GTP         0.0289
     36 H4'         3.8044   -0.1397   -0.4040 H         1 GTP         0.2056
     37 H3'         1.6764   -1.7639    0.2728 H         1 GTP         0.1140
     38 HO3'        2.2232   -1.2979    2.3953 H         1 GTP         0.4287
     39 H2'        -0.0011    0.0027    0.0003 H         1 GTP         0.0809
     40 HO2'       -0.1563   -0.9855    2.0596 H         1 GTP         0.4385
     41 H1'         1.7826    1.9024    1.6451 H         1 GTP         0.0794
     42 H8          1.3539    3.1622   -1.6455 H         1 GTP         0.3821
     43 HN21       -3.8871    3.0143    3.7893 H         1 GTP         0.4411
     44 HN22       -2.5108    1.9472    3.9621 H         1 GTP         0.4411
     45 H45        -0.8530    1.8168    2.4986 H         1 GTP         0.4819
     46 H46        -0.6466    4.6966   -1.8702 H         1 GTP         0.5182
@<TRIPOS>BOND
     1    1    2 2
     2    1    3 1
     3    1    4 1
     4    1    5 1
     5    4   33 1
     6    5    6 1
     7    6    7 2
     8    6    8 1
     9    6    9 1
    10    9   10 1
    11   10   11 2
    12   10   12 1
    13   10   13 1
    14   13   14 1
    15   14   15 1
    16   14   34 1
    17   14   35 1
    18   15   16 1
    19   15   17 1
    20   15   36 1
    21   16   21 1
    22   17   18 1
    23   17   19 1
    24   17   37 1
    25   18   38 1
    26   19   20 1
    27   19   21 1
    28   19   39 1
    29   20   40 1
    30   21   22 1
    31   21   41 1
    32   22   23 ar
    33   22   32 ar
    34   23   24 ar
    35   23   42 1
    36   24   25 ar
    37   24   46 1
    38   25   26 ar
    39   25   32 ar
    40   26   27 2
    41   26   28 ar
    42   28   29 ar
    43   29   30 1
    44   29   31 ar
    45   30   43 1
    46   30   44 1
    47   31   32 ar
    48   31   45 1
@<TRIPOS>SUBSTRUCTURE
     1 GTP         1 GROUP 0 A     ****
@<TRIPOS>MOLECULE
[[[5-(2-amino-6-oxo-7,8-dihydro-3~{H}-purin-8-ylium-9-yl)-3,4-dihydroxy-tetrahydrofuran-2-yl]methoxy-oxido-phosphoryl]oxy-oxido-phosphoryl] hydrogen phosphate
   46    48     1     0     0
SMALL
USER_CHARGES

@<TRIPOS>ATOM
      1 PG          1.5859   -1.5993   -8.1849 P.3       1 GTP         1.5447
      2 O1G         0.6776   -0.5363   -8.7614 O.co2     1 GTP        -0.8705
      3 O2G         3.0870   -1.5110   -8.3479 O.co2     1 GTP        -0.8705
      4 O3G         1.0901   -3.0564   -8.7299 O.3       1 GTP        -0.7914
      5 O3B         1.2363   -1.7958   -6.6028 O.3       1 GTP        -0.8116
      6 PB          2.1603   -2.3856   -5.3929 P.3       1 GTP         1.6738
      7 O1B         2.4346   -3.8485   -5.6614 O.co2     1 GTP        -0.8763
      8 O2B         3.2796   -1.4097   -5.1064 O.co2     1 GTP        -0.8763
      9 O3A         1.0982   -2.2471   -4.1610 O.3       1 GTP        -0.8005
     10 PA          1.2681   -2.6345   -2.5827 P.3       1 GTP         1.5754
     11 O1A         0.0218   -2.2049   -1.8394 O.co2     1 GTP        -0.8771
     12 O2A         1.7874   -4.0524   -2.4852 O.co2     1 GTP        -0.8771
     13 O5'         2.5245   -1.6648   -2.1878 O.3       1 GTP        -0.5809
     14 C5'         2.2816   -0.2918   -1.9206 C.3       1 GTP         0.1986
     15 C4'         2.7248    0.0226   -0.4980 C.3       1 GTP         0.0418
     16 O4'         2.4697    1.4219   -0.2462 O.3       1 GTP        -0.3505
     17 C3'         1.9404   -0.7419    0.5596 C.3       1 GTP         0.0909
     18 O3'         2.7418   -0.8086    1.7389 O.3       1 GTP        -0.6187
     19 C2'         0.7477    0.1630    0.7858 C.3       1 GTP         0.0706
     20 O2'         0.1373   -0.0577    2.0407 O.3       1 GTP        -0.6294
     21 C1'         1.3733    1.5427    0.6747 C.3       1 GTP         0.3895
     22 N9          0.4520    2.5240    0.1767 N.pl3     1 GTP        -0.4733
     23 C8          0.2012    2.8401   -1.0899 C.ar      1 GTP         0.2958
     24 N7         -0.7168    3.7990   -1.1981 N.pl3     1 GTP        -0.4933
     25 C5         -1.0645    4.1043    0.0896 C.ar      1 GTP        -0.1494
     26 C6         -2.0336    5.0870    0.5973 C.ar      1 GTP         0.7954
     27 O6         -2.6730    5.7839   -0.1834 O.2       1 GTP        -0.5729
     28 N1         -2.1539    5.1517    1.9868 N.2       1 GTP        -0.7443
     29 C2         -1.4288    4.3650    2.7566 C.ar      1 GTP         0.8831
     30 N2         -1.5126    4.3922    4.1250 N.pl3     1 GTP        -0.9204
     31 N3         -0.5167    3.4388    2.2748 N.pl3     1 GTP        -0.7173
     32 C4         -0.3638    3.3392    0.9318 C.ar      1 GTP         0.2626
     33 HOG3        1.5825   -3.8546   -8.4425 H         1 GTP         0.4102
     34 H5'         2.8432    0.3119   -2.6398 H         1 GTP         0.0289
     35 H5''        1.2128   -0.0927   -2.0428 H         1 GTP         0.0289
     36 H4'         3.8044   -0.1397   -0.4040 H         1 GTP         0.2056
     37 H3'         1.6764   -1.7639    0.2728 H         1 GTP         0.1140
     38 HO3'        2.2232   -1.2979    2.3953 H         1 GTP         0.4287
     39 H2'        -0.0011    0.0027    0.0003 H         1 GTP         0.0809
     40 HO2'       -0.6141    0.5574    2.1082 H         1 GTP         0.4385
     41 H1'         1.7826    1.9024    1.6451 H         1 GTP         0.0794
     42 H8          0.6787    2.3803   -1.9373 H         1 GTP         0.3821
     43 HN21       -2.1462    5.0320    4.5446 H         1 GTP         0.4411
     44 HN22       -0.9365    3.7712    4.6440 H         1 GTP         0.4411
     45 H45         0.0318    2.8419    2.8816 H         1 GTP         0.4819
     46 H46        -1.0718    4.2049   -2.0526 H         1 GTP         0.5182
@<TRIPOS>BOND
     1    1    2 2
     2    1    3 1
     3    1    4 1
     4    1    5 1
     5    4   33 1
     6    5    6 1
     7    6    7 2
     8    6    8 1
     9    6    9 1
    10    9   10 1
    11   10   11 2
    12   10   12 1
    13   10   13 1
    14   13   14 1
    15   14   15 1
    16   14   34 1
    17   14   35 1
    18   15   16 1
    19   15   17 1
    20   15   36 1
    21   16   21 1
    22   17   18 1
    23   17   19 1
    24   17   37 1
    25   18   38 1
    26   19   20 1
    27   19   21 1
    28   19   39 1
    29   20   40 1
    30   21   22 1
    31   21   41 1
    32   22   23 ar
    33   22   32 ar
    34   23   24 ar
    35   23   42 1
    36   24   25 ar
    37   24   46 1
    38   25   26 ar
    39   25   32 ar
    40   26   27 2
    41   26   28 ar
    42   28   29 ar
    43   29   30 1
    44   29   31 ar
    45   30   43 1
    46   30   44 1
    47   31   32 ar
    48   31   45 1
@<TRIPOS>SUBSTRUCTURE
     1 GTP         1 GROUP 0 A     ****
@<TRIPOS>MOLECULE
[[[5-(2-amino-6-oxo-7,8-dihydro-3~{H}-purin-8-ylium-9-yl)-3,4-dihydroxy-tetrahydrofuran-2-yl]methoxy-oxido-phosphoryl]oxy-oxido-phosphoryl] hydrogen phosphate
   46    48     1     0     0
SMALL
USER_CHARGES

@<TRIPOS>ATOM
      1 PG          2.3109   -4.2900   -6.4652 P.3       1 GTP         1.5447
      2 O1G         3.1111   -5.0880   -5.4601 O.co2     1 GTP        -0.8705
      3 O2G         1.0174   -4.8300   -7.0337 O.co2     1 GTP        -0.8705
      4 O3G         3.2927   -3.8842   -7.7051 O.3       1 GTP        -0.7914
      5 O3B         2.0419   -2.7965   -5.8646 O.3       1 GTP        -0.8116
      6 PB          3.0987   -1.6996   -5.2766 P.3       1 GTP         1.6738
      7 O1B         3.7184   -2.2526   -4.0125 O.co2     1 GTP        -0.8763
      8 O2B         3.9497   -1.1765   -6.4122 O.co2     1 GTP        -0.8763
      9 O3A         2.0523   -0.5065   -4.8941 O.3       1 GTP        -0.8005
     10 PA          2.3336    0.9636   -4.2390 P.3       1 GTP         1.5754
     11 O1A         3.3392    1.6960   -5.1008 O.co2     1 GTP        -0.8771
     12 O2A         1.0067    1.5946   -3.8772 O.co2     1 GTP        -0.8771
     13 O5'         3.0213    0.5153   -2.8245 O.3       1 GTP        -0.5809
     14 C5'         2.2816   -0.2918   -1.9206 C.3       1 GTP         0.1986
     15 C4'         2.7248    0.0226   -0.4980 C.3       1 GTP         0.0418
     16 O4'         2.4697    1.4219   -0.2462 O.3       1 GTP        -0.3505
     17 C3'         1.9404   -0.7419    0.5596 C.3       1 GTP         0.0909
     18 O3'         2.7418   -0.8086    1.7389 O.3       1 GTP        -0.6187
     19 C2'         0.7477    0.1630    0.7858 C.3       1 GTP         0.0706
     20 O2'         0.1373   -0.0577    2.0407 O.3       1 GTP        -0.6294
     21 C1'         1.3733    1.5427    0.6747 C.3       1 GTP         0.3895
     22 N9          0.4520    2.5240    0.1767 N.pl3     1 GTP        -0.4733
     23 C8          0.5427    3.2356   -0.9425 C.ar      1 GTP         0.2958
     24 N7         -0.4919    4.0590   -1.1018 N.pl3     1 GTP        -0.4933
     25 C5         -1.2850    3.8484   -0.0069 C.ar      1 GTP        -0.1494
     26 C6         -2.5644    4.4707    0.3650 C.ar      1 GTP         0.7954
     27 O6         -3.0718    5.3200   -0.3599 O.2       1 GTP        -0.5729
     28 N1         -3.1239    4.0269    1.5647 N.2       1 GTP        -0.7443
     29 C2         -2.5133    3.1079    2.2858 C.ar      1 GTP         0.8831
     30 N2         -3.0239    2.6409    3.4697 N.pl3     1 GTP        -0.9204
     31 N3         -1.3076    2.5223    1.9320 N.pl3     1 GTP        -0.7173
     32 C4         -0.7246    2.9211    0.7753 C.ar      1 GTP         0.2626
     33 HOG3        2.9182   -3.3599   -8.4448 H         1 GTP         0.4102
     34 H5'         1.2163   -0.0770   -2.0471 H         1 GTP         0.0289
     35 H5''        2.4655   -1.3443   -2.1563 H         1 GTP         0.0289
     36 H4'         3.8044   -0.1397   -0.4040 H         1 GTP         0.2056
     37 H3'         1.6764   -1.7639    0.2728 H         1 GTP         0.1140
     38 HO3'        2.2232   -1.2979    2.3953 H         1 GTP         0.4287
     39 H2'        -0.0011    0.0027    0.0003 H         1 GTP         0.0809
     40 HO2'       -0.1563   -0.9855    2.0596 H         1 GTP         0.4385
     41 H1'         1.7826    1.9024    1.6451 H         1 GTP         0.0794
     42 H8          1.3539    3.1622   -1.6455 H         1 GTP         0.3821
     43 HN21       -3.8871    3.0143    3.7893 H         1 GTP         0.4411
     44 HN22       -2.5108    1.9472    3.9621 H         1 GTP         0.4411
     45 H45        -0.8530    1.8168    2.4986 H         1 GTP         0.4819
     46 H46        -0.6466    4.6966   -1.8702 H         1 GTP         0.5182
@<TRIPOS>BOND
     1    1    2 2
     2    1    3 1
     3    1    4 1
     4    1    5 1
     5    4   33 1
     6    5    6 1
     7    6    7 2
     8    6    8 1
     9    6    9 1
    10    9   10 1
    11   10   11 2
    12   10   12 1
    13   10   13 1
    14   13   14 1
    15   14   15 1
    16   14   34 1
    17   14   35 1
    18   15   16 1
    19   15   17 1
    20   15   36 1
    21   16   21 1
    22   17   18 1
    23   17   19 1
    24   17   37 1
    25   18   38 1
    26   19   20 1
    27   19   21 1
    28   19   39 1
    29   20   40 1
    30   21   22 1
    31   21   41 1
    32   22   23 ar
    33   22   32 ar
    34   23   24 ar
    35   23   42 1
    36   24   25 ar
    37   24   46 1
    38   25   26 ar
    39   25   32 ar
    40   26   27 2
    41   26   28 ar
    42   28   29 ar
    43   29   30 1
    44   29   31 ar
    45   30   43 1
    46   30   44 1
    47   31   32 ar
    48   31   45 1
@<TRIPOS>SUBSTRUCTURE
     1 GTP         1 GROUP 0 A     ****
@<TRIPOS>MOLECULE
[[[5-(2-amino-6-oxo-7,8-dihydro-3~{H}-purin-8-ylium-9-yl)-3,4-dihydroxy-tetrahydrofuran-2-yl]methoxy-oxido-phosphoryl]oxy-oxido-phosphoryl] hydrogen phosphate
   46    48     1     0     0
SMALL
USER_CHARGES

@<TRIPOS>ATOM
      1 PG          4.4835   -4.6250   -5.7444 P.3       1 GTP         1.5447
      2 O1G         2.9922   -4.4519   -5.9272 O.co2     1 GTP        -0.8705
      3 O2G         5.4376   -4.4162   -6.8993 O.co2     1 GTP        -0.8705
      4 O3G         4.7596   -6.1015   -5.1042 O.3       1 GTP        -0.7914
      5 O3B         4.9733   -3.7135   -4.4822 O.3       1 GTP        -0.8116
      6 PB          5.0152   -2.0896   -4.3188 P.3       1 GTP         1.6738
      7 O1B         5.4233   -1.7553   -2.9013 O.co2     1 GTP        -0.8763
      8 O2B         5.7301   -1.4922   -5.5102 O.co2     1 GTP        -0.8763
      9 O3A         3.4281   -1.7650   -4.5203 O.3       1 GTP        -0.8005
     10 PA          2.1372   -2.2718   -3.6563 P.3       1 GTP         1.5754
     11 O1A         0.8958   -1.5923   -4.1925 O.co2     1 GTP        -0.8771
     12 O2A         2.2074   -3.7770   -3.5183 O.co2     1 GTP        -0.8771
     13 O5'         2.5245   -1.6648   -2.1878 O.3       1 GTP        -0.5809
     14 C5'         2.2816   -0.2918   -1.9206 C.3       1 GTP         0.1986
     15 C4'         2.7248    0.0226   -0.4980 C.3       1 GTP         0.0418
     16 O4'         2.4697    1.4219   -0.2462 O.3       1 GTP        -0.3505
     17 C3'         1.9404   -0.7419    0.5596 C.3       1 GTP         0.0909
     18 O3'         2.7418   -0.8086    1.7389 O.3       1 GTP        -0.6187
     19 C2'         0.7477    0.1630    0.7858 C.3       1 GTP         0.0706
     20 O2'         0.1373   -0.0577    2.0407 O.3       1 GTP        -0.6294
     21 C1'         1.3733    1.5427    0.6747 C.3       1 GTP         0.3895
     22 N9          0.4520    2.5240    0.1767 N.pl3     1 GTP        -0.4733
     23 C8          0.2012    2.8401   -1.0899 C.ar      1 GTP         0.2958
     24 N7         -0.7168    3.7990   -1.1981 N.pl3     1 GTP        -0.4933
     25 C5         -1.0645    4.1043    0.0896 C.ar      1 GTP        -0.1494
     26 C6         -2.0336    5.0870    0.5973 C.ar      1 GTP         0.7954
     27 O6         -2.6730    5.7839   -0.1834 O.2       1 GTP        -0.5729
     28 N1         -2.1539    5.1517    1.9868 N.2       1 GTP        -0.7443
     29 C2         -1.4288    4.3650    2.7566 C.ar      1 GTP         0.8831
     30 N2         -1.5126    4.3922    4.1250 N.pl3     1 GTP        -0.9204
     31 N3         -0.5167    3.4388    2.2748 N.pl3     1 GTP        -0.7173
     32 C4         -0.3638    3.3392    0.9318 C.ar      1 GTP         0.2626
     33 HOG3        5.6868   -6.3665   -4.9245 H         1 GTP         0.4102
     34 H5'         2.8432    0.3119   -2.6398 H         1 GTP         0.0289
     35 H5''        1.2128   -0.0927   -2.0428 H         1 GTP         0.0289
     36 H4'         3.8044   -0.1397   -0.4040 H         1 GTP         0.2056
     37 H3'         1.6764   -1.7639    0.2728 H         1 GTP         0.1140
     38 HO3'        3.5554   -1.2733    1.4914 H         1 GTP         0.4287
     39 H2'        -0.0011    0.0027    0.0003 H         1 GTP         0.0809
     40 HO2'       -0.1563   -0.9855    2.0596 H         1 GTP         0.4385
     41 H1'         1.7826    1.9024    1.6451 H         1 GTP         0.0794
     42 H8          0.6787    2.3803   -1.9373 H         1 GTP         0.3821
     43 HN21       -2.1462    5.0320    4.5446 H         1 GTP         0.4411
     44 HN22       -0.9365    3.7712    4.6440 H         1 GTP         0.4411
     45 H45         0.0318    2.8419    2.8816 H         1 GTP         0.4819
     46 H46        -1.0718    4.2049   -2.0526 H         1 GTP         0.5182
@<TRIPOS>BOND
     1    1    2 2
     2    1    3 1
     3    1    4 1
     4    1    5 1
     5    4   33 1
     6    5    6 1
     7    6    7 2
     8    6    8 1
     9    6    9 1
    10    9   10 1
    11   10   11 2
    12   10   12 1
    13   10   13 1
    14   13   14 1
    15   14   15 1
    16   14   34 1
    17   14   35 1
    18   15   16 1
    19   15   17 1
    20   15   36 1
    21   16   21 1
    22   17   18 1
    23   17   19 1
    24   17   37 1
    25   18   38 1
    26   19   20 1
    27   19   21 1
    28   19   39 1
    29   20   40 1
    30   21   22 1
    31   21   41 1
    32   22   23 ar
    33   22   32 ar
    34   23   24 ar
    35   23   42 1
    36   24   25 ar
    37   24   46 1
    38   25   26 ar
    39   25   32 ar
    40   26   27 2
    41   26   28 ar
    42   28   29 ar
    43   29   30 1
    44   29   31 ar
    45   30   43 1
    46   30   44 1
    47   31   32 ar
    48   31   45 1
@<TRIPOS>SUBSTRUCTURE
     1 GTP         1 GROUP 0 A     ****
@<TRIPOS>MOLECULE
[[[5-(2-amino-6-oxo-7,8-dihydro-3~{H}-purin-8-ylium-9-yl)-3,4-dihydroxy-tetrahydrofuran-2-yl]methoxy-oxido-phosphoryl]oxy-oxido-phosphoryl] hydrogen phosphate
   46    48     1     0     0
SMALL
USER_CHARGES

@<TRIPOS>ATOM
      1 PG          3.5532   -1.5291   -7.8597 P.3       1 GTP         1.5447
      2 O1G         2.4220   -2.0871   -8.6943 O.co2     1 GTP        -0.8705
      3 O2G         4.7024   -0.7870   -8.5049 O.co2     1 GTP        -0.8705
      4 O3G         4.1639   -2.7337   -6.9422 O.3       1 GTP        -0.7914
      5 O3B         2.9286   -0.6044   -6.6687 O.3       1 GTP        -0.8116
      6 PB          1.7878   -0.9613   -5.5565 P.3       1 GTP         1.6738
      7 O1B         0.4719   -1.1874   -6.2671 O.co2     1 GTP        -0.8763
      8 O2B         2.3471   -1.9760   -4.5843 O.co2     1 GTP        -0.8763
      9 O3A         1.7410    0.4642   -4.7626 O.3       1 GTP        -0.8005
     10 PA          2.9232    1.2546   -3.9579 P.3       1 GTP         1.5754
     11 O1A         4.0962    1.4572   -4.8924 O.co2     1 GTP        -0.8771
     12 O2A         2.3071    2.4181   -3.2121 O.co2     1 GTP        -0.8771
     13 O5'         3.2903    0.1346   -2.8241 O.3       1 GTP        -0.5809
     14 C5'         2.2816   -0.2918   -1.9206 C.3       1 GTP         0.1986
     15 C4'         2.7248    0.0226   -0.4980 C.3       1 GTP         0.0418
     16 O4'         2.4697    1.4219   -0.2462 O.3       1 GTP        -0.3505
     17 C3'         1.9404   -0.7419    0.5596 C.3       1 GTP         0.0909
     18 O3'         2.7418   -0.8086    1.7389 O.3       1 GTP        -0.6187
     19 C2'         0.7477    0.1630    0.7858 C.3       1 GTP         0.0706
     20 O2'         0.1373   -0.0577    2.0407 O.3       1 GTP        -0.6294
     21 C1'         1.3733    1.5427    0.6747 C.3       1 GTP         0.3895
     22 N9          0.4520    2.5240    0.1767 N.pl3     1 GTP        -0.4733
     23 C8         -0.2136    2.5096   -0.9739 C.ar      1 GTP         0.2958
     24 N7         -0.9896    3.5820   -1.1212 N.pl3     1 GTP        -0.4933
     25 C5         -0.7962    4.3186    0.0156 C.ar      1 GTP        -0.1494
     26 C6         -1.3875    5.6031    0.4192 C.ar      1 GTP         0.7954
     27 O6         -2.1869    6.1731   -0.3158 O.2       1 GTP        -0.5729
     28 N1         -0.9745    6.0930    1.6597 N.2       1 GTP        -0.7443
     29 C2         -0.1105    5.4166    2.3900 C.ar      1 GTP         0.8831
     30 N2          0.3241    5.8571    3.6138 N.pl3     1 GTP        -0.9204
     31 N3          0.4444    4.2053    2.0072 N.pl3     1 GTP        -0.7173
     32 C4          0.0746    3.6889    0.8098 C.ar      1 GTP         0.2626
     33 HOG3        4.9110   -2.5293   -6.3401 H         1 GTP         0.4102
     34 H5'         1.3514    0.2330   -2.1577 H         1 GTP         0.0289
     35 H5''        2.1280   -1.3678   -2.0460 H         1 GTP         0.0289
     36 H4'         3.8044   -0.1397   -0.4040 H         1 GTP         0.2056
     37 H3'         1.6764   -1.7639    0.2728 H         1 GTP         0.1140
     38 HO3'        2.2232   -1.2979    2.3953 H         1 GTP         0.4287
     39 H2'        -0.0011    0.0027    0.0003 H         1 GTP         0.0809
     40 HO2'       -0.6141    0.5574    2.1082 H         1 GTP         0.4385
     41 H1'         1.7826    1.9024    1.6451 H         1 GTP         0.0794
     42 H8         -0.1415    1.7265   -1.7082 H         1 GTP         0.3821
     43 HN21       -0.0303    6.7197    3.9559 H         1 GTP         0.4411
     44 HN22        0.9765    5.2967    4.1108 H         1 GTP         0.4411
     45 H45         1.1068    3.6990    2.5819 H         1 GTP         0.4819
     46 H46        -1.5877    3.7943   -1.9074 H         1 GTP         0.5182
@<TRIPOS>BOND
     1    1    2 2
     2    1    3 1
     3    1    4 1
     4    1    5 1
     5    4   33 1
     6    5    6 1
     7    6    7 2
     8    6    8 1
     9    6    9 1
    10    9   10 1
    11   10   11 2
    12   10   12 1
    13   10   13 1
    14   13   14 1
    15   14   15 1
    16   14   34 1
    17   14   35 1
    18   15   16 1
    19   15   17 1
    20   15   36 1
    21   16   21 1
    22   17   18 1
    23   17   19 1
    24   17   37 1
    25   18   38 1
    26   19   20 1
    27   19   21 1
    28   19   39 1
    29   20   40 1
    30   21   22 1
    31   21   41 1
    32   22   23 ar
    33   22   32 ar
    34   23   24 ar
    35   23   42 1
    36   24   25 ar
    37   24   46 1
    38   25   26 ar
    39   25   32 ar
    40   26   27 2
    41   26   28 ar
    42   28   29 ar
    43   29   30 1
    44   29   31 ar
    45   30   43 1
    46   30   44 1
    47   31   32 ar
    48   31   45 1
@<TRIPOS>SUBSTRUCTURE
     1 GTP         1 GROUP 0 A     ****
@<TRIPOS>MOLECULE
[[[5-(2-amino-6-oxo-7,8-dihydro-3~{H}-purin-8-ylium-9-yl)-3,4-dihydroxy-tetrahydrofuran-2-yl]methoxy-oxido-phosphoryl]oxy-oxido-phosphoryl] hydrogen phosphate
   46    48     1     0     0
SMALL
USER_CHARGES

@<TRIPOS>ATOM
      1 PG          0.0153   -3.2426   -4.9323 P.3       1 GTP         1.5447
      2 O1G        -1.3052   -2.5074   -4.9884 O.co2     1 GTP        -0.8705
      3 O2G         0.0683   -4.7522   -5.0108 O.co2     1 GTP        -0.8705
      4 O3G         0.8187   -2.7645   -3.5937 O.3       1 GTP        -0.7914
      5 O3B         1.0187   -2.6188   -6.0582 O.3       1 GTP        -0.8116
      6 PB          1.4668   -1.0703   -6.3172 P.3       1 GTP         1.6738
      7 O1B         2.5240   -1.0459   -7.3984 O.co2     1 GTP        -0.8763
      8 O2B         0.2284   -0.2060   -6.4010 O.co2     1 GTP        -0.8763
      9 O3A         2.1568   -0.7522   -4.8724 O.3       1 GTP        -0.8005
     10 PA          2.8621    0.6170   -4.3270 P.3       1 GTP         1.5754
     11 O1A         4.0956    0.8937   -5.1591 O.co2     1 GTP        -0.8771
     12 O2A         1.7927    1.6709   -4.1390 O.co2     1 GTP        -0.8771
     13 O5'         3.2903    0.1346   -2.8241 O.3       1 GTP        -0.5809
     14 C5'         2.2816   -0.2918   -1.9206 C.3       1 GTP         0.1986
     15 C4'         2.7248    0.0226   -0.4980 C.3       1 GTP         0.0418
     16 O4'         2.4697    1.4219   -0.2462 O.3       1 GTP        -0.3505
     17 C3'         1.9404   -0.7419    0.5596 C.3       1 GTP         0.0909
     18 O3'         2.7418   -0.8086    1.7389 O.3       1 GTP        -0.6187
     19 C2'         0.7477    0.1630    0.7858 C.3       1 GTP         0.0706
     20 O2'         0.1373   -0.0577    2.0407 O.3       1 GTP        -0.6294
     21 C1'         1.3733    1.5427    0.6747 C.3       1 GTP         0.3895
     22 N9          0.4520    2.5240    0.1767 N.pl3     1 GTP        -0.4733
     23 C8         -0.2136    2.5096   -0.9739 C.ar      1 GTP         0.2958
     24 N7         -0.9896    3.5820   -1.1212 N.pl3     1 GTP        -0.4933
     25 C5         -0.7962    4.3186    0.0156 C.ar      1 GTP        -0.1494
     26 C6         -1.3875    5.6031    0.4192 C.ar      1 GTP         0.7954
     27 O6         -2.1869    6.1731   -0.3158 O.2       1 GTP        -0.5729
     28 N1         -0.9745    6.0930    1.6597 N.2       1 GTP        -0.7443
     29 C2         -0.1105    5.4166    2.3900 C.ar      1 GTP         0.8831
     30 N2          0.3241    5.8571    3.6138 N.pl3     1 GTP        -0.9204
     31 N3          0.4444    4.2053    2.0072 N.pl3     1 GTP        -0.7173
     32 C4          0.0746    3.6889    0.8098 C.ar      1 GTP         0.2626
     33 HOG3        1.7006   -3.1547   -3.4142 H         1 GTP         0.4102
     34 H5'         1.3514    0.2330   -2.1577 H         1 GTP         0.0289
     35 H5''        2.1280   -1.3678   -2.0460 H         1 GTP         0.0289
     36 H4'         3.8044   -0.1397   -0.4040 H         1 GTP         0.2056
     37 H3'         1.6764   -1.7639    0.2728 H         1 GTP         0.1140
     38 HO3'        2.2232   -1.2979    2.3953 H         1 GTP         0.4287
     39 H2'        -0.0011    0.0027    0.0003 H         1 GTP         0.0809
     40 HO2'       -0.6141    0.5574    2.1082 H         1 GTP         0.4385
     41 H1'         1.7826    1.9024    1.6451 H         1 GTP         0.0794
     42 H8         -0.1415    1.7265   -1.7082 H         1 GTP         0.3821
     43 HN21       -0.0303    6.7197    3.9559 H         1 GTP         0.4411
     44 HN22        0.9765    5.2967    4.1108 H         1 GTP         0.4411
     45 H45         1.1068    3.6990    2.5819 H         1 GTP         0.4819
     46 H46        -1.5877    3.7943   -1.9074 H         1 GTP         0.5182
@<TRIPOS>BOND
     1    1    2 2
     2    1    3 1
     3    1    4 1
     4    1    5 1
     5    4   33 1
     6    5    6 1
     7    6    7 2
     8    6    8 1
     9    6    9 1
    10    9   10 1
    11   10   11 2
    12   10   12 1
    13   10   13 1
    14   13   14 1
    15   14   15 1
    16   14   34 1
    17   14   35 1
    18   15   16 1
    19   15   17 1
    20   15   36 1
    21   16   21 1
    22   17   18 1
    23   17   19 1
    24   17   37 1
    25   18   38 1
    26   19   20 1
    27   19   21 1
    28   19   39 1
    29   20   40 1
    30   21   22 1
    31   21   41 1
    32   22   23 ar
    33   22   32 ar
    34   23   24 ar
    35   23   42 1
    36   24   25 ar
    37   24   46 1
    38   25   26 ar
    39   25   32 ar
    40   26   27 2
    41   26   28 ar
    42   28   29 ar
    43   29   30 1
    44   29   31 ar
    45   30   43 1
    46   30   44 1
    47   31   32 ar
    48   31   45 1
@<TRIPOS>SUBSTRUCTURE
     1 GTP         1 GROUP 0 A     ****
@<TRIPOS>MOLECULE
[[[5-(2-amino-6-oxo-7,8-dihydro-3~{H}-purin-8-ylium-9-yl)-3,4-dihydroxy-tetrahydrofuran-2-yl]methoxy-oxido-phosphoryl]oxy-oxido-phosphoryl] hydrogen phosphate
   46    48     1     0     0
SMALL
USER_CHARGES

@<TRIPOS>ATOM
      1 PG          5.0498   -0.5520   -8.5740 P.3       1 GTP         1.5447
      2 O1G         6.0853    0.5384   -8.7362 O.co2     1 GTP        -0.8705
      3 O2G         5.3460   -1.9740   -8.9957 O.co2     1 GTP        -0.8705
      4 O3G         3.6712   -0.0710   -9.3048 O.3       1 GTP        -0.7914
      5 O3B         4.5215   -0.5573   -7.0298 O.3       1 GTP        -0.8116
      6 PB          3.8313   -1.7576   -6.1646 P.3       1 GTP         1.6738
      7 O1B         2.4876   -2.0855   -6.7766 O.co2     1 GTP        -0.8763
      8 O2B         4.8634   -2.8308   -5.8992 O.co2     1 GTP        -0.8763
      9 O3A         3.6096   -0.9687   -4.7528 O.3       1 GTP        -0.8005
     10 PA          2.7407    0.3769   -4.4297 P.3       1 GTP         1.5754
     11 O1A         3.3568    1.5435   -5.1712 O.co2     1 GTP        -0.8771
     12 O2A         1.2702    0.0493   -4.5704 O.co2     1 GTP        -0.8771
     13 O5'         3.0213    0.5153   -2.8245 O.3       1 GTP        -0.5809
     14 C5'         2.2816   -0.2918   -1.9206 C.3       1 GTP         0.1986
     15 C4'         2.7248    0.0226   -0.4980 C.3       1 GTP         0.0418
     16 O4'         2.4697    1.4219   -0.2462 O.3       1 GTP        -0.3505
     17 C3'         1.9404   -0.7419    0.5596 C.3       1 GTP         0.0909
     18 O3'         2.7418   -0.8086    1.7389 O.3       1 GTP        -0.6187
     19 C2'         0.7477    0.1630    0.7858 C.3       1 GTP         0.0706
     20 O2'         0.1373   -0.0577    2.0407 O.3       1 GTP        -0.6294
     21 C1'         1.3733    1.5427    0.6747 C.3       1 GTP         0.3895
     22 N9          0.4520    2.5240    0.1767 N.pl3     1 GTP        -0.4733
     23 C8         -0.2136    2.5096   -0.9739 C.ar      1 GTP         0.2958
     24 N7         -0.9896    3.5820   -1.1212 N.pl3     1 GTP        -0.4933
     25 C5         -0.7962    4.3186    0.0156 C.ar      1 GTP        -0.1494
     26 C6         -1.3875    5.6031    0.4192 C.ar      1 GTP         0.7954
     27 O6         -2.1869    6.1731   -0.3158 O.2       1 GTP        -0.5729
     28 N1         -0.9745    6.0930    1.6597 N.2       1 GTP        -0.7443
     29 C2         -0.1105    5.4166    2.3900 C.ar      1 GTP         0.8831
     30 N2          0.3241    5.8571    3.6138 N.pl3     1 GTP        -0.9204
     31 N3          0.4444    4.2053    2.0072 N.pl3     1 GTP        -0.7173
     32 C4          0.0746    3.6889    0.8098 C.ar      1 GTP         0.2626
     33 HOG3        2.8981   -0.6746   -9.2868 H         1 GTP         0.4102
     34 H5'         1.2163   -0.0770   -2.0471 H         1 GTP         0.0289
     35 H5''        2.4655   -1.3443   -2.1563 H         1 GTP         0.0289
     36 H4'         3.8044   -0.1397   -0.4040 H         1 GTP         0.2056
     37 H3'         1.6764   -1.7639    0.2728 H         1 GTP         0.1140
     38 HO3'        2.2232   -1.2979    2.3953 H         1 GTP         0.4287
     39 H2'        -0.0011    0.0027    0.0003 H         1 GTP         0.0809
     40 HO2'       -0.1563   -0.9855    2.0596 H         1 GTP         0.4385
     41 H1'         1.7826    1.9024    1.6451 H         1 GTP         0.0794
     42 H8         -0.1415    1.7265   -1.7082 H         1 GTP         0.3821
     43 HN21       -0.0303    6.7197    3.9559 H         1 GTP         0.4411
     44 HN22        0.9765    5.2967    4.1108 H         1 GTP         0.4411
     45 H45         1.1068    3.6990    2.5819 H         1 GTP         0.4819
     46 H46        -1.5877    3.7943   -1.9074 H         1 GTP         0.5182
@<TRIPOS>BOND
     1    1    2 2
     2    1    3 1
     3    1    4 1
     4    1    5 1
     5    4   33 1
     6    5    6 1
     7    6    7 2
     8    6    8 1
     9    6    9 1
    10    9   10 1
    11   10   11 2
    12   10   12 1
    13   10   13 1
    14   13   14 1
    15   14   15 1
    16   14   34 1
    17   14   35 1
    18   15   16 1
    19   15   17 1
    20   15   36 1
    21   16   21 1
    22   17   18 1
    23   17   19 1
    24   17   37 1
    25   18   38 1
    26   19   20 1
    27   19   21 1
    28   19   39 1
    29   20   40 1
    30   21   22 1
    31   21   41 1
    32   22   23 ar
    33   22   32 ar
    34   23   24 ar
    35   23   42 1
    36   24   25 ar
    37   24   46 1
    38   25   26 ar
    39   25   32 ar
    40   26   27 2
    41   26   28 ar
    42   28   29 ar
    43   29   30 1
    44   29   31 ar
    45   30   43 1
    46   30   44 1
    47   31   32 ar
    48   31   45 1
@<TRIPOS>SUBSTRUCTURE
     1 GTP         1 GROUP 0 A     ****
@<TRIPOS>MOLECULE
[[[5-(2-amino-6-oxo-7,8-dihydro-3~{H}-purin-8-ylium-9-yl)-3,4-dihydroxy-tetrahydrofuran-2-yl]methoxy-oxido-phosphoryl]oxy-oxido-phosphoryl] hydrogen phosphate
   46    48     1     0     0
SMALL
USER_CHARGES

@<TRIPOS>ATOM
      1 PG         -4.5278   -8.7942    1.7561 P.3       1 GTP         1.5447
      2 O1G        -4.3499  -10.0555    0.9407 O.co2     1 GTP        -0.8705
      3 O2G        -3.9447   -8.6790    3.1469 O.co2     1 GTP        -0.8705
      4 O3G        -6.1212   -8.4457    1.8315 O.3       1 GTP        -0.7914
      5 O3B        -4.0373   -7.5148    0.8693 O.3       1 GTP        -0.8116
      6 PB         -4.1458   -5.9174    1.1889 P.3       1 GTP         1.6738
      7 O1B        -3.4151   -5.1555    0.1058 O.co2     1 GTP        -0.8763
      8 O2B        -5.5726   -5.5855    1.5654 O.co2     1 GTP        -0.8763
      9 O3A        -3.2784   -5.8672    2.5709 O.3       1 GTP        -0.8005
     10 PA         -1.7207   -6.2770    2.8455 P.3       1 GTP         1.5754
     11 O1A        -1.3736   -5.9369    4.2788 O.co2     1 GTP        -0.8771
     12 O2A        -1.4795   -7.6638    2.2902 O.co2     1 GTP        -0.8771
     13 O5'        -0.9724   -5.2440    1.8220 O.3       1 GTP        -0.5809
     14 C5'        -0.7840   -3.8935    2.2172 C.3       1 GTP         0.1986
     15 C4'        -0.0724   -3.1466    1.1027 C.3       1 GTP         0.0418
     16 O4'        -0.8674   -3.1929   -0.0945 O.3       1 GTP        -0.3505
     17 C3'         0.1338   -1.6715    1.4027 C.3       1 GTP         0.0909
     18 O3'         1.2893   -1.4445    2.1808 O.3       1 GTP        -0.6187
     19 C2'         0.2158   -1.0724    0.0128 C.3       1 GTP         0.0706
     20 O2'         1.5141   -1.2448   -0.5513 O.3       1 GTP        -0.6294
     21 C1'        -0.7897   -1.9176   -0.7583 C.3       1 GTP         0.3895
     22 N9         -2.1040   -1.3333   -0.7704 N.pl3     1 GTP        -0.4733
     23 C8         -3.0774   -1.4939    0.1205 C.ar      1 GTP         0.2958
     24 N7         -4.1709   -0.8031   -0.1972 N.pl3     1 GTP        -0.4933
     25 C5         -3.8606   -0.1662   -1.3678 C.ar      1 GTP        -0.1494
     26 C6         -4.6738    0.7391   -2.1934 C.ar      1 GTP         0.7954
     27 O6         -5.8186    1.0214   -1.8562 O.2       1 GTP        -0.5729
     28 N1         -4.0520    1.2260   -3.3448 N.2       1 GTP        -0.7443
     29 C2         -2.8155    0.8734   -3.6351 C.ar      1 GTP         0.8831
     30 N2         -2.1637    1.3257   -4.7536 N.pl3     1 GTP        -0.9204
     31 N3         -2.0511    0.0205   -2.8541 N.pl3     1 GTP        -0.7173
     32 C4         -2.6117   -0.4790   -1.7258 C.ar      1 GTP         0.2626
     33 HOG3       -6.4018   -7.6489    2.3302 H         1 GTP         0.4102
     34 H5'        -1.7618   -3.4448    2.4164 H         1 GTP         0.0289
     35 H5''       -0.1874   -3.8744    3.1341 H         1 GTP         0.0289
     36 H4'         0.8874   -3.6466    0.8805 H         1 GTP         0.2056
     37 H3'        -0.7376   -1.2333    1.9867 H         1 GTP         0.1140
     38 HO3'        1.3408   -0.4870    2.3219 H         1 GTP         0.4287
     39 H2'        -0.0384   -0.0310    0.0096 H         1 GTP         0.0809
     40 HO2'        1.4998   -0.8412   -1.4369 H         1 GTP         0.4385
     41 H1'        -0.4769   -2.1002   -1.8093 H         1 GTP         0.0794
     42 H8         -3.0010   -2.1083    1.0004 H         1 GTP         0.3821
     43 HN21       -2.6485    1.9422   -5.3633 H         1 GTP         0.4411
     44 HN22       -1.2319    1.0195   -4.9110 H         1 GTP         0.4411
     45 H45        -1.1018   -0.2391   -3.0927 H         1 GTP         0.4819
     46 H46        -5.0365   -0.7653    0.3226 H         1 GTP         0.5182
@<TRIPOS>BOND
     1    1    2 2
     2    1    3 1
     3    1    4 1
     4    1    5 1
     5    4   33 1
     6    5    6 1
     7    6    7 2
     8    6    8 1
     9    6    9 1
    10    9   10 1
    11   10   11 2
    12   10   12 1
    13   10   13 1
    14   13   14 1
    15   14   15 1
    16   14   34 1
    17   14   35 1
    18   15   16 1
    19   15   17 1
    20   15   36 1
    21   16   21 1
    22   17   18 1
    23   17   19 1
    24   17   37 1
    25   18   38 1
    26   19   20 1
    27   19   21 1
    28   19   39 1
    29   20   40 1
    30   21   22 1
    31   21   41 1
    32   22   23 ar
    33   22   32 ar
    34   23   24 ar
    35   23   42 1
    36   24   25 ar
    37   24   46 1
    38   25   26 ar
    39   25   32 ar
    40   26   27 2
    41   26   28 ar
    42   28   29 ar
    43   29   30 1
    44   29   31 ar
    45   30   43 1
    46   30   44 1
    47   31   32 ar
    48   31   45 1
@<TRIPOS>SUBSTRUCTURE
     1 GTP         1 GROUP 0 A     ****
@<TRIPOS>MOLECULE
[[[5-(2-amino-6-oxo-7,8-dihydro-3~{H}-purin-8-ylium-9-yl)-3,4-dihydroxy-tetrahydrofuran-2-yl]methoxy-oxido-phosphoryl]oxy-oxido-phosphoryl] hydrogen phosphate
   46    48     1     0     0
SMALL
USER_CHARGES

@<TRIPOS>ATOM
      1 PG          2.0198   -6.7052   -2.6916 P.3       1 GTP         1.5447
      2 O1G         2.6460   -6.7067   -1.3149 O.co2     1 GTP        -0.8705
      3 O2G         0.7573   -7.4896   -2.9720 O.co2     1 GTP        -0.8705
      4 O3G         3.1558   -7.1451   -3.7787 O.3       1 GTP        -0.7914
      5 O3B         1.8015   -5.1614   -3.1741 O.3       1 GTP        -0.8116
      6 PB          0.8048   -4.0116   -2.5823 P.3       1 GTP         1.6738
      7 O1B        -0.6258   -4.4399   -2.8219 O.co2     1 GTP        -0.8763
      8 O2B         1.2883   -3.5983   -1.2101 O.co2     1 GTP        -0.8763
      9 O3A         1.1849   -2.7890   -3.5951 O.3       1 GTP        -0.8005
     10 PA          2.6196   -2.0516   -3.8552 P.3       1 GTP         1.5754
     11 O1A         3.6435   -3.0995   -4.2342 O.co2     1 GTP        -0.8771
     12 O2A         2.3880   -0.8341   -4.7234 O.co2     1 GTP        -0.8771
     13 O5'         2.9216   -1.4836   -2.3516 O.3       1 GTP        -0.5809
     14 C5'         2.2816   -0.2918   -1.9206 C.3       1 GTP         0.1986
     15 C4'         2.7248    0.0226   -0.4980 C.3       1 GTP         0.0418
     16 O4'         2.4697    1.4219   -0.2462 O.3       1 GTP        -0.3505
     17 C3'         1.9404   -0.7419    0.5596 C.3       1 GTP         0.0909
     18 O3'         2.7418   -0.8086    1.7389 O.3       1 GTP        -0.6187
     19 C2'         0.7477    0.1630    0.7858 C.3       1 GTP         0.0706
     20 O2'         0.1373   -0.0577    2.0407 O.3       1 GTP        -0.6294
     21 C1'         1.3733    1.5427    0.6747 C.3       1 GTP         0.3895
     22 N9          0.4520    2.5240    0.1767 N.pl3     1 GTP        -0.4733
     23 C8          0.2012    2.8401   -1.0899 C.ar      1 GTP         0.2958
     24 N7         -0.7168    3.7990   -1.1981 N.pl3     1 GTP        -0.4933
     25 C5         -1.0645    4.1043    0.0896 C.ar      1 GTP        -0.1494
     26 C6         -2.0336    5.0870    0.5973 C.ar      1 GTP         0.7954
     27 O6         -2.6730    5.7839   -0.1834 O.2       1 GTP        -0.5729
     28 N1         -2.1539    5.1517    1.9868 N.2       1 GTP        -0.7443
     29 C2         -1.4288    4.3650    2.7566 C.ar      1 GTP         0.8831
     30 N2         -1.5126    4.3922    4.1250 N.pl3     1 GTP        -0.9204
     31 N3         -0.5167    3.4388    2.2748 N.pl3     1 GTP        -0.7173
     32 C4         -0.3638    3.3392    0.9318 C.ar      1 GTP         0.2626
     33 HOG3        2.9028   -7.1922   -4.7253 H         1 GTP         0.4102
     34 H5'         2.5589    0.5217   -2.5976 H         1 GTP         0.0289
     35 H5''        1.1982   -0.4388   -1.9617 H         1 GTP         0.0289
     36 H4'         3.8044   -0.1397   -0.4040 H         1 GTP         0.2056
     37 H3'         1.6764   -1.7639    0.2728 H         1 GTP         0.1140
     38 HO3'        2.2232   -1.2979    2.3953 H         1 GTP         0.4287
     39 H2'        -0.0011    0.0027    0.0003 H         1 GTP         0.0809
     40 HO2'       -0.6141    0.5574    2.1082 H         1 GTP         0.4385
     41 H1'         1.7826    1.9024    1.6451 H         1 GTP         0.0794
     42 H8          0.6787    2.3803   -1.9373 H         1 GTP         0.3821
     43 HN21       -2.1462    5.0320    4.5446 H         1 GTP         0.4411
     44 HN22       -0.9365    3.7712    4.6440 H         1 GTP         0.4411
     45 H45         0.0318    2.8419    2.8816 H         1 GTP         0.4819
     46 H46        -1.0718    4.2049   -2.0526 H         1 GTP         0.5182
@<TRIPOS>BOND
     1    1    2 2
     2    1    3 1
     3    1    4 1
     4    1    5 1
     5    4   33 1
     6    5    6 1
     7    6    7 2
     8    6    8 1
     9    6    9 1
    10    9   10 1
    11   10   11 2
    12   10   12 1
    13   10   13 1
    14   13   14 1
    15   14   15 1
    16   14   34 1
    17   14   35 1
    18   15   16 1
    19   15   17 1
    20   15   36 1
    21   16   21 1
    22   17   18 1
    23   17   19 1
    24   17   37 1
    25   18   38 1
    26   19   20 1
    27   19   21 1
    28   19   39 1
    29   20   40 1
    30   21   22 1
    31   21   41 1
    32   22   23 ar
    33   22   32 ar
    34   23   24 ar
    35   23   42 1
    36   24   25 ar
    37   24   46 1
    38   25   26 ar
    39   25   32 ar
    40   26   27 2
    41   26   28 ar
    42   28   29 ar
    43   29   30 1
    44   29   31 ar
    45   30   43 1
    46   30   44 1
    47   31   32 ar
    48   31   45 1
@<TRIPOS>SUBSTRUCTURE
     1 GTP         1 GROUP 0 A     ****
@<TRIPOS>MOLECULE
[[[5-(2-amino-6-oxo-7,8-dihydro-3~{H}-purin-8-ylium-9-yl)-3,4-dihydroxy-tetrahydrofuran-2-yl]methoxy-oxido-phosphoryl]oxy-oxido-phosphoryl] hydrogen phosphate
   46    48     1     0     0
SMALL
USER_CHARGES

@<TRIPOS>ATOM
      1 PG         -2.2131   -0.1647   -3.6025 P.3       1 GTP         1.5447
      2 O1G        -1.0357    0.4404   -4.3339 O.co2     1 GTP        -0.8705
      3 O2G        -3.6223    0.0019   -4.1260 O.co2     1 GTP        -0.8705
      4 O3G        -2.1739    0.3392   -2.0500 O.3       1 GTP        -0.7914
      5 O3B        -1.9254   -1.7519   -3.3540 O.3       1 GTP        -0.8116
      6 PB         -0.6416   -2.4864   -2.6626 P.3       1 GTP         1.6738
      7 O1B        -0.4248   -1.8921   -1.2888 O.co2     1 GTP        -0.8763
      8 O2B        -0.7573   -3.9802   -2.8698 O.co2     1 GTP        -0.8763
      9 O3A         0.5318   -1.9682   -3.6723 O.3       1 GTP        -0.8005
     10 PA          2.1372   -2.2718   -3.6563 P.3       1 GTP         1.5754
     11 O1A         2.3492   -3.7701   -3.6757 O.co2     1 GTP        -0.8771
     12 O2A         2.8102   -1.3732   -4.6709 O.co2     1 GTP        -0.8771
     13 O5'         2.5245   -1.6648   -2.1878 O.3       1 GTP        -0.5809
     14 C5'         2.2816   -0.2918   -1.9206 C.3       1 GTP         0.1986
     15 C4'         2.7248    0.0226   -0.4980 C.3       1 GTP         0.0418
     16 O4'         2.4697    1.4219   -0.2462 O.3       1 GTP        -0.3505
     17 C3'         1.9404   -0.7419    0.5596 C.3       1 GTP         0.0909
     18 O3'         2.7418   -0.8086    1.7389 O.3       1 GTP        -0.6187
     19 C2'         0.7477    0.1630    0.7858 C.3       1 GTP         0.0706
     20 O2'         0.1373   -0.0577    2.0407 O.3       1 GTP        -0.6294
     21 C1'         1.3733    1.5427    0.6747 C.3       1 GTP         0.3895
     22 N9          0.4520    2.5240    0.1767 N.pl3     1 GTP        -0.4733
     23 C8          0.5427    3.2356   -0.9425 C.ar      1 GTP         0.2958
     24 N7         -0.4919    4.0590   -1.1018 N.pl3     1 GTP        -0.4933
     25 C5         -1.2850    3.8484   -0.0069 C.ar      1 GTP        -0.1494
     26 C6         -2.5644    4.4707    0.3650 C.ar      1 GTP         0.7954
     27 O6         -3.0718    5.3200   -0.3599 O.2       1 GTP        -0.5729
     28 N1         -3.1239    4.0269    1.5647 N.2       1 GTP        -0.7443
     29 C2         -2.5133    3.1079    2.2858 C.ar      1 GTP         0.8831
     30 N2         -3.0239    2.6409    3.4697 N.pl3     1 GTP        -0.9204
     31 N3         -1.3076    2.5223    1.9320 N.pl3     1 GTP        -0.7173
     32 C4         -0.7246    2.9211    0.7753 C.ar      1 GTP         0.2626
     33 HOG3       -2.8780    0.0300   -1.4408 H         1 GTP         0.4102
     34 H5'         2.8432    0.3119   -2.6398 H         1 GTP         0.0289
     35 H5''        1.2128   -0.0927   -2.0428 H         1 GTP         0.0289
     36 H4'         3.8044   -0.1397   -0.4040 H         1 GTP         0.2056
     37 H3'         1.6764   -1.7639    0.2728 H         1 GTP         0.1140
     38 HO3'        2.2232   -1.2979    2.3953 H         1 GTP         0.4287
     39 H2'        -0.0011    0.0027    0.0003 H         1 GTP         0.0809
     40 HO2'       -0.1563   -0.9855    2.0596 H         1 GTP         0.4385
     41 H1'         1.7826    1.9024    1.6451 H         1 GTP         0.0794
     42 H8          1.3539    3.1622   -1.6455 H         1 GTP         0.3821
     43 HN21       -3.8871    3.0143    3.7893 H         1 GTP         0.4411
     44 HN22       -2.5108    1.9472    3.9621 H         1 GTP         0.4411
     45 H45        -0.8530    1.8168    2.4986 H         1 GTP         0.4819
     46 H46        -0.6466    4.6966   -1.8702 H         1 GTP         0.5182
@<TRIPOS>BOND
     1    1    2 2
     2    1    3 1
     3    1    4 1
     4    1    5 1
     5    4   33 1
     6    5    6 1
     7    6    7 2
     8    6    8 1
     9    6    9 1
    10    9   10 1
    11   10   11 2
    12   10   12 1
    13   10   13 1
    14   13   14 1
    15   14   15 1
    16   14   34 1
    17   14   35 1
    18   15   16 1
    19   15   17 1
    20   15   36 1
    21   16   21 1
    22   17   18 1
    23   17   19 1
    24   17   37 1
    25   18   38 1
    26   19   20 1
    27   19   21 1
    28   19   39 1
    29   20   40 1
    30   21   22 1
    31   21   41 1
    32   22   23 ar
    33   22   32 ar
    34   23   24 ar
    35   23   42 1
    36   24   25 ar
    37   24   46 1
    38   25   26 ar
    39   25   32 ar
    40   26   27 2
    41   26   28 ar
    42   28   29 ar
    43   29   30 1
    44   29   31 ar
    45   30   43 1
    46   30   44 1
    47   31   32 ar
    48   31   45 1
@<TRIPOS>SUBSTRUCTURE
     1 GTP         1 GROUP 0 A     ****
@<TRIPOS>MOLECULE
[[[5-(2-amino-6-oxo-7,8-dihydro-3~{H}-purin-8-ylium-9-yl)-3,4-dihydroxy-tetrahydrofuran-2-yl]methoxy-oxido-phosphoryl]oxy-oxido-phosphoryl] hydrogen phosphate
   46    48     1     0     0
SMALL
USER_CHARGES

@<TRIPOS>ATOM
      1 PG          4.4835   -4.6250   -5.7444 P.3       1 GTP         1.5447
      2 O1G         4.8031   -6.0752   -5.4576 O.co2     1 GTP        -0.8705
      3 O2G         3.0874   -4.2009   -6.1427 O.co2     1 GTP        -0.8705
      4 O3G         5.5328   -4.0749   -6.8678 O.3       1 GTP        -0.7914
      5 O3B         4.9733   -3.7135   -4.4822 O.3       1 GTP        -0.8116
      6 PB          5.0152   -2.0896   -4.3188 P.3       1 GTP         1.6738
      7 O1B         5.4233   -1.7553   -2.9013 O.co2     1 GTP        -0.8763
      8 O2B         5.7301   -1.4922   -5.5102 O.co2     1 GTP        -0.8763
      9 O3A         3.4281   -1.7650   -4.5203 O.3       1 GTP        -0.8005
     10 PA          2.1372   -2.2718   -3.6563 P.3       1 GTP         1.5754
     11 O1A         0.8958   -1.5923   -4.1925 O.co2     1 GTP        -0.8771
     12 O2A         2.2074   -3.7770   -3.5183 O.co2     1 GTP        -0.8771
     13 O5'         2.5245   -1.6648   -2.1878 O.3       1 GTP        -0.5809
     14 C5'         2.2816   -0.2918   -1.9206 C.3       1 GTP         0.1986
     15 C4'         2.7248    0.0226   -0.4980 C.3       1 GTP         0.0418
     16 O4'         2.4697    1.4219   -0.2462 O.3       1 GTP        -0.3505
     17 C3'         1.9404   -0.7419    0.5596 C.3       1 GTP         0.0909
     18 O3'         2.7418   -0.8086    1.7389 O.3       1 GTP        -0.6187
     19 C2'         0.7477    0.1630    0.7858 C.3       1 GTP         0.0706
     20 O2'         0.1373   -0.0577    2.0407 O.3       1 GTP        -0.6294
     21 C1'         1.3733    1.5427    0.6747 C.3       1 GTP         0.3895
     22 N9          0.4520    2.5240    0.1767 N.pl3     1 GTP        -0.4733
     23 C8         -0.2136    2.5096   -0.9739 C.ar      1 GTP         0.2958
     24 N7         -0.9896    3.5820   -1.1212 N.pl3     1 GTP        -0.4933
     25 C5         -0.7962    4.3186    0.0156 C.ar      1 GTP        -0.1494
     26 C6         -1.3875    5.6031    0.4192 C.ar      1 GTP         0.7954
     27 O6         -2.1869    6.1731   -0.3158 O.2       1 GTP        -0.5729
     28 N1         -0.9745    6.0930    1.6597 N.2       1 GTP        -0.7443
     29 C2         -0.1105    5.4166    2.3900 C.ar      1 GTP         0.8831
     30 N2          0.3241    5.8571    3.6138 N.pl3     1 GTP        -0.9204
     31 N3          0.4444    4.2053    2.0072 N.pl3     1 GTP        -0.7173
     32 C4          0.0746    3.6889    0.8098 C.ar      1 GTP         0.2626
     33 HOG3        5.4548   -3.1426   -7.1627 H         1 GTP         0.4102
     34 H5'         2.8432    0.3119   -2.6398 H         1 GTP         0.0289
     35 H5''        1.2128   -0.0927   -2.0428 H         1 GTP         0.0289
     36 H4'         3.8044   -0.1397   -0.4040 H         1 GTP         0.2056
     37 H3'         1.6764   -1.7639    0.2728 H         1 GTP         0.1140
     38 HO3'        2.2232   -1.2979    2.3953 H         1 GTP         0.4287
     39 H2'        -0.0011    0.0027    0.0003 H         1 GTP         0.0809
     40 HO2'       -0.6141    0.5574    2.1082 H         1 GTP         0.4385
     41 H1'         1.7826    1.9024    1.6451 H         1 GTP         0.0794
     42 H8         -0.1415    1.7265   -1.7082 H         1 GTP         0.3821
     43 HN21       -0.0303    6.7197    3.9559 H         1 GTP         0.4411
     44 HN22        0.9765    5.2967    4.1108 H         1 GTP         0.4411
     45 H45         1.1068    3.6990    2.5819 H         1 GTP         0.4819
     46 H46        -1.5877    3.7943   -1.9074 H         1 GTP         0.5182
@<TRIPOS>BOND
     1    1    2 2
     2    1    3 1
     3    1    4 1
     4    1    5 1
     5    4   33 1
     6    5    6 1
     7    6    7 2
     8    6    8 1
     9    6    9 1
    10    9   10 1
    11   10   11 2
    12   10   12 1
    13   10   13 1
    14   13   14 1
    15   14   15 1
    16   14   34 1
    17   14   35 1
    18   15   16 1
    19   15   17 1
    20   15   36 1
    21   16   21 1
    22   17   18 1
    23   17   19 1
    24   17   37 1
    25   18   38 1
    26   19   20 1
    27   19   21 1
    28   19   39 1
    29   20   40 1
    30   21   22 1
    31   21   41 1
    32   22   23 ar
    33   22   32 ar
    34   23   24 ar
    35   23   42 1
    36   24   25 ar
    37   24   46 1
    38   25   26 ar
    39   25   32 ar
    40   26   27 2
    41   26   28 ar
    42   28   29 ar
    43   29   30 1
    44   29   31 ar
    45   30   43 1
    46   30   44 1
    47   31   32 ar
    48   31   45 1
@<TRIPOS>SUBSTRUCTURE
     1 GTP         1 GROUP 0 A     ****
@<TRIPOS>MOLECULE
[[[5-(2-amino-6-oxo-7,8-dihydro-3~{H}-purin-8-ylium-9-yl)-3,4-dihydroxy-tetrahydrofuran-2-yl]methoxy-oxido-phosphoryl]oxy-oxido-phosphoryl] hydrogen phosphate
   46    48     1     0     0
SMALL
USER_CHARGES

@<TRIPOS>ATOM
      1 PG          2.5730    5.2383   -2.9385 P.3       1 GTP         1.5447
      2 O1G         1.8652    6.3839   -2.2499 O.co2     1 GTP        -0.8705
      3 O2G         3.3344    4.2031   -2.1408 O.co2     1 GTP        -0.8705
      4 O3G         3.5704    5.8532   -4.0756 O.3       1 GTP        -0.7914
      5 O3B         1.5172    4.4762   -3.9226 O.3       1 GTP        -0.8116
      6 PB          1.7726    3.2827   -5.0069 P.3       1 GTP         1.6738
      7 O1B         0.4374    2.8346   -5.5582 O.co2     1 GTP        -0.8763
      8 O2B         2.9124    3.6797   -5.9183 O.co2     1 GTP        -0.8763
      9 O3A         2.3599    2.1376   -4.0025 O.3       1 GTP        -0.8005
     10 PA          2.8621    0.6170   -4.3270 P.3       1 GTP         1.5754
     11 O1A         1.6809   -0.1909   -4.8193 O.co2     1 GTP        -0.8771
     12 O2A         4.1462    0.6908   -5.1241 O.co2     1 GTP        -0.8771
     13 O5'         3.2903    0.1346   -2.8241 O.3       1 GTP        -0.5809
     14 C5'         2.2816   -0.2918   -1.9206 C.3       1 GTP         0.1986
     15 C4'         2.7248    0.0226   -0.4980 C.3       1 GTP         0.0418
     16 O4'         2.4697    1.4219   -0.2462 O.3       1 GTP        -0.3505
     17 C3'         1.9404   -0.7419    0.5596 C.3       1 GTP         0.0909
     18 O3'         2.7418   -0.8086    1.7389 O.3       1 GTP        -0.6187
     19 C2'         0.7477    0.1630    0.7858 C.3       1 GTP         0.0706
     20 O2'         0.1373   -0.0577    2.0407 O.3       1 GTP        -0.6294
     21 C1'         1.3733    1.5427    0.6747 C.3       1 GTP         0.3895
     22 N9          0.4520    2.5240    0.1767 N.pl3     1 GTP        -0.4733
     23 C8          0.5427    3.2356   -0.9425 C.ar      1 GTP         0.2958
     24 N7         -0.4919    4.0590   -1.1018 N.pl3     1 GTP        -0.4933
     25 C5         -1.2850    3.8484   -0.0069 C.ar      1 GTP        -0.1494
     26 C6         -2.5644    4.4707    0.3650 C.ar      1 GTP         0.7954
     27 O6         -3.0718    5.3200   -0.3599 O.2       1 GTP        -0.5729
     28 N1         -3.1239    4.0269    1.5647 N.2       1 GTP        -0.7443
     29 C2         -2.5133    3.1079    2.2858 C.ar      1 GTP         0.8831
     30 N2         -3.0239    2.6409    3.4697 N.pl3     1 GTP        -0.9204
     31 N3         -1.3076    2.5223    1.9320 N.pl3     1 GTP        -0.7173
     32 C4         -0.7246    2.9211    0.7753 C.ar      1 GTP         0.2626
     33 HOG3        4.1048    5.2311   -4.6137 H         1 GTP         0.4102
     34 H5'         1.3514    0.2330   -2.1577 H         1 GTP         0.0289
     35 H5''        2.1280   -1.3678   -2.0460 H         1 GTP         0.0289
     36 H4'         3.8044   -0.1397   -0.4040 H         1 GTP         0.2056
     37 H3'         1.6764   -1.7639    0.2728 H         1 GTP         0.1140
     38 HO3'        2.2232   -1.2979    2.3953 H         1 GTP         0.4287
     39 H2'        -0.0011    0.0027    0.0003 H         1 GTP         0.0809
     40 HO2'        0.8082    0.1199    2.7232 H         1 GTP         0.4385
     41 H1'         1.7826    1.9024    1.6451 H         1 GTP         0.0794
     42 H8          1.3539    3.1622   -1.6455 H         1 GTP         0.3821
     43 HN21       -3.8871    3.0143    3.7893 H         1 GTP         0.4411
     44 HN22       -2.5108    1.9472    3.9621 H         1 GTP         0.4411
     45 H45        -0.8530    1.8168    2.4986 H         1 GTP         0.4819
     46 H46        -0.6466    4.6966   -1.8702 H         1 GTP         0.5182
@<TRIPOS>BOND
     1    1    2 2
     2    1    3 1
     3    1    4 1
     4    1    5 1
     5    4   33 1
     6    5    6 1
     7    6    7 2
     8    6    8 1
     9    6    9 1
    10    9   10 1
    11   10   11 2
    12   10   12 1
    13   10   13 1
    14   13   14 1
    15   14   15 1
    16   14   34 1
    17   14   35 1
    18   15   16 1
    19   15   17 1
    20   15   36 1
    21   16   21 1
    22   17   18 1
    23   17   19 1
    24   17   37 1
    25   18   38 1
    26   19   20 1
    27   19   21 1
    28   19   39 1
    29   20   40 1
    30   21   22 1
    31   21   41 1
    32   22   23 ar
    33   22   32 ar
    34   23   24 ar
    35   23   42 1
    36   24   25 ar
    37   24   46 1
    38   25   26 ar
    39   25   32 ar
    40   26   27 2
    41   26   28 ar
    42   28   29 ar
    43   29   30 1
    44   29   31 ar
    45   30   43 1
    46   30   44 1
    47   31   32 ar
    48   31   45 1
@<TRIPOS>SUBSTRUCTURE
     1 GTP         1 GROUP 0 A     ****
@<TRIPOS>MOLECULE
[[[5-(2-amino-6-oxo-7,8-dihydro-3~{H}-purin-8-ylium-9-yl)-3,4-dihydroxy-tetrahydrofuran-2-yl]methoxy-oxido-phosphoryl]oxy-oxido-phosphoryl] hydrogen phosphate
   46    48     1     0     0
SMALL
USER_CHARGES

@<TRIPOS>ATOM
      1 PG          0.0037   -6.3379   -2.1447 P.3       1 GTP         1.5447
      2 O1G        -1.4914   -6.5658   -2.1577 O.co2     1 GTP        -0.8705
      3 O2G         0.9495   -7.3494   -2.7530 O.co2     1 GTP        -0.8705
      4 O3G         0.4711   -6.0504   -0.6069 O.3       1 GTP        -0.7914
      5 O3B         0.3224   -4.8679   -2.7783 O.3       1 GTP        -0.8116
      6 PB         -0.2798   -3.4039   -2.3788 P.3       1 GTP         1.6738
      7 O1B        -1.7568   -3.3822   -2.7034 O.co2     1 GTP        -0.8763
      8 O2B         0.2362   -3.0146   -1.0114 O.co2     1 GTP        -0.8763
      9 O3A         0.5293   -2.4845   -3.4582 O.3       1 GTP        -0.8005
     10 PA          2.1372   -2.2718   -3.6563 P.3       1 GTP         1.5754
     11 O1A         2.7866   -3.6248   -3.8512 O.co2     1 GTP        -0.8771
     12 O2A         2.3589   -1.1479   -4.6449 O.co2     1 GTP        -0.8771
     13 O5'         2.5245   -1.6648   -2.1878 O.3       1 GTP        -0.5809
     14 C5'         2.2816   -0.2918   -1.9206 C.3       1 GTP         0.1986
     15 C4'         2.7248    0.0226   -0.4980 C.3       1 GTP         0.0418
     16 O4'         2.4697    1.4219   -0.2462 O.3       1 GTP        -0.3505
     17 C3'         1.9404   -0.7419    0.5596 C.3       1 GTP         0.0909
     18 O3'         2.7418   -0.8086    1.7389 O.3       1 GTP        -0.6187
     19 C2'         0.7477    0.1630    0.7858 C.3       1 GTP         0.0706
     20 O2'         0.1373   -0.0577    2.0407 O.3       1 GTP        -0.6294
     21 C1'         1.3733    1.5427    0.6747 C.3       1 GTP         0.3895
     22 N9          0.4520    2.5240    0.1767 N.pl3     1 GTP        -0.4733
     23 C8          0.2012    2.8401   -1.0899 C.ar      1 GTP         0.2958
     24 N7         -0.7168    3.7990   -1.1981 N.pl3     1 GTP        -0.4933
     25 C5         -1.0645    4.1043    0.0896 C.ar      1 GTP        -0.1494
     26 C6         -2.0336    5.0870    0.5973 C.ar      1 GTP         0.7954
     27 O6         -2.6730    5.7839   -0.1834 O.2       1 GTP        -0.5729
     28 N1         -2.1539    5.1517    1.9868 N.2       1 GTP        -0.7443
     29 C2         -1.4288    4.3650    2.7566 C.ar      1 GTP         0.8831
     30 N2         -1.5126    4.3922    4.1250 N.pl3     1 GTP        -0.9204
     31 N3         -0.5167    3.4388    2.2748 N.pl3     1 GTP        -0.7173
     32 C4         -0.3638    3.3392    0.9318 C.ar      1 GTP         0.2626
     33 HOG3        1.4215   -5.8819   -0.4316 H         1 GTP         0.4102
     34 H5'         2.8432    0.3119   -2.6398 H         1 GTP         0.0289
     35 H5''        1.2128   -0.0927   -2.0428 H         1 GTP         0.0289
     36 H4'         3.8044   -0.1397   -0.4040 H         1 GTP         0.2056
     37 H3'         1.6764   -1.7639    0.2728 H         1 GTP         0.1140
     38 HO3'        2.2232   -1.2979    2.3953 H         1 GTP         0.4287
     39 H2'        -0.0011    0.0027    0.0003 H         1 GTP         0.0809
     40 HO2'       -0.1563   -0.9855    2.0596 H         1 GTP         0.4385
     41 H1'         1.7826    1.9024    1.6451 H         1 GTP         0.0794
     42 H8          0.6787    2.3803   -1.9373 H         1 GTP         0.3821
     43 HN21       -2.1462    5.0320    4.5446 H         1 GTP         0.4411
     44 HN22       -0.9365    3.7712    4.6440 H         1 GTP         0.4411
     45 H45         0.0318    2.8419    2.8816 H         1 GTP         0.4819
     46 H46        -1.0718    4.2049   -2.0526 H         1 GTP         0.5182
@<TRIPOS>BOND
     1    1    2 2
     2    1    3 1
     3    1    4 1
     4    1    5 1
     5    4   33 1
     6    5    6 1
     7    6    7 2
     8    6    8 1
     9    6    9 1
    10    9   10 1
    11   10   11 2
    12   10   12 1
    13   10   13 1
    14   13   14 1
    15   14   15 1
    16   14   34 1
    17   14   35 1
    18   15   16 1
    19   15   17 1
    20   15   36 1
    21   16   21 1
    22   17   18 1
    23   17   19 1
    24   17   37 1
    25   18   38 1
    26   19   20 1
    27   19   21 1
    28   19   39 1
    29   20   40 1
    30   21   22 1
    31   21   41 1
    32   22   23 ar
    33   22   32 ar
    34   23   24 ar
    35   23   42 1
    36   24   25 ar
    37   24   46 1
    38   25   26 ar
    39   25   32 ar
    40   26   27 2
    41   26   28 ar
    42   28   29 ar
    43   29   30 1
    44   29   31 ar
    45   30   43 1
    46   30   44 1
    47   31   32 ar
    48   31   45 1
@<TRIPOS>SUBSTRUCTURE
     1 GTP         1 GROUP 0 A     ****
@<TRIPOS>MOLECULE
[[[5-(2-amino-6-oxo-7,8-dihydro-3~{H}-purin-8-ylium-9-yl)-3,4-dihydroxy-tetrahydrofuran-2-yl]methoxy-oxido-phosphoryl]oxy-oxido-phosphoryl] hydrogen phosphate
   46    48     1     0     0
SMALL
USER_CHARGES

@<TRIPOS>ATOM
      1 PG         -1.2327   -1.2780   -3.6450 P.3       1 GTP         1.5447
      2 O1G        -1.7798   -2.6370   -4.0208 O.co2     1 GTP        -0.8705
      3 O2G        -1.5232   -0.6704   -2.2907 O.co2     1 GTP        -0.8705
      4 O3G        -1.6679   -0.2068   -4.7979 O.3       1 GTP        -0.7914
      5 O3B         0.3802   -1.2672   -3.8946 O.3       1 GTP        -0.8116
      6 PB          1.2344   -1.6547   -5.2309 P.3       1 GTP         1.6738
      7 O1B         1.0567   -3.1307   -5.5088 O.co2     1 GTP        -0.8763
      8 O2B         0.9820   -0.6123   -6.2973 O.co2     1 GTP        -0.8763
      9 O3A         2.7418   -1.3839   -4.6658 O.3       1 GTP        -0.8005
     10 PA          3.5300   -2.0730   -3.4114 P.3       1 GTP         1.5754
     11 O1A         3.5355   -3.5739   -3.6057 O.co2     1 GTP        -0.8771
     12 O2A         4.8145   -1.3109   -3.1689 O.co2     1 GTP        -0.8771
     13 O5'         2.5245   -1.6648   -2.1878 O.3       1 GTP        -0.5809
     14 C5'         2.2816   -0.2918   -1.9206 C.3       1 GTP         0.1986
     15 C4'         2.7248    0.0226   -0.4980 C.3       1 GTP         0.0418
     16 O4'         2.4697    1.4219   -0.2462 O.3       1 GTP        -0.3505
     17 C3'         1.9404   -0.7419    0.5596 C.3       1 GTP         0.0909
     18 O3'         2.7418   -0.8086    1.7389 O.3       1 GTP        -0.6187
     19 C2'         0.7477    0.1630    0.7858 C.3       1 GTP         0.0706
     20 O2'         0.1373   -0.0577    2.0407 O.3       1 GTP        -0.6294
     21 C1'         1.3733    1.5427    0.6747 C.3       1 GTP         0.3895
     22 N9          0.4520    2.5240    0.1767 N.pl3     1 GTP        -0.4733
     23 C8          0.2012    2.8401   -1.0899 C.ar      1 GTP         0.2958
     24 N7         -0.7168    3.7990   -1.1981 N.pl3     1 GTP        -0.4933
     25 C5         -1.0645    4.1043    0.0896 C.ar      1 GTP        -0.1494
     26 C6         -2.0336    5.0870    0.5973 C.ar      1 GTP         0.7954
     27 O6         -2.6730    5.7839   -0.1834 O.2       1 GTP        -0.5729
     28 N1         -2.1539    5.1517    1.9868 N.2       1 GTP        -0.7443
     29 C2         -1.4288    4.3650    2.7566 C.ar      1 GTP         0.8831
     30 N2         -1.5126    4.3922    4.1250 N.pl3     1 GTP        -0.9204
     31 N3         -0.5167    3.4388    2.2748 N.pl3     1 GTP        -0.7173
     32 C4         -0.3638    3.3392    0.9318 C.ar      1 GTP         0.2626
     33 HOG3       -1.3862    0.7274   -4.6975 H         1 GTP         0.4102
     34 H5'         2.8432    0.3119   -2.6398 H         1 GTP         0.0289
     35 H5''        1.2128   -0.0927   -2.0428 H         1 GTP         0.0289
     36 H4'         3.8044   -0.1397   -0.4040 H         1 GTP         0.2056
     37 H3'         1.6764   -1.7639    0.2728 H         1 GTP         0.1140
     38 HO3'        3.5554   -1.2733    1.4914 H         1 GTP         0.4287
     39 H2'        -0.0011    0.0027    0.0003 H         1 GTP         0.0809
     40 HO2'       -0.1563   -0.9855    2.0596 H         1 GTP         0.4385
     41 H1'         1.7826    1.9024    1.6451 H         1 GTP         0.0794
     42 H8          0.6787    2.3803   -1.9373 H         1 GTP         0.3821
     43 HN21       -2.1462    5.0320    4.5446 H         1 GTP         0.4411
     44 HN22       -0.9365    3.7712    4.6440 H         1 GTP         0.4411
     45 H45         0.0318    2.8419    2.8816 H         1 GTP         0.4819
     46 H46        -1.0718    4.2049   -2.0526 H         1 GTP         0.5182
@<TRIPOS>BOND
     1    1    2 2
     2    1    3 1
     3    1    4 1
     4    1    5 1
     5    4   33 1
     6    5    6 1
     7    6    7 2
     8    6    8 1
     9    6    9 1
    10    9   10 1
    11   10   11 2
    12   10   12 1
    13   10   13 1
    14   13   14 1
    15   14   15 1
    16   14   34 1
    17   14   35 1
    18   15   16 1
    19   15   17 1
    20   15   36 1
    21   16   21 1
    22   17   18 1
    23   17   19 1
    24   17   37 1
    25   18   38 1
    26   19   20 1
    27   19   21 1
    28   19   39 1
    29   20   40 1
    30   21   22 1
    31   21   41 1
    32   22   23 ar
    33   22   32 ar
    34   23   24 ar
    35   23   42 1
    36   24   25 ar
    37   24   46 1
    38   25   26 ar
    39   25   32 ar
    40   26   27 2
    41   26   28 ar
    42   28   29 ar
    43   29   30 1
    44   29   31 ar
    45   30   43 1
    46   30   44 1
    47   31   32 ar
    48   31   45 1
@<TRIPOS>SUBSTRUCTURE
     1 GTP         1 GROUP 0 A     ****
@<TRIPOS>MOLECULE
[[[5-(2-amino-6-oxo-7,8-dihydro-3~{H}-purin-8-ylium-9-yl)-3,4-dihydroxy-tetrahydrofuran-2-yl]methoxy-oxido-phosphoryl]oxy-oxido-phosphoryl] hydrogen phosphate
   46    48     1     0     0
SMALL
USER_CHARGES

@<TRIPOS>ATOM
      1 PG          3.5090   -4.0247   -6.2748 P.3       1 GTP         1.5447
      2 O1G         4.4854   -3.6181   -7.3559 O.co2     1 GTP        -0.8705
      3 O2G         3.0662   -5.4635   -6.1284 O.co2     1 GTP        -0.8705
      4 O3G         2.1805   -3.0831   -6.3951 O.3       1 GTP        -0.7914
      5 O3B         4.0596   -3.4914   -4.8339 O.3       1 GTP        -0.8116
      6 PB          4.5143   -1.9910   -4.3782 P.3       1 GTP         1.6738
      7 O1B         4.8121   -2.0040   -2.8954 O.co2     1 GTP        -0.8763
      8 O2B         5.5098   -1.4514   -5.3810 O.co2     1 GTP        -0.8763
      9 O3A         3.1119   -1.1996   -4.6459 O.3       1 GTP        -0.8005
     10 PA          2.7407    0.3769   -4.4297 P.3       1 GTP         1.5754
     11 O1A         3.7274    1.2201   -5.2081 O.co2     1 GTP        -0.8771
     12 O2A         1.2486    0.5523   -4.6100 O.co2     1 GTP        -0.8771
     13 O5'         3.0213    0.5153   -2.8245 O.3       1 GTP        -0.5809
     14 C5'         2.2816   -0.2918   -1.9206 C.3       1 GTP         0.1986
     15 C4'         2.7248    0.0226   -0.4980 C.3       1 GTP         0.0418
     16 O4'         2.4697    1.4219   -0.2462 O.3       1 GTP        -0.3505
     17 C3'         1.9404   -0.7419    0.5596 C.3       1 GTP         0.0909
     18 O3'         2.7418   -0.8086    1.7389 O.3       1 GTP        -0.6187
     19 C2'         0.7477    0.1630    0.7858 C.3       1 GTP         0.0706
     20 O2'         0.1373   -0.0577    2.0407 O.3       1 GTP        -0.6294
     21 C1'         1.3733    1.5427    0.6747 C.3       1 GTP         0.3895
     22 N9          0.4520    2.5240    0.1767 N.pl3     1 GTP        -0.4733
     23 C8         -0.6872    2.9292    0.7291 C.ar      1 GTP         0.2958
     24 N7         -1.2991    3.8596   -0.0015 N.pl3     1 GTP        -0.4933
     25 C5         -0.4870    4.0499   -1.0861 C.ar      1 GTP        -0.1494
     26 C6         -0.6427    4.9562   -2.2336 C.ar      1 GTP         0.7954
     27 O6         -1.6219    5.6904   -2.3123 O.2       1 GTP        -0.5729
     28 N1          0.3798    4.9069   -3.1832 N.2       1 GTP        -0.7443
     29 C2          1.4004    4.0885   -3.0226 C.ar      1 GTP         0.8831
     30 N2          2.4275    4.0052   -3.9273 N.pl3     1 GTP        -0.9204
     31 N3          1.5448    3.2359   -1.9390 N.pl3     1 GTP        -0.7173
     32 C4          0.5769    3.2470   -0.9903 C.ar      1 GTP         0.2626
     33 HOG3        1.4483   -3.2251   -5.7578 H         1 GTP         0.4102
     34 H5'         1.2163   -0.0770   -2.0471 H         1 GTP         0.0289
     35 H5''        2.4655   -1.3443   -2.1563 H         1 GTP         0.0289
     36 H4'         3.8044   -0.1397   -0.4040 H         1 GTP         0.2056
     37 H3'         1.6764   -1.7639    0.2728 H         1 GTP         0.1140
     38 HO3'        2.2232   -1.2979    2.3953 H         1 GTP         0.4287
     39 H2'        -0.0011    0.0027    0.0003 H         1 GTP         0.0809
     40 HO2'       -0.1563   -0.9855    2.0596 H         1 GTP         0.4385
     41 H1'         1.7826    1.9024    1.6451 H         1 GTP         0.0794
     42 H8         -1.0786    2.5555    1.6591 H         1 GTP         0.3821
     43 HN21        2.3939    4.5871   -4.7317 H         1 GTP         0.4411
     44 HN22        3.1656    3.3663   -3.7434 H         1 GTP         0.4411
     45 H45         2.3366    2.6138   -1.8319 H         1 GTP         0.4819
     46 H46        -2.1740    4.3186    0.2105 H         1 GTP         0.5182
@<TRIPOS>BOND
     1    1    2 2
     2    1    3 1
     3    1    4 1
     4    1    5 1
     5    4   33 1
     6    5    6 1
     7    6    7 2
     8    6    8 1
     9    6    9 1
    10    9   10 1
    11   10   11 2
    12   10   12 1
    13   10   13 1
    14   13   14 1
    15   14   15 1
    16   14   34 1
    17   14   35 1
    18   15   16 1
    19   15   17 1
    20   15   36 1
    21   16   21 1
    22   17   18 1
    23   17   19 1
    24   17   37 1
    25   18   38 1
    26   19   20 1
    27   19   21 1
    28   19   39 1
    29   20   40 1
    30   21   22 1
    31   21   41 1
    32   22   23 ar
    33   22   32 ar
    34   23   24 ar
    35   23   42 1
    36   24   25 ar
    37   24   46 1
    38   25   26 ar
    39   25   32 ar
    40   26   27 2
    41   26   28 ar
    42   28   29 ar
    43   29   30 1
    44   29   31 ar
    45   30   43 1
    46   30   44 1
    47   31   32 ar
    48   31   45 1
@<TRIPOS>SUBSTRUCTURE
     1 GTP         1 GROUP 0 A     ****
@<TRIPOS>MOLECULE
[[[5-(2-amino-6-oxo-7,8-dihydro-3~{H}-purin-8-ylium-9-yl)-3,4-dihydroxy-tetrahydrofuran-2-yl]methoxy-oxido-phosphoryl]oxy-oxido-phosphoryl] hydrogen phosphate
   46    48     1     0     0
SMALL
USER_CHARGES

@<TRIPOS>ATOM
      1 PG         -5.2573   -3.1013    3.7258 P.3       1 GTP         1.5447
      2 O1G        -3.9262   -2.6813    3.1433 O.co2     1 GTP        -0.8705
      3 O2G        -6.5335   -2.3847    3.3444 O.co2     1 GTP        -0.8705
      4 O3G        -5.1325   -3.1067    5.3538 O.3       1 GTP        -0.7914
      5 O3B        -5.4591   -4.7034    3.4887 O.3       1 GTP        -0.8116
      6 PB         -4.4764   -5.9495    3.8722 P.3       1 GTP         1.6738
      7 O1B        -4.1484   -5.8723    5.3466 O.co2     1 GTP        -0.8763
      8 O2B        -5.0182   -7.2155    3.2468 O.co2     1 GTP        -0.8763
      9 O3A        -3.1638   -5.5263    2.9987 O.3       1 GTP        -0.8005
     10 PA         -1.7207   -6.2770    2.8455 P.3       1 GTP         1.5754
     11 O1A        -1.0265   -6.2759    4.1903 O.co2     1 GTP        -0.8771
     12 O2A        -1.9224   -7.5608    2.0704 O.co2     1 GTP        -0.8771
     13 O5'        -0.9724   -5.2440    1.8220 O.3       1 GTP        -0.5809
     14 C5'        -0.7840   -3.8935    2.2172 C.3       1 GTP         0.1986
     15 C4'        -0.0724   -3.1466    1.1027 C.3       1 GTP         0.0418
     16 O4'        -0.8674   -3.1929   -0.0945 O.3       1 GTP        -0.3505
     17 C3'         0.1338   -1.6715    1.4027 C.3       1 GTP         0.0909
     18 O3'         1.2893   -1.4445    2.1808 O.3       1 GTP        -0.6187
     19 C2'         0.2158   -1.0724    0.0128 C.3       1 GTP         0.0706
     20 O2'         1.5141   -1.2448   -0.5513 O.3       1 GTP        -0.6294
     21 C1'        -0.7897   -1.9176   -0.7583 C.3       1 GTP         0.3895
     22 N9         -2.1040   -1.3333   -0.7704 N.pl3     1 GTP        -0.4733
     23 C8         -3.0774   -1.4939    0.1205 C.ar      1 GTP         0.2958
     24 N7         -4.1709   -0.8031   -0.1972 N.pl3     1 GTP        -0.4933
     25 C5         -3.8606   -0.1662   -1.3678 C.ar      1 GTP        -0.1494
     26 C6         -4.6738    0.7391   -2.1934 C.ar      1 GTP         0.7954
     27 O6         -5.8186    1.0214   -1.8562 O.2       1 GTP        -0.5729
     28 N1         -4.0520    1.2260   -3.3448 N.2       1 GTP        -0.7443
     29 C2         -2.8155    0.8734   -3.6351 C.ar      1 GTP         0.8831
     30 N2         -2.1637    1.3257   -4.7536 N.pl3     1 GTP        -0.9204
     31 N3         -2.0511    0.0205   -2.8541 N.pl3     1 GTP        -0.7173
     32 C4         -2.6117   -0.4790   -1.7258 C.ar      1 GTP         0.2626
     33 HOG3       -5.9196   -3.3599    5.8816 H         1 GTP         0.4102
     34 H5'        -1.7618   -3.4448    2.4164 H         1 GTP         0.0289
     35 H5''       -0.1874   -3.8744    3.1341 H         1 GTP         0.0289
     36 H4'         0.8874   -3.6466    0.8805 H         1 GTP         0.2056
     37 H3'        -0.7376   -1.2333    1.9867 H         1 GTP         0.1140
     38 HO3'        1.3408   -0.4870    2.3219 H         1 GTP         0.4287
     39 H2'        -0.0384   -0.0310    0.0096 H         1 GTP         0.0809
     40 HO2'        2.1463   -0.7958    0.0370 H         1 GTP         0.4385
     41 H1'        -0.4769   -2.1002   -1.8093 H         1 GTP         0.0794
     42 H8         -3.0010   -2.1083    1.0004 H         1 GTP         0.3821
     43 HN21       -2.6485    1.9422   -5.3633 H         1 GTP         0.4411
     44 HN22       -1.2319    1.0195   -4.9110 H         1 GTP         0.4411
     45 H45        -1.1018   -0.2391   -3.0927 H         1 GTP         0.4819
     46 H46        -5.0365   -0.7653    0.3226 H         1 GTP         0.5182
@<TRIPOS>BOND
     1    1    2 2
     2    1    3 1
     3    1    4 1
     4    1    5 1
     5    4   33 1
     6    5    6 1
     7    6    7 2
     8    6    8 1
     9    6    9 1
    10    9   10 1
    11   10   11 2
    12   10   12 1
    13   10   13 1
    14   13   14 1
    15   14   15 1
    16   14   34 1
    17   14   35 1
    18   15   16 1
    19   15   17 1
    20   15   36 1
    21   16   21 1
    22   17   18 1
    23   17   19 1
    24   17   37 1
    25   18   38 1
    26   19   20 1
    27   19   21 1
    28   19   39 1
    29   20   40 1
    30   21   22 1
    31   21   41 1
    32   22   23 ar
    33   22   32 ar
    34   23   24 ar
    35   23   42 1
    36   24   25 ar
    37   24   46 1
    38   25   26 ar
    39   25   32 ar
    40   26   27 2
    41   26   28 ar
    42   28   29 ar
    43   29   30 1
    44   29   31 ar
    45   30   43 1
    46   30   44 1
    47   31   32 ar
    48   31   45 1
@<TRIPOS>SUBSTRUCTURE
     1 GTP         1 GROUP 0 A     ****
@<TRIPOS>MOLECULE
[[[5-(2-amino-6-oxo-7,8-dihydro-3~{H}-purin-8-ylium-9-yl)-3,4-dihydroxy-tetrahydrofuran-2-yl]methoxy-oxido-phosphoryl]oxy-oxido-phosphoryl] hydrogen phosphate
   46    48     1     0     0
SMALL
USER_CHARGES

@<TRIPOS>ATOM
      1 PG         -1.5298   -4.4849   -4.3342 P.3       1 GTP         1.5447
      2 O1G        -3.0104   -4.6626   -4.0816 O.co2     1 GTP        -0.8705
      3 O2G        -1.0314   -3.5253   -5.3918 O.co2     1 GTP        -0.8705
      4 O3G        -0.8716   -5.9526   -4.6144 O.3       1 GTP        -0.7914
      5 O3B        -0.7866   -4.1471   -2.9209 O.3       1 GTP        -0.8116
      6 PB          0.8048   -4.0116   -2.5823 P.3       1 GTP         1.6738
      7 O1B         0.9582   -3.5480   -1.1509 O.co2     1 GTP        -0.8763
      8 O2B         1.5252   -5.2369   -3.0993 O.co2     1 GTP        -0.8763
      9 O3A         1.1849   -2.7890   -3.5951 O.3       1 GTP        -0.8005
     10 PA          2.6196   -2.0516   -3.8552 P.3       1 GTP         1.5754
     11 O1A         3.6435   -3.0995   -4.2342 O.co2     1 GTP        -0.8771
     12 O2A         2.3880   -0.8341   -4.7234 O.co2     1 GTP        -0.8771
     13 O5'         2.9216   -1.4836   -2.3516 O.3       1 GTP        -0.5809
     14 C5'         2.2816   -0.2918   -1.9206 C.3       1 GTP         0.1986
     15 C4'         2.7248    0.0226   -0.4980 C.3       1 GTP         0.0418
     16 O4'         2.4697    1.4219   -0.2462 O.3       1 GTP        -0.3505
     17 C3'         1.9404   -0.7419    0.5596 C.3       1 GTP         0.0909
     18 O3'         2.7418   -0.8086    1.7389 O.3       1 GTP        -0.6187
     19 C2'         0.7477    0.1630    0.7858 C.3       1 GTP         0.0706
     20 O2'         0.1373   -0.0577    2.0407 O.3       1 GTP        -0.6294
     21 C1'         1.3733    1.5427    0.6747 C.3       1 GTP         0.3895
     22 N9          0.4520    2.5240    0.1767 N.pl3     1 GTP        -0.4733
     23 C8          0.2012    2.8401   -1.0899 C.ar      1 GTP         0.2958
     24 N7         -0.7168    3.7990   -1.1981 N.pl3     1 GTP        -0.4933
     25 C5         -1.0645    4.1043    0.0896 C.ar      1 GTP        -0.1494
     26 C6         -2.0336    5.0870    0.5973 C.ar      1 GTP         0.7954
     27 O6         -2.6730    5.7839   -0.1834 O.2       1 GTP        -0.5729
     28 N1         -2.1539    5.1517    1.9868 N.2       1 GTP        -0.7443
     29 C2         -1.4288    4.3650    2.7566 C.ar      1 GTP         0.8831
     30 N2         -1.5126    4.3922    4.1250 N.pl3     1 GTP        -0.9204
     31 N3         -0.5167    3.4388    2.2748 N.pl3     1 GTP        -0.7173
     32 C4         -0.3638    3.3392    0.9318 C.ar      1 GTP         0.2626
     33 HOG3        0.0907   -6.0056   -4.7969 H         1 GTP         0.4102
     34 H5'         2.5589    0.5217   -2.5976 H         1 GTP         0.0289
     35 H5''        1.1982   -0.4388   -1.9617 H         1 GTP         0.0289
     36 H4'         3.8044   -0.1397   -0.4040 H         1 GTP         0.2056
     37 H3'         1.6764   -1.7639    0.2728 H         1 GTP         0.1140
     38 HO3'        2.2232   -1.2979    2.3953 H         1 GTP         0.4287
     39 H2'        -0.0011    0.0027    0.0003 H         1 GTP         0.0809
     40 HO2'       -0.6141    0.5574    2.1082 H         1 GTP         0.4385
     41 H1'         1.7826    1.9024    1.6451 H         1 GTP         0.0794
     42 H8          0.6787    2.3803   -1.9373 H         1 GTP         0.3821
     43 HN21       -2.1462    5.0320    4.5446 H         1 GTP         0.4411
     44 HN22       -0.9365    3.7712    4.6440 H         1 GTP         0.4411
     45 H45         0.0318    2.8419    2.8816 H         1 GTP         0.4819
     46 H46        -1.0718    4.2049   -2.0526 H         1 GTP         0.5182
@<TRIPOS>BOND
     1    1    2 2
     2    1    3 1
     3    1    4 1
     4    1    5 1
     5    4   33 1
     6    5    6 1
     7    6    7 2
     8    6    8 1
     9    6    9 1
    10    9   10 1
    11   10   11 2
    12   10   12 1
    13   10   13 1
    14   13   14 1
    15   14   15 1
    16   14   34 1
    17   14   35 1
    18   15   16 1
    19   15   17 1
    20   15   36 1
    21   16   21 1
    22   17   18 1
    23   17   19 1
    24   17   37 1
    25   18   38 1
    26   19   20 1
    27   19   21 1
    28   19   39 1
    29   20   40 1
    30   21   22 1
    31   21   41 1
    32   22   23 ar
    33   22   32 ar
    34   23   24 ar
    35   23   42 1
    36   24   25 ar
    37   24   46 1
    38   25   26 ar
    39   25   32 ar
    40   26   27 2
    41   26   28 ar
    42   28   29 ar
    43   29   30 1
    44   29   31 ar
    45   30   43 1
    46   30   44 1
    47   31   32 ar
    48   31   45 1
@<TRIPOS>SUBSTRUCTURE
     1 GTP         1 GROUP 0 A     ****
@<TRIPOS>MOLECULE
[[[5-(2-amino-6-oxo-7,8-dihydro-3~{H}-purin-8-ylium-9-yl)-3,4-dihydroxy-tetrahydrofuran-2-yl]methoxy-oxido-phosphoryl]oxy-oxido-phosphoryl] hydrogen phosphate
   46    48     1     0     0
SMALL
USER_CHARGES

@<TRIPOS>ATOM
      1 PG          0.5884   -2.7209   -6.9834 P.3       1 GTP         1.5447
      2 O1G        -0.4373   -3.8189   -7.1557 O.co2     1 GTP        -0.8705
      3 O2G         0.1779   -1.2651   -6.9945 O.co2     1 GTP        -0.8705
      4 O3G         1.7686   -2.9351   -8.0912 O.3       1 GTP        -0.7914
      5 O3B         1.4597   -3.0146   -5.6350 O.3       1 GTP        -0.8116
      6 PB          2.7807   -2.2495   -5.0560 P.3       1 GTP         1.6738
      7 O1B         3.1189   -2.8258   -3.6991 O.co2     1 GTP        -0.8763
      8 O2B         3.8153   -2.1517   -6.1548 O.co2     1 GTP        -0.8763
      9 O3A         2.1568   -0.7522   -4.8724 O.3       1 GTP        -0.8005
     10 PA          2.8621    0.6170   -4.3270 P.3       1 GTP         1.5754
     11 O1A         4.0956    0.8937   -5.1591 O.co2     1 GTP        -0.8771
     12 O2A         1.7927    1.6709   -4.1390 O.co2     1 GTP        -0.8771
     13 O5'         3.2903    0.1346   -2.8241 O.3       1 GTP        -0.5809
     14 C5'         2.2816   -0.2918   -1.9206 C.3       1 GTP         0.1986
     15 C4'         2.7248    0.0226   -0.4980 C.3       1 GTP         0.0418
     16 O4'         2.4697    1.4219   -0.2462 O.3       1 GTP        -0.3505
     17 C3'         1.9404   -0.7419    0.5596 C.3       1 GTP         0.0909
     18 O3'         2.7418   -0.8086    1.7389 O.3       1 GTP        -0.6187
     19 C2'         0.7477    0.1630    0.7858 C.3       1 GTP         0.0706
     20 O2'         0.1373   -0.0577    2.0407 O.3       1 GTP        -0.6294
     21 C1'         1.3733    1.5427    0.6747 C.3       1 GTP         0.3895
     22 N9          0.4520    2.5240    0.1767 N.pl3     1 GTP        -0.4733
     23 C8          0.2012    2.8401   -1.0899 C.ar      1 GTP         0.2958
     24 N7         -0.7168    3.7990   -1.1981 N.pl3     1 GTP        -0.4933
     25 C5         -1.0645    4.1043    0.0896 C.ar      1 GTP        -0.1494
     26 C6         -2.0336    5.0870    0.5973 C.ar      1 GTP         0.7954
     27 O6         -2.6730    5.7839   -0.1834 O.2       1 GTP        -0.5729
     28 N1         -2.1539    5.1517    1.9868 N.2       1 GTP        -0.7443
     29 C2         -1.4288    4.3650    2.7566 C.ar      1 GTP         0.8831
     30 N2         -1.5126    4.3922    4.1250 N.pl3     1 GTP        -0.9204
     31 N3         -0.5167    3.4388    2.2748 N.pl3     1 GTP        -0.7173
     32 C4         -0.3638    3.3392    0.9318 C.ar      1 GTP         0.2626
     33 HOG3        2.5142   -2.2979   -8.1083 H         1 GTP         0.4102
     34 H5'         1.3514    0.2330   -2.1577 H         1 GTP         0.0289
     35 H5''        2.1280   -1.3678   -2.0460 H         1 GTP         0.0289
     36 H4'         3.8044   -0.1397   -0.4040 H         1 GTP         0.2056
     37 H3'         1.6764   -1.7639    0.2728 H         1 GTP         0.1140
     38 HO3'        3.5554   -1.2733    1.4914 H         1 GTP         0.4287
     39 H2'        -0.0011    0.0027    0.0003 H         1 GTP         0.0809
     40 HO2'       -0.1563   -0.9855    2.0596 H         1 GTP         0.4385
     41 H1'         1.7826    1.9024    1.6451 H         1 GTP         0.0794
     42 H8          0.6787    2.3803   -1.9373 H         1 GTP         0.3821
     43 HN21       -2.1462    5.0320    4.5446 H         1 GTP         0.4411
     44 HN22       -0.9365    3.7712    4.6440 H         1 GTP         0.4411
     45 H45         0.0318    2.8419    2.8816 H         1 GTP         0.4819
     46 H46        -1.0718    4.2049   -2.0526 H         1 GTP         0.5182
@<TRIPOS>BOND
     1    1    2 2
     2    1    3 1
     3    1    4 1
     4    1    5 1
     5    4   33 1
     6    5    6 1
     7    6    7 2
     8    6    8 1
     9    6    9 1
    10    9   10 1
    11   10   11 2
    12   10   12 1
    13   10   13 1
    14   13   14 1
    15   14   15 1
    16   14   34 1
    17   14   35 1
    18   15   16 1
    19   15   17 1
    20   15   36 1
    21   16   21 1
    22   17   18 1
    23   17   19 1
    24   17   37 1
    25   18   38 1
    26   19   20 1
    27   19   21 1
    28   19   39 1
    29   20   40 1
    30   21   22 1
    31   21   41 1
    32   22   23 ar
    33   22   32 ar
    34   23   24 ar
    35   23   42 1
    36   24   25 ar
    37   24   46 1
    38   25   26 ar
    39   25   32 ar
    40   26   27 2
    41   26   28 ar
    42   28   29 ar
    43   29   30 1
    44   29   31 ar
    45   30   43 1
    46   30   44 1
    47   31   32 ar
    48   31   45 1
@<TRIPOS>SUBSTRUCTURE
     1 GTP         1 GROUP 0 A     ****
@<TRIPOS>MOLECULE
[[[5-(2-amino-6-oxo-7,8-dihydro-3~{H}-purin-8-ylium-9-yl)-3,4-dihydroxy-tetrahydrofuran-2-yl]methoxy-oxido-phosphoryl]oxy-oxido-phosphoryl] hydrogen phosphate
   46    48     1     0     0
SMALL
USER_CHARGES

@<TRIPOS>ATOM
      1 PG          4.2208    1.4323   -5.9598 P.3       1 GTP         1.5447
      2 O1G         4.6128    2.2305   -4.7364 O.co2     1 GTP        -0.8705
      3 O2G         4.4944    1.9580   -7.3514 O.co2     1 GTP        -0.8705
      4 O3G         2.6353    1.0585   -5.8492 O.3       1 GTP        -0.7914
      5 O3B         4.8385   -0.0730   -5.8321 O.3       1 GTP        -0.8116
      6 PB          4.7038   -1.1596   -4.6210 P.3       1 GTP         1.6738
      7 O1B         5.3485   -2.4559   -5.0587 O.co2     1 GTP        -0.8763
      8 O2B         5.0751   -0.4919   -3.3157 O.co2     1 GTP        -0.8763
      9 O3A         3.0809   -1.3355   -4.6062 O.3       1 GTP        -0.8005
     10 PA          2.1372   -2.2718   -3.6563 P.3       1 GTP         1.5754
     11 O1A         0.6864   -1.9828   -3.9759 O.co2     1 GTP        -0.8771
     12 O2A         2.6769   -3.6852   -3.6801 O.co2     1 GTP        -0.8771
     13 O5'         2.5245   -1.6648   -2.1878 O.3       1 GTP        -0.5809
     14 C5'         2.2816   -0.2918   -1.9206 C.3       1 GTP         0.1986
     15 C4'         2.7248    0.0226   -0.4980 C.3       1 GTP         0.0418
     16 O4'         2.4697    1.4219   -0.2462 O.3       1 GTP        -0.3505
     17 C3'         1.9404   -0.7419    0.5596 C.3       1 GTP         0.0909
     18 O3'         2.7418   -0.8086    1.7389 O.3       1 GTP        -0.6187
     19 C2'         0.7477    0.1630    0.7858 C.3       1 GTP         0.0706
     20 O2'         0.1373   -0.0577    2.0407 O.3       1 GTP        -0.6294
     21 C1'         1.3733    1.5427    0.6747 C.3       1 GTP         0.3895
     22 N9          0.4520    2.5240    0.1767 N.pl3     1 GTP        -0.4733
     23 C8          0.5427    3.2356   -0.9425 C.ar      1 GTP         0.2958
     24 N7         -0.4919    4.0590   -1.1018 N.pl3     1 GTP        -0.4933
     25 C5         -1.2850    3.8484   -0.0069 C.ar      1 GTP        -0.1494
     26 C6         -2.5644    4.4707    0.3650 C.ar      1 GTP         0.7954
     27 O6         -3.0718    5.3200   -0.3599 O.2       1 GTP        -0.5729
     28 N1         -3.1239    4.0269    1.5647 N.2       1 GTP        -0.7443
     29 C2         -2.5133    3.1079    2.2858 C.ar      1 GTP         0.8831
     30 N2         -3.0239    2.6409    3.4697 N.pl3     1 GTP        -0.9204
     31 N3         -1.3076    2.5223    1.9320 N.pl3     1 GTP        -0.7173
     32 C4         -0.7246    2.9211    0.7753 C.ar      1 GTP         0.2626
     33 HOG3        2.2268    0.5376   -6.5730 H         1 GTP         0.4102
     34 H5'         2.8432    0.3119   -2.6398 H         1 GTP         0.0289
     35 H5''        1.2128   -0.0927   -2.0428 H         1 GTP         0.0289
     36 H4'         3.8044   -0.1397   -0.4040 H         1 GTP         0.2056
     37 H3'         1.6764   -1.7639    0.2728 H         1 GTP         0.1140
     38 HO3'        3.5554   -1.2733    1.4914 H         1 GTP         0.4287
     39 H2'        -0.0011    0.0027    0.0003 H         1 GTP         0.0809
     40 HO2'       -0.1563   -0.9855    2.0596 H         1 GTP         0.4385
     41 H1'         1.7826    1.9024    1.6451 H         1 GTP         0.0794
     42 H8          1.3539    3.1622   -1.6455 H         1 GTP         0.3821
     43 HN21       -3.8871    3.0143    3.7893 H         1 GTP         0.4411
     44 HN22       -2.5108    1.9472    3.9621 H         1 GTP         0.4411
     45 H45        -0.8530    1.8168    2.4986 H         1 GTP         0.4819
     46 H46        -0.6466    4.6966   -1.8702 H         1 GTP         0.5182
@<TRIPOS>BOND
     1    1    2 2
     2    1    3 1
     3    1    4 1
     4    1    5 1
     5    4   33 1
     6    5    6 1
     7    6    7 2
     8    6    8 1
     9    6    9 1
    10    9   10 1
    11   10   11 2
    12   10   12 1
    13   10   13 1
    14   13   14 1
    15   14   15 1
    16   14   34 1
    17   14   35 1
    18   15   16 1
    19   15   17 1
    20   15   36 1
    21   16   21 1
    22   17   18 1
    23   17   19 1
    24   17   37 1
    25   18   38 1
    26   19   20 1
    27   19   21 1
    28   19   39 1
    29   20   40 1
    30   21   22 1
    31   21   41 1
    32   22   23 ar
    33   22   32 ar
    34   23   24 ar
    35   23   42 1
    36   24   25 ar
    37   24   46 1
    38   25   26 ar
    39   25   32 ar
    40   26   27 2
    41   26   28 ar
    42   28   29 ar
    43   29   30 1
    44   29   31 ar
    45   30   43 1
    46   30   44 1
    47   31   32 ar
    48   31   45 1
@<TRIPOS>SUBSTRUCTURE
     1 GTP         1 GROUP 0 A     ****
@<TRIPOS>MOLECULE
[[[5-(2-amino-6-oxo-7,8-dihydro-3~{H}-purin-8-ylium-9-yl)-3,4-dihydroxy-tetrahydrofuran-2-yl]methoxy-oxido-phosphoryl]oxy-oxido-phosphoryl] hydrogen phosphate
   46    48     1     0     0
SMALL
USER_CHARGES

@<TRIPOS>ATOM
      1 PG         -0.7794   -1.0072   -5.4765 P.3       1 GTP         1.5447
      2 O1G        -1.0592   -2.1818   -6.3873 O.co2     1 GTP        -0.8705
      3 O2G        -0.1236   -1.2079   -4.1284 O.co2     1 GTP        -0.8705
      4 O3G        -2.1686   -0.1773   -5.2588 O.3       1 GTP        -0.7914
      5 O3B         0.0551    0.1225   -6.3077 O.3       1 GTP        -0.8116
      6 PB          0.4851    1.6362   -5.8724 P.3       1 GTP         1.6738
      7 O1B         1.3696    2.2185   -6.9523 O.co2     1 GTP        -0.8763
      8 O2B        -0.7373    2.3707   -5.3687 O.co2     1 GTP        -0.8763
      9 O3A         1.3881    1.2844   -4.5588 O.3       1 GTP        -0.8005
     10 PA          2.7407    0.3769   -4.4297 P.3       1 GTP         1.5754
     11 O1A         2.4007   -1.0556   -4.7799 O.co2     1 GTP        -0.8771
     12 O2A         3.8776    1.1015   -5.1169 O.co2     1 GTP        -0.8771
     13 O5'         3.0213    0.5153   -2.8245 O.3       1 GTP        -0.5809
     14 C5'         2.2816   -0.2918   -1.9206 C.3       1 GTP         0.1986
     15 C4'         2.7248    0.0226   -0.4980 C.3       1 GTP         0.0418
     16 O4'         2.4697    1.4219   -0.2462 O.3       1 GTP        -0.3505
     17 C3'         1.9404   -0.7419    0.5596 C.3       1 GTP         0.0909
     18 O3'         2.7418   -0.8086    1.7389 O.3       1 GTP        -0.6187
     19 C2'         0.7477    0.1630    0.7858 C.3       1 GTP         0.0706
     20 O2'         0.1373   -0.0577    2.0407 O.3       1 GTP        -0.6294
     21 C1'         1.3733    1.5427    0.6747 C.3       1 GTP         0.3895
     22 N9          0.4520    2.5240    0.1767 N.pl3     1 GTP        -0.4733
     23 C8         -0.6872    2.9292    0.7291 C.ar      1 GTP         0.2958
     24 N7         -1.2991    3.8596   -0.0015 N.pl3     1 GTP        -0.4933
     25 C5         -0.4870    4.0499   -1.0861 C.ar      1 GTP        -0.1494
     26 C6         -0.6427    4.9562   -2.2336 C.ar      1 GTP         0.7954
     27 O6         -1.6219    5.6904   -2.3123 O.2       1 GTP        -0.5729
     28 N1          0.3798    4.9069   -3.1832 N.2       1 GTP        -0.7443
     29 C2          1.4004    4.0885   -3.0226 C.ar      1 GTP         0.8831
     30 N2          2.4275    4.0052   -3.9273 N.pl3     1 GTP        -0.9204
     31 N3          1.5448    3.2359   -1.9390 N.pl3     1 GTP        -0.7173
     32 C4          0.5769    3.2470   -0.9903 C.ar      1 GTP         0.2626
     33 HOG3       -2.1516    0.6197   -4.6872 H         1 GTP         0.4102
     34 H5'         1.2163   -0.0770   -2.0471 H         1 GTP         0.0289
     35 H5''        2.4655   -1.3443   -2.1563 H         1 GTP         0.0289
     36 H4'         3.8044   -0.1397   -0.4040 H         1 GTP         0.2056
     37 H3'         1.6764   -1.7639    0.2728 H         1 GTP         0.1140
     38 HO3'        2.2232   -1.2979    2.3953 H         1 GTP         0.4287
     39 H2'        -0.0011    0.0027    0.0003 H         1 GTP         0.0809
     40 HO2'       -0.1563   -0.9855    2.0596 H         1 GTP         0.4385
     41 H1'         1.7826    1.9024    1.6451 H         1 GTP         0.0794
     42 H8         -1.0786    2.5555    1.6591 H         1 GTP         0.3821
     43 HN21        2.3939    4.5871   -4.7317 H         1 GTP         0.4411
     44 HN22        3.1656    3.3663   -3.7434 H         1 GTP         0.4411
     45 H45         2.3366    2.6138   -1.8319 H         1 GTP         0.4819
     46 H46        -2.1740    4.3186    0.2105 H         1 GTP         0.5182
@<TRIPOS>BOND
     1    1    2 2
     2    1    3 1
     3    1    4 1
     4    1    5 1
     5    4   33 1
     6    5    6 1
     7    6    7 2
     8    6    8 1
     9    6    9 1
    10    9   10 1
    11   10   11 2
    12   10   12 1
    13   10   13 1
    14   13   14 1
    15   14   15 1
    16   14   34 1
    17   14   35 1
    18   15   16 1
    19   15   17 1
    20   15   36 1
    21   16   21 1
    22   17   18 1
    23   17   19 1
    24   17   37 1
    25   18   38 1
    26   19   20 1
    27   19   21 1
    28   19   39 1
    29   20   40 1
    30   21   22 1
    31   21   41 1
    32   22   23 ar
    33   22   32 ar
    34   23   24 ar
    35   23   42 1
    36   24   25 ar
    37   24   46 1
    38   25   26 ar
    39   25   32 ar
    40   26   27 2
    41   26   28 ar
    42   28   29 ar
    43   29   30 1
    44   29   31 ar
    45   30   43 1
    46   30   44 1
    47   31   32 ar
    48   31   45 1
@<TRIPOS>SUBSTRUCTURE
     1 GTP         1 GROUP 0 A     ****
@<TRIPOS>MOLECULE
[[[5-(2-amino-6-oxo-7,8-dihydro-3~{H}-purin-8-ylium-9-yl)-3,4-dihydroxy-tetrahydrofuran-2-yl]methoxy-oxido-phosphoryl]oxy-oxido-phosphoryl] hydrogen phosphate
   46    48     1     0     0
SMALL
USER_CHARGES

@<TRIPOS>ATOM
      1 PG          5.7238   -0.9297   -6.6199 P.3       1 GTP         1.5447
      2 O1G         6.3141   -0.2617   -7.8417 O.co2     1 GTP        -0.8705
      3 O2G         5.8513   -0.2988   -5.2512 O.co2     1 GTP        -0.8705
      4 O3G         6.2900   -2.4591   -6.5405 O.3       1 GTP        -0.7914
      5 O3B         4.1517   -1.2632   -6.9043 O.3       1 GTP        -0.8116
      6 PB          3.0816   -2.1054   -6.0036 P.3       1 GTP         1.6738
      7 O1B         1.7177   -2.0028   -6.6492 O.co2     1 GTP        -0.8763
      8 O2B         3.6872   -3.4430   -5.6408 O.co2     1 GTP        -0.8763
      9 O3A         3.1119   -1.1996   -4.6459 O.3       1 GTP        -0.8005
     10 PA          2.7407    0.3769   -4.4297 P.3       1 GTP         1.5754
     11 O1A         3.7274    1.2201   -5.2081 O.co2     1 GTP        -0.8771
     12 O2A         1.2486    0.5523   -4.6100 O.co2     1 GTP        -0.8771
     13 O5'         3.0213    0.5153   -2.8245 O.3       1 GTP        -0.5809
     14 C5'         2.2816   -0.2918   -1.9206 C.3       1 GTP         0.1986
     15 C4'         2.7248    0.0226   -0.4980 C.3       1 GTP         0.0418
     16 O4'         2.4697    1.4219   -0.2462 O.3       1 GTP        -0.3505
     17 C3'         1.9404   -0.7419    0.5596 C.3       1 GTP         0.0909
     18 O3'         2.7418   -0.8086    1.7389 O.3       1 GTP        -0.6187
     19 C2'         0.7477    0.1630    0.7858 C.3       1 GTP         0.0706
     20 O2'         0.1373   -0.0577    2.0407 O.3       1 GTP        -0.6294
     21 C1'         1.3733    1.5427    0.6747 C.3       1 GTP         0.3895
     22 N9          0.4520    2.5240    0.1767 N.pl3     1 GTP        -0.4733
     23 C8          0.2012    2.8401   -1.0899 C.ar      1 GTP         0.2958
     24 N7         -0.7168    3.7990   -1.1981 N.pl3     1 GTP        -0.4933
     25 C5         -1.0645    4.1043    0.0896 C.ar      1 GTP        -0.1494
     26 C6         -2.0336    5.0870    0.5973 C.ar      1 GTP         0.7954
     27 O6         -2.6730    5.7839   -0.1834 O.2       1 GTP        -0.5729
     28 N1         -2.1539    5.1517    1.9868 N.2       1 GTP        -0.7443
     29 C2         -1.4288    4.3650    2.7566 C.ar      1 GTP         0.8831
     30 N2         -1.5126    4.3922    4.1250 N.pl3     1 GTP        -0.9204
     31 N3         -0.5167    3.4388    2.2748 N.pl3     1 GTP        -0.7173
     32 C4         -0.3638    3.3392    0.9318 C.ar      1 GTP         0.2626
     33 HOG3        5.9966   -3.0276   -5.7969 H         1 GTP         0.4102
     34 H5'         1.2163   -0.0770   -2.0471 H         1 GTP         0.0289
     35 H5''        2.4655   -1.3443   -2.1563 H         1 GTP         0.0289
     36 H4'         3.8044   -0.1397   -0.4040 H         1 GTP         0.2056
     37 H3'         1.6764   -1.7639    0.2728 H         1 GTP         0.1140
     38 HO3'        3.5554   -1.2733    1.4914 H         1 GTP         0.4287
     39 H2'        -0.0011    0.0027    0.0003 H         1 GTP         0.0809
     40 HO2'        0.8082    0.1199    2.7232 H         1 GTP         0.4385
     41 H1'         1.7826    1.9024    1.6451 H         1 GTP         0.0794
     42 H8          0.6787    2.3803   -1.9373 H         1 GTP         0.3821
     43 HN21       -2.1462    5.0320    4.5446 H         1 GTP         0.4411
     44 HN22       -0.9365    3.7712    4.6440 H         1 GTP         0.4411
     45 H45         0.0318    2.8419    2.8816 H         1 GTP         0.4819
     46 H46        -1.0718    4.2049   -2.0526 H         1 GTP         0.5182
@<TRIPOS>BOND
     1    1    2 2
     2    1    3 1
     3    1    4 1
     4    1    5 1
     5    4   33 1
     6    5    6 1
     7    6    7 2
     8    6    8 1
     9    6    9 1
    10    9   10 1
    11   10   11 2
    12   10   12 1
    13   10   13 1
    14   13   14 1
    15   14   15 1
    16   14   34 1
    17   14   35 1
    18   15   16 1
    19   15   17 1
    20   15   36 1
    21   16   21 1
    22   17   18 1
    23   17   19 1
    24   17   37 1
    25   18   38 1
    26   19   20 1
    27   19   21 1
    28   19   39 1
    29   20   40 1
    30   21   22 1
    31   21   41 1
    32   22   23 ar
    33   22   32 ar
    34   23   24 ar
    35   23   42 1
    36   24   25 ar
    37   24   46 1
    38   25   26 ar
    39   25   32 ar
    40   26   27 2
    41   26   28 ar
    42   28   29 ar
    43   29   30 1
    44   29   31 ar
    45   30   43 1
    46   30   44 1
    47   31   32 ar
    48   31   45 1
@<TRIPOS>SUBSTRUCTURE
     1 GTP         1 GROUP 0 A     ****
@<TRIPOS>MOLECULE
[[[5-(2-amino-6-oxo-7,8-dihydro-3~{H}-purin-8-ylium-9-yl)-3,4-dihydroxy-tetrahydrofuran-2-yl]methoxy-oxido-phosphoryl]oxy-oxido-phosphoryl] hydrogen phosphate
   46    48     1     0     0
SMALL
USER_CHARGES

@<TRIPOS>ATOM
      1 PG         -3.4999   -1.7763   -2.9252 P.3       1 GTP         1.5447
      2 O1G        -4.0435   -3.1731   -3.1269 O.co2     1 GTP        -0.8705
      3 O2G        -3.6582   -1.0644   -1.6000 O.co2     1 GTP        -0.8705
      4 O3G        -4.0916   -0.8142   -4.1043 O.3       1 GTP        -0.7914
      5 O3B        -1.9254   -1.7519   -3.3540 O.3       1 GTP        -0.8116
      6 PB         -0.6416   -2.4864   -2.6626 P.3       1 GTP         1.6738
      7 O1B        -0.4248   -1.8921   -1.2888 O.co2     1 GTP        -0.8763
      8 O2B        -0.7573   -3.9802   -2.8698 O.co2     1 GTP        -0.8763
      9 O3A         0.5318   -1.9682   -3.6723 O.3       1 GTP        -0.8005
     10 PA          2.1372   -2.2718   -3.6563 P.3       1 GTP         1.5754
     11 O1A         2.3492   -3.7701   -3.6757 O.co2     1 GTP        -0.8771
     12 O2A         2.8102   -1.3732   -4.6709 O.co2     1 GTP        -0.8771
     13 O5'         2.5245   -1.6648   -2.1878 O.3       1 GTP        -0.5809
     14 C5'         2.2816   -0.2918   -1.9206 C.3       1 GTP         0.1986
     15 C4'         2.7248    0.0226   -0.4980 C.3       1 GTP         0.0418
     16 O4'         2.4697    1.4219   -0.2462 O.3       1 GTP        -0.3505
     17 C3'         1.9404   -0.7419    0.5596 C.3       1 GTP         0.0909
     18 O3'         2.7418   -0.8086    1.7389 O.3       1 GTP        -0.6187
     19 C2'         0.7477    0.1630    0.7858 C.3       1 GTP         0.0706
     20 O2'         0.1373   -0.0577    2.0407 O.3       1 GTP        -0.6294
     21 C1'         1.3733    1.5427    0.6747 C.3       1 GTP         0.3895
     22 N9          0.4520    2.5240    0.1767 N.pl3     1 GTP        -0.4733
     23 C8         -0.2136    2.5096   -0.9739 C.ar      1 GTP         0.2958
     24 N7         -0.9896    3.5820   -1.1212 N.pl3     1 GTP        -0.4933
     25 C5         -0.7962    4.3186    0.0156 C.ar      1 GTP        -0.1494
     26 C6         -1.3875    5.6031    0.4192 C.ar      1 GTP         0.7954
     27 O6         -2.1869    6.1731   -0.3158 O.2       1 GTP        -0.5729
     28 N1         -0.9745    6.0930    1.6597 N.2       1 GTP        -0.7443
     29 C2         -0.1105    5.4166    2.3900 C.ar      1 GTP         0.8831
     30 N2          0.3241    5.8571    3.6138 N.pl3     1 GTP        -0.9204
     31 N3          0.4444    4.2053    2.0072 N.pl3     1 GTP        -0.7173
     32 C4          0.0746    3.6889    0.8098 C.ar      1 GTP         0.2626
     33 HOG3       -3.8291    0.1309   -4.1114 H         1 GTP         0.4102
     34 H5'         2.8432    0.3119   -2.6398 H         1 GTP         0.0289
     35 H5''        1.2128   -0.0927   -2.0428 H         1 GTP         0.0289
     36 H4'         3.8044   -0.1397   -0.4040 H         1 GTP         0.2056
     37 H3'         1.6764   -1.7639    0.2728 H         1 GTP         0.1140
     38 HO3'        2.2232   -1.2979    2.3953 H         1 GTP         0.4287
     39 H2'        -0.0011    0.0027    0.0003 H         1 GTP         0.0809
     40 HO2'       -0.1563   -0.9855    2.0596 H         1 GTP         0.4385
     41 H1'         1.7826    1.9024    1.6451 H         1 GTP         0.0794
     42 H8         -0.1415    1.7265   -1.7082 H         1 GTP         0.3821
     43 HN21       -0.0303    6.7197    3.9559 H         1 GTP         0.4411
     44 HN22        0.9765    5.2967    4.1108 H         1 GTP         0.4411
     45 H45         1.1068    3.6990    2.5819 H         1 GTP         0.4819
     46 H46        -1.5877    3.7943   -1.9074 H         1 GTP         0.5182
@<TRIPOS>BOND
     1    1    2 2
     2    1    3 1
     3    1    4 1
     4    1    5 1
     5    4   33 1
     6    5    6 1
     7    6    7 2
     8    6    8 1
     9    6    9 1
    10    9   10 1
    11   10   11 2
    12   10   12 1
    13   10   13 1
    14   13   14 1
    15   14   15 1
    16   14   34 1
    17   14   35 1
    18   15   16 1
    19   15   17 1
    20   15   36 1
    21   16   21 1
    22   17   18 1
    23   17   19 1
    24   17   37 1
    25   18   38 1
    26   19   20 1
    27   19   21 1
    28   19   39 1
    29   20   40 1
    30   21   22 1
    31   21   41 1
    32   22   23 ar
    33   22   32 ar
    34   23   24 ar
    35   23   42 1
    36   24   25 ar
    37   24   46 1
    38   25   26 ar
    39   25   32 ar
    40   26   27 2
    41   26   28 ar
    42   28   29 ar
    43   29   30 1
    44   29   31 ar
    45   30   43 1
    46   30   44 1
    47   31   32 ar
    48   31   45 1
@<TRIPOS>SUBSTRUCTURE
     1 GTP         1 GROUP 0 A     ****
@<TRIPOS>MOLECULE
[[[5-(2-amino-6-oxo-7,8-dihydro-3~{H}-purin-8-ylium-9-yl)-3,4-dihydroxy-tetrahydrofuran-2-yl]methoxy-oxido-phosphoryl]oxy-oxido-phosphoryl] hydrogen phosphate
   46    48     1     0     0
SMALL
USER_CHARGES

@<TRIPOS>ATOM
      1 PG         -5.6414   -7.1443    0.1539 P.3       1 GTP         1.5447
      2 O1G        -5.4514   -8.6254   -0.0866 O.co2     1 GTP        -0.8705
      3 O2G        -7.0113   -6.5739    0.4466 O.co2     1 GTP        -0.8705
      4 O3G        -4.9981   -6.3277   -1.1051 O.3       1 GTP        -0.7914
      5 O3B        -4.6061   -6.6581    1.3181 O.3       1 GTP        -0.8116
      6 PB         -4.2762   -5.1548    1.8632 P.3       1 GTP         1.6738
      7 O1B        -3.6193   -4.3690    0.7504 O.co2     1 GTP        -0.8763
      8 O2B        -5.4833   -4.6223    2.6027 O.co2     1 GTP        -0.8763
      9 O3A        -3.1638   -5.5263    2.9987 O.3       1 GTP        -0.8005
     10 PA         -1.7207   -6.2770    2.8455 P.3       1 GTP         1.5754
     11 O1A        -1.0265   -6.2759    4.1903 O.co2     1 GTP        -0.8771
     12 O2A        -1.9224   -7.5608    2.0704 O.co2     1 GTP        -0.8771
     13 O5'        -0.9724   -5.2440    1.8220 O.3       1 GTP        -0.5809
     14 C5'        -0.7840   -3.8935    2.2172 C.3       1 GTP         0.1986
     15 C4'        -0.0724   -3.1466    1.1027 C.3       1 GTP         0.0418
     16 O4'        -0.8674   -3.1929   -0.0945 O.3       1 GTP        -0.3505
     17 C3'         0.1338   -1.6715    1.4027 C.3       1 GTP         0.0909
     18 O3'         1.2893   -1.4445    2.1808 O.3       1 GTP        -0.6187
     19 C2'         0.2158   -1.0724    0.0128 C.3       1 GTP         0.0706
     20 O2'         1.5141   -1.2448   -0.5513 O.3       1 GTP        -0.6294
     21 C1'        -0.7897   -1.9176   -0.7583 C.3       1 GTP         0.3895
     22 N9         -2.1040   -1.3333   -0.7704 N.pl3     1 GTP        -0.4733
     23 C8         -3.0774   -1.4939    0.1205 C.ar      1 GTP         0.2958
     24 N7         -4.1709   -0.8031   -0.1972 N.pl3     1 GTP        -0.4933
     25 C5         -3.8606   -0.1662   -1.3678 C.ar      1 GTP        -0.1494
     26 C6         -4.6738    0.7391   -2.1934 C.ar      1 GTP         0.7954
     27 O6         -5.8186    1.0214   -1.8562 O.2       1 GTP        -0.5729
     28 N1         -4.0520    1.2260   -3.3448 N.2       1 GTP        -0.7443
     29 C2         -2.8155    0.8734   -3.6351 C.ar      1 GTP         0.8831
     30 N2         -2.1637    1.3257   -4.7536 N.pl3     1 GTP        -0.9204
     31 N3         -2.0511    0.0205   -2.8541 N.pl3     1 GTP        -0.7173
     32 C4         -2.6117   -0.4790   -1.7258 C.ar      1 GTP         0.2626
     33 HOG3       -5.0423   -5.3477   -1.0976 H         1 GTP         0.4102
     34 H5'        -1.7618   -3.4448    2.4164 H         1 GTP         0.0289
     35 H5''       -0.1874   -3.8744    3.1341 H         1 GTP         0.0289
     36 H4'         0.8874   -3.6466    0.8805 H         1 GTP         0.2056
     37 H3'        -0.7376   -1.2333    1.9867 H         1 GTP         0.1140
     38 HO3'        1.3408   -0.4870    2.3219 H         1 GTP         0.4287
     39 H2'        -0.0384   -0.0310    0.0096 H         1 GTP         0.0809
     40 HO2'        2.1463   -0.7958    0.0370 H         1 GTP         0.4385
     41 H1'        -0.4769   -2.1002   -1.8093 H         1 GTP         0.0794
     42 H8         -3.0010   -2.1083    1.0004 H         1 GTP         0.3821
     43 HN21       -2.6485    1.9422   -5.3633 H         1 GTP         0.4411
     44 HN22       -1.2319    1.0195   -4.9110 H         1 GTP         0.4411
     45 H45        -1.1018   -0.2391   -3.0927 H         1 GTP         0.4819
     46 H46        -5.0365   -0.7653    0.3226 H         1 GTP         0.5182
@<TRIPOS>BOND
     1    1    2 2
     2    1    3 1
     3    1    4 1
     4    1    5 1
     5    4   33 1
     6    5    6 1
     7    6    7 2
     8    6    8 1
     9    6    9 1
    10    9   10 1
    11   10   11 2
    12   10   12 1
    13   10   13 1
    14   13   14 1
    15   14   15 1
    16   14   34 1
    17   14   35 1
    18   15   16 1
    19   15   17 1
    20   15   36 1
    21   16   21 1
    22   17   18 1
    23   17   19 1
    24   17   37 1
    25   18   38 1
    26   19   20 1
    27   19   21 1
    28   19   39 1
    29   20   40 1
    30   21   22 1
    31   21   41 1
    32   22   23 ar
    33   22   32 ar
    34   23   24 ar
    35   23   42 1
    36   24   25 ar
    37   24   46 1
    38   25   26 ar
    39   25   32 ar
    40   26   27 2
    41   26   28 ar
    42   28   29 ar
    43   29   30 1
    44   29   31 ar
    45   30   43 1
    46   30   44 1
    47   31   32 ar
    48   31   45 1
@<TRIPOS>SUBSTRUCTURE
     1 GTP         1 GROUP 0 A     ****
@<TRIPOS>MOLECULE
[[[5-(2-amino-6-oxo-7,8-dihydro-3~{H}-purin-8-ylium-9-yl)-3,4-dihydroxy-tetrahydrofuran-2-yl]methoxy-oxido-phosphoryl]oxy-oxido-phosphoryl] hydrogen phosphate
   46    48     1     0     0
SMALL
USER_CHARGES

@<TRIPOS>ATOM
      1 PG          4.4835   -4.6250   -5.7444 P.3       1 GTP         1.5447
      2 O1G         4.8031   -6.0752   -5.4576 O.co2     1 GTP        -0.8705
      3 O2G         3.0874   -4.2009   -6.1427 O.co2     1 GTP        -0.8705
      4 O3G         5.5328   -4.0749   -6.8678 O.3       1 GTP        -0.7914
      5 O3B         4.9733   -3.7135   -4.4822 O.3       1 GTP        -0.8116
      6 PB          5.0152   -2.0896   -4.3188 P.3       1 GTP         1.6738
      7 O1B         5.4233   -1.7553   -2.9013 O.co2     1 GTP        -0.8763
      8 O2B         5.7301   -1.4922   -5.5102 O.co2     1 GTP        -0.8763
      9 O3A         3.4281   -1.7650   -4.5203 O.3       1 GTP        -0.8005
     10 PA          2.1372   -2.2718   -3.6563 P.3       1 GTP         1.5754
     11 O1A         0.8958   -1.5923   -4.1925 O.co2     1 GTP        -0.8771
     12 O2A         2.2074   -3.7770   -3.5183 O.co2     1 GTP        -0.8771
     13 O5'         2.5245   -1.6648   -2.1878 O.3       1 GTP        -0.5809
     14 C5'         2.2816   -0.2918   -1.9206 C.3       1 GTP         0.1986
     15 C4'         2.7248    0.0226   -0.4980 C.3       1 GTP         0.0418
     16 O4'         2.4697    1.4219   -0.2462 O.3       1 GTP        -0.3505
     17 C3'         1.9404   -0.7419    0.5596 C.3       1 GTP         0.0909
     18 O3'         2.7418   -0.8086    1.7389 O.3       1 GTP        -0.6187
     19 C2'         0.7477    0.1630    0.7858 C.3       1 GTP         0.0706
     20 O2'         0.1373   -0.0577    2.0407 O.3       1 GTP        -0.6294
     21 C1'         1.3733    1.5427    0.6747 C.3       1 GTP         0.3895
     22 N9          0.4520    2.5240    0.1767 N.pl3     1 GTP        -0.4733
     23 C8          0.5427    3.2356   -0.9425 C.ar      1 GTP         0.2958
     24 N7         -0.4919    4.0590   -1.1018 N.pl3     1 GTP        -0.4933
     25 C5         -1.2850    3.8484   -0.0069 C.ar      1 GTP        -0.1494
     26 C6         -2.5644    4.4707    0.3650 C.ar      1 GTP         0.7954
     27 O6         -3.0718    5.3200   -0.3599 O.2       1 GTP        -0.5729
     28 N1         -3.1239    4.0269    1.5647 N.2       1 GTP        -0.7443
     29 C2         -2.5133    3.1079    2.2858 C.ar      1 GTP         0.8831
     30 N2         -3.0239    2.6409    3.4697 N.pl3     1 GTP        -0.9204
     31 N3         -1.3076    2.5223    1.9320 N.pl3     1 GTP        -0.7173
     32 C4         -0.7246    2.9211    0.7753 C.ar      1 GTP         0.2626
     33 HOG3        5.4548   -3.1426   -7.1627 H         1 GTP         0.4102
     34 H5'         2.8432    0.3119   -2.6398 H         1 GTP         0.0289
     35 H5''        1.2128   -0.0927   -2.0428 H         1 GTP         0.0289
     36 H4'         3.8044   -0.1397   -0.4040 H         1 GTP         0.2056
     37 H3'         1.6764   -1.7639    0.2728 H         1 GTP         0.1140
     38 HO3'        2.2232   -1.2979    2.3953 H         1 GTP         0.4287
     39 H2'        -0.0011    0.0027    0.0003 H         1 GTP         0.0809
     40 HO2'       -0.1563   -0.9855    2.0596 H         1 GTP         0.4385
     41 H1'         1.7826    1.9024    1.6451 H         1 GTP         0.0794
     42 H8          1.3539    3.1622   -1.6455 H         1 GTP         0.3821
     43 HN21       -3.8871    3.0143    3.7893 H         1 GTP         0.4411
     44 HN22       -2.5108    1.9472    3.9621 H         1 GTP         0.4411
     45 H45        -0.8530    1.8168    2.4986 H         1 GTP         0.4819
     46 H46        -0.6466    4.6966   -1.8702 H         1 GTP         0.5182
@<TRIPOS>BOND
     1    1    2 2
     2    1    3 1
     3    1    4 1
     4    1    5 1
     5    4   33 1
     6    5    6 1
     7    6    7 2
     8    6    8 1
     9    6    9 1
    10    9   10 1
    11   10   11 2
    12   10   12 1
    13   10   13 1
    14   13   14 1
    15   14   15 1
    16   14   34 1
    17   14   35 1
    18   15   16 1
    19   15   17 1
    20   15   36 1
    21   16   21 1
    22   17   18 1
    23   17   19 1
    24   17   37 1
    25   18   38 1
    26   19   20 1
    27   19   21 1
    28   19   39 1
    29   20   40 1
    30   21   22 1
    31   21   41 1
    32   22   23 ar
    33   22   32 ar
    34   23   24 ar
    35   23   42 1
    36   24   25 ar
    37   24   46 1
    38   25   26 ar
    39   25   32 ar
    40   26   27 2
    41   26   28 ar
    42   28   29 ar
    43   29   30 1
    44   29   31 ar
    45   30   43 1
    46   30   44 1
    47   31   32 ar
    48   31   45 1
@<TRIPOS>SUBSTRUCTURE
     1 GTP         1 GROUP 0 A     ****
@<TRIPOS>MOLECULE
[[[5-(2-amino-6-oxo-7,8-dihydro-3~{H}-purin-8-ylium-9-yl)-3,4-dihydroxy-tetrahydrofuran-2-yl]methoxy-oxido-phosphoryl]oxy-oxido-phosphoryl] hydrogen phosphate
   46    48     1     0     0
SMALL
USER_CHARGES

@<TRIPOS>ATOM
      1 PG         -1.2541   -1.4460   -4.9340 P.3       1 GTP         1.5447
      2 O1G        -2.6598   -0.8937   -5.0134 O.co2     1 GTP        -0.8705
      3 O2G        -1.0001   -2.9360   -4.9890 O.co2     1 GTP        -0.8705
      4 O3G        -0.5362   -0.8467   -3.5956 O.3       1 GTP        -0.7914
      5 O3B        -0.3299   -0.7100   -6.0600 O.3       1 GTP        -0.8116
      6 PB          1.2796   -0.8054   -6.3174 P.3       1 GTP         1.6738
      7 O1B         1.6595   -2.2605   -6.4776 O.co2     1 GTP        -0.8763
      8 O2B         1.6778    0.2342   -7.3413 O.co2     1 GTP        -0.8763
      9 O3A         1.8086   -0.2594   -4.8729 O.3       1 GTP        -0.8005
     10 PA          3.3343   -0.0514   -4.3264 P.3       1 GTP         1.5754
     11 O1A         4.0106   -1.4028   -4.2454 O.co2     1 GTP        -0.8771
     12 O2A         3.9675    1.0961   -5.0826 O.co2     1 GTP        -0.8771
     13 O5'         3.0213    0.5153   -2.8245 O.3       1 GTP        -0.5809
     14 C5'         2.2816   -0.2918   -1.9206 C.3       1 GTP         0.1986
     15 C4'         2.7248    0.0226   -0.4980 C.3       1 GTP         0.0418
     16 O4'         2.4697    1.4219   -0.2462 O.3       1 GTP        -0.3505
     17 C3'         1.9404   -0.7419    0.5596 C.3       1 GTP         0.0909
     18 O3'         2.7418   -0.8086    1.7389 O.3       1 GTP        -0.6187
     19 C2'         0.7477    0.1630    0.7858 C.3       1 GTP         0.0706
     20 O2'         0.1373   -0.0577    2.0407 O.3       1 GTP        -0.6294
     21 C1'         1.3733    1.5427    0.6747 C.3       1 GTP         0.3895
     22 N9          0.4520    2.5240    0.1767 N.pl3     1 GTP        -0.4733
     23 C8         -0.2136    2.5096   -0.9739 C.ar      1 GTP         0.2958
     24 N7         -0.9896    3.5820   -1.1212 N.pl3     1 GTP        -0.4933
     25 C5         -0.7962    4.3186    0.0156 C.ar      1 GTP        -0.1494
     26 C6         -1.3875    5.6031    0.4192 C.ar      1 GTP         0.7954
     27 O6         -2.1869    6.1731   -0.3158 O.2       1 GTP        -0.5729
     28 N1         -0.9745    6.0930    1.6597 N.2       1 GTP        -0.7443
     29 C2         -0.1105    5.4166    2.3900 C.ar      1 GTP         0.8831
     30 N2          0.3241    5.8571    3.6138 N.pl3     1 GTP        -0.9204
     31 N3          0.4444    4.2053    2.0072 N.pl3     1 GTP        -0.7173
     32 C4          0.0746    3.6889    0.8098 C.ar      1 GTP         0.2626
     33 HOG3        0.3877   -1.1137   -3.4020 H         1 GTP         0.4102
     34 H5'         1.2163   -0.0770   -2.0471 H         1 GTP         0.0289
     35 H5''        2.4655   -1.3443   -2.1563 H         1 GTP         0.0289
     36 H4'         3.8044   -0.1397   -0.4040 H         1 GTP         0.2056
     37 H3'         1.6764   -1.7639    0.2728 H         1 GTP         0.1140
     38 HO3'        2.2232   -1.2979    2.3953 H         1 GTP         0.4287
     39 H2'        -0.0011    0.0027    0.0003 H         1 GTP         0.0809
     40 HO2'       -0.6141    0.5574    2.1082 H         1 GTP         0.4385
     41 H1'         1.7826    1.9024    1.6451 H         1 GTP         0.0794
     42 H8         -0.1415    1.7265   -1.7082 H         1 GTP         0.3821
     43 HN21       -0.0303    6.7197    3.9559 H         1 GTP         0.4411
     44 HN22        0.9765    5.2967    4.1108 H         1 GTP         0.4411
     45 H45         1.1068    3.6990    2.5819 H         1 GTP         0.4819
     46 H46        -1.5877    3.7943   -1.9074 H         1 GTP         0.5182
@<TRIPOS>BOND
     1    1    2 2
     2    1    3 1
     3    1    4 1
     4    1    5 1
     5    4   33 1
     6    5    6 1
     7    6    7 2
     8    6    8 1
     9    6    9 1
    10    9   10 1
    11   10   11 2
    12   10   12 1
    13   10   13 1
    14   13   14 1
    15   14   15 1
    16   14   34 1
    17   14   35 1
    18   15   16 1
    19   15   17 1
    20   15   36 1
    21   16   21 1
    22   17   18 1
    23   17   19 1
    24   17   37 1
    25   18   38 1
    26   19   20 1
    27   19   21 1
    28   19   39 1
    29   20   40 1
    30   21   22 1
    31   21   41 1
    32   22   23 ar
    33   22   32 ar
    34   23   24 ar
    35   23   42 1
    36   24   25 ar
    37   24   46 1
    38   25   26 ar
    39   25   32 ar
    40   26   27 2
    41   26   28 ar
    42   28   29 ar
    43   29   30 1
    44   29   31 ar
    45   30   43 1
    46   30   44 1
    47   31   32 ar
    48   31   45 1
@<TRIPOS>SUBSTRUCTURE
     1 GTP         1 GROUP 0 A     ****
@<TRIPOS>MOLECULE
[[[5-(2-amino-6-oxo-7,8-dihydro-3~{H}-purin-8-ylium-9-yl)-3,4-dihydroxy-tetrahydrofuran-2-yl]methoxy-oxido-phosphoryl]oxy-oxido-phosphoryl] hydrogen phosphate
   46    48     1     0     0
SMALL
USER_CHARGES

@<TRIPOS>ATOM
      1 PG          4.0248    2.9258   -6.7569 P.3       1 GTP         1.5447
      2 O1G         4.5433    2.7050   -5.3533 O.co2     1 GTP        -0.8705
      3 O2G         4.9602    2.8933   -7.9450 O.co2     1 GTP        -0.8705
      4 O3G         3.1955    4.3319   -6.7882 O.3       1 GTP        -0.7914
      5 O3B         2.7843    1.9015   -7.0321 O.3       1 GTP        -0.8116
      6 PB          1.4216    1.6531   -6.1679 P.3       1 GTP         1.6738
      7 O1B         0.7195    2.9791   -5.9778 O.co2     1 GTP        -0.8763
      8 O2B         0.6982    0.4467   -6.7235 O.co2     1 GTP        -0.8763
      9 O3A         2.0898    1.1823   -4.7548 O.3       1 GTP        -0.8005
     10 PA          3.0675   -0.0857   -4.4293 P.3       1 GTP         1.5754
     11 O1A         2.3024   -1.3670   -4.6805 O.co2     1 GTP        -0.8771
     12 O2A         4.4130    0.1616   -5.0759 O.co2     1 GTP        -0.8771
     13 O5'         3.2903    0.1346   -2.8241 O.3       1 GTP        -0.5809
     14 C5'         2.2816   -0.2918   -1.9206 C.3       1 GTP         0.1986
     15 C4'         2.7248    0.0226   -0.4980 C.3       1 GTP         0.0418
     16 O4'         2.4697    1.4219   -0.2462 O.3       1 GTP        -0.3505
     17 C3'         1.9404   -0.7419    0.5596 C.3       1 GTP         0.0909
     18 O3'         2.7418   -0.8086    1.7389 O.3       1 GTP        -0.6187
     19 C2'         0.7477    0.1630    0.7858 C.3       1 GTP         0.0706
     20 O2'         0.1373   -0.0577    2.0407 O.3       1 GTP        -0.6294
     21 C1'         1.3733    1.5427    0.6747 C.3       1 GTP         0.3895
     22 N9          0.4520    2.5240    0.1767 N.pl3     1 GTP        -0.4733
     23 C8          0.2012    2.8401   -1.0899 C.ar      1 GTP         0.2958
     24 N7         -0.7168    3.7990   -1.1981 N.pl3     1 GTP        -0.4933
     25 C5         -1.0645    4.1043    0.0896 C.ar      1 GTP        -0.1494
     26 C6         -2.0336    5.0870    0.5973 C.ar      1 GTP         0.7954
     27 O6         -2.6730    5.7839   -0.1834 O.2       1 GTP        -0.5729
     28 N1         -2.1539    5.1517    1.9868 N.2       1 GTP        -0.7443
     29 C2         -1.4288    4.3650    2.7566 C.ar      1 GTP         0.8831
     30 N2         -1.5126    4.3922    4.1250 N.pl3     1 GTP        -0.9204
     31 N3         -0.5167    3.4388    2.2748 N.pl3     1 GTP        -0.7173
     32 C4         -0.3638    3.3392    0.9318 C.ar      1 GTP         0.2626
     33 HOG3        2.7932    4.6178   -7.6360 H         1 GTP         0.4102
     34 H5'         1.3514    0.2330   -2.1577 H         1 GTP         0.0289
     35 H5''        2.1280   -1.3678   -2.0460 H         1 GTP         0.0289
     36 H4'         3.8044   -0.1397   -0.4040 H         1 GTP         0.2056
     37 H3'         1.6764   -1.7639    0.2728 H         1 GTP         0.1140
     38 HO3'        2.2232   -1.2979    2.3953 H         1 GTP         0.4287
     39 H2'        -0.0011    0.0027    0.0003 H         1 GTP         0.0809
     40 HO2'       -0.6141    0.5574    2.1082 H         1 GTP         0.4385
     41 H1'         1.7826    1.9024    1.6451 H         1 GTP         0.0794
     42 H8          0.6787    2.3803   -1.9373 H         1 GTP         0.3821
     43 HN21       -2.1462    5.0320    4.5446 H         1 GTP         0.4411
     44 HN22       -0.9365    3.7712    4.6440 H         1 GTP         0.4411
     45 H45         0.0318    2.8419    2.8816 H         1 GTP         0.4819
     46 H46        -1.0718    4.2049   -2.0526 H         1 GTP         0.5182
@<TRIPOS>BOND
     1    1    2 2
     2    1    3 1
     3    1    4 1
     4    1    5 1
     5    4   33 1
     6    5    6 1
     7    6    7 2
     8    6    8 1
     9    6    9 1
    10    9   10 1
    11   10   11 2
    12   10   12 1
    13   10   13 1
    14   13   14 1
    15   14   15 1
    16   14   34 1
    17   14   35 1
    18   15   16 1
    19   15   17 1
    20   15   36 1
    21   16   21 1
    22   17   18 1
    23   17   19 1
    24   17   37 1
    25   18   38 1
    26   19   20 1
    27   19   21 1
    28   19   39 1
    29   20   40 1
    30   21   22 1
    31   21   41 1
    32   22   23 ar
    33   22   32 ar
    34   23   24 ar
    35   23   42 1
    36   24   25 ar
    37   24   46 1
    38   25   26 ar
    39   25   32 ar
    40   26   27 2
    41   26   28 ar
    42   28   29 ar
    43   29   30 1
    44   29   31 ar
    45   30   43 1
    46   30   44 1
    47   31   32 ar
    48   31   45 1
@<TRIPOS>SUBSTRUCTURE
     1 GTP         1 GROUP 0 A     ****
@<TRIPOS>MOLECULE
[[[5-(2-amino-6-oxo-7,8-dihydro-3~{H}-purin-8-ylium-9-yl)-3,4-dihydroxy-tetrahydrofuran-2-yl]methoxy-oxido-phosphoryl]oxy-oxido-phosphoryl] hydrogen phosphate
   46    48     1     0     0
SMALL
USER_CHARGES

@<TRIPOS>ATOM
      1 PG          5.0788   -2.8951   -6.8011 P.3       1 GTP         1.5447
      2 O1G         4.3602   -4.0524   -7.4580 O.co2     1 GTP        -0.8705
      3 O2G         6.0728   -2.0576   -7.5745 O.co2     1 GTP        -0.8705
      4 O3G         5.8045   -3.4386   -5.4432 O.3       1 GTP        -0.7914
      5 O3B         3.9768   -1.9071   -6.1132 O.3       1 GTP        -0.8116
      6 PB          2.7807   -2.2495   -5.0560 P.3       1 GTP         1.6738
      7 O1B         1.7673   -3.1386   -5.7417 O.co2     1 GTP        -0.8763
      8 O2B         3.3919   -2.6260   -3.7247 O.co2     1 GTP        -0.8763
      9 O3A         2.1568   -0.7522   -4.8724 O.3       1 GTP        -0.8005
     10 PA          2.8621    0.6170   -4.3270 P.3       1 GTP         1.5754
     11 O1A         4.0956    0.8937   -5.1591 O.co2     1 GTP        -0.8771
     12 O2A         1.7927    1.6709   -4.1390 O.co2     1 GTP        -0.8771
     13 O5'         3.2903    0.1346   -2.8241 O.3       1 GTP        -0.5809
     14 C5'         2.2816   -0.2918   -1.9206 C.3       1 GTP         0.1986
     15 C4'         2.7248    0.0226   -0.4980 C.3       1 GTP         0.0418
     16 O4'         2.4697    1.4219   -0.2462 O.3       1 GTP        -0.3505
     17 C3'         1.9404   -0.7419    0.5596 C.3       1 GTP         0.0909
     18 O3'         2.7418   -0.8086    1.7389 O.3       1 GTP        -0.6187
     19 C2'         0.7477    0.1630    0.7858 C.3       1 GTP         0.0706
     20 O2'         0.1373   -0.0577    2.0407 O.3       1 GTP        -0.6294
     21 C1'         1.3733    1.5427    0.6747 C.3       1 GTP         0.3895
     22 N9          0.4520    2.5240    0.1767 N.pl3     1 GTP        -0.4733
     23 C8          0.5427    3.2356   -0.9425 C.ar      1 GTP         0.2958
     24 N7         -0.4919    4.0590   -1.1018 N.pl3     1 GTP        -0.4933
     25 C5         -1.2850    3.8484   -0.0069 C.ar      1 GTP        -0.1494
     26 C6         -2.5644    4.4707    0.3650 C.ar      1 GTP         0.7954
     27 O6         -3.0718    5.3200   -0.3599 O.2       1 GTP        -0.5729
     28 N1         -3.1239    4.0269    1.5647 N.2       1 GTP        -0.7443
     29 C2         -2.5133    3.1079    2.2858 C.ar      1 GTP         0.8831
     30 N2         -3.0239    2.6409    3.4697 N.pl3     1 GTP        -0.9204
     31 N3         -1.3076    2.5223    1.9320 N.pl3     1 GTP        -0.7173
     32 C4         -0.7246    2.9211    0.7753 C.ar      1 GTP         0.2626
     33 HOG3        6.3159   -2.8016   -4.9001 H         1 GTP         0.4102
     34 H5'         1.3514    0.2330   -2.1577 H         1 GTP         0.0289
     35 H5''        2.1280   -1.3678   -2.0460 H         1 GTP         0.0289
     36 H4'         3.8044   -0.1397   -0.4040 H         1 GTP         0.2056
     37 H3'         1.6764   -1.7639    0.2728 H         1 GTP         0.1140
     38 HO3'        2.2232   -1.2979    2.3953 H         1 GTP         0.4287
     39 H2'        -0.0011    0.0027    0.0003 H         1 GTP         0.0809
     40 HO2'       -0.1563   -0.9855    2.0596 H         1 GTP         0.4385
     41 H1'         1.7826    1.9024    1.6451 H         1 GTP         0.0794
     42 H8          1.3539    3.1622   -1.6455 H         1 GTP         0.3821
     43 HN21       -3.8871    3.0143    3.7893 H         1 GTP         0.4411
     44 HN22       -2.5108    1.9472    3.9621 H         1 GTP         0.4411
     45 H45        -0.8530    1.8168    2.4986 H         1 GTP         0.4819
     46 H46        -0.6466    4.6966   -1.8702 H         1 GTP         0.5182
@<TRIPOS>BOND
     1    1    2 2
     2    1    3 1
     3    1    4 1
     4    1    5 1
     5    4   33 1
     6    5    6 1
     7    6    7 2
     8    6    8 1
     9    6    9 1
    10    9   10 1
    11   10   11 2
    12   10   12 1
    13   10   13 1
    14   13   14 1
    15   14   15 1
    16   14   34 1
    17   14   35 1
    18   15   16 1
    19   15   17 1
    20   15   36 1
    21   16   21 1
    22   17   18 1
    23   17   19 1
    24   17   37 1
    25   18   38 1
    26   19   20 1
    27   19   21 1
    28   19   39 1
    29   20   40 1
    30   21   22 1
    31   21   41 1
    32   22   23 ar
    33   22   32 ar
    34   23   24 ar
    35   23   42 1
    36   24   25 ar
    37   24   46 1
    38   25   26 ar
    39   25   32 ar
    40   26   27 2
    41   26   28 ar
    42   28   29 ar
    43   29   30 1
    44   29   31 ar
    45   30   43 1
    46   30   44 1
    47   31   32 ar
    48   31   45 1
@<TRIPOS>SUBSTRUCTURE
     1 GTP         1 GROUP 0 A     ****
@<TRIPOS>MOLECULE
[[[5-(2-amino-6-oxo-7,8-dihydro-3~{H}-purin-8-ylium-9-yl)-3,4-dihydroxy-tetrahydrofuran-2-yl]methoxy-oxido-phosphoryl]oxy-oxido-phosphoryl] hydrogen phosphate
   46    48     1     0     0
SMALL
USER_CHARGES

@<TRIPOS>ATOM
      1 PG          0.7867    0.2891   -6.3059 P.3       1 GTP         1.5447
      2 O1G        -0.5061    0.1930   -7.0850 O.co2     1 GTP        -0.8705
      3 O2G         0.7777    0.4912   -4.8070 O.co2     1 GTP        -0.8705
      4 O3G         1.7134    1.4520   -6.9803 O.3       1 GTP        -0.7914
      5 O3B         1.7175   -1.0040   -6.6597 O.3       1 GTP        -0.8116
      6 PB          3.2576   -1.3334   -6.2291 P.3       1 GTP         1.6738
      7 O1B         3.6054   -2.7275   -6.7012 O.co2     1 GTP        -0.8763
      8 O2B         4.1288   -0.1434   -6.5645 O.co2     1 GTP        -0.8763
      9 O3A         3.0809   -1.3355   -4.6062 O.3       1 GTP        -0.8005
     10 PA          2.1372   -2.2718   -3.6563 P.3       1 GTP         1.5754
     11 O1A         0.6864   -1.9828   -3.9759 O.co2     1 GTP        -0.8771
     12 O2A         2.6769   -3.6852   -3.6801 O.co2     1 GTP        -0.8771
     13 O5'         2.5245   -1.6648   -2.1878 O.3       1 GTP        -0.5809
     14 C5'         2.2816   -0.2918   -1.9206 C.3       1 GTP         0.1986
     15 C4'         2.7248    0.0226   -0.4980 C.3       1 GTP         0.0418
     16 O4'         2.4697    1.4219   -0.2462 O.3       1 GTP        -0.3505
     17 C3'         1.9404   -0.7419    0.5596 C.3       1 GTP         0.0909
     18 O3'         2.7418   -0.8086    1.7389 O.3       1 GTP        -0.6187
     19 C2'         0.7477    0.1630    0.7858 C.3       1 GTP         0.0706
     20 O2'         0.1373   -0.0577    2.0407 O.3       1 GTP        -0.6294
     21 C1'         1.3733    1.5427    0.6747 C.3       1 GTP         0.3895
     22 N9          0.4520    2.5240    0.1767 N.pl3     1 GTP        -0.4733
     23 C8         -0.2136    2.5096   -0.9739 C.ar      1 GTP         0.2958
     24 N7         -0.9896    3.5820   -1.1212 N.pl3     1 GTP        -0.4933
     25 C5         -0.7962    4.3186    0.0156 C.ar      1 GTP        -0.1494
     26 C6         -1.3875    5.6031    0.4192 C.ar      1 GTP         0.7954
     27 O6         -2.1869    6.1731   -0.3158 O.2       1 GTP        -0.5729
     28 N1         -0.9745    6.0930    1.6597 N.2       1 GTP        -0.7443
     29 C2         -0.1105    5.4166    2.3900 C.ar      1 GTP         0.8831
     30 N2          0.3241    5.8571    3.6138 N.pl3     1 GTP        -0.9204
     31 N3          0.4444    4.2053    2.0072 N.pl3     1 GTP        -0.7173
     32 C4          0.0746    3.6889    0.8098 C.ar      1 GTP         0.2626
     33 HOG3        2.5921    1.6366   -6.5851 H         1 GTP         0.4102
     34 H5'         2.8432    0.3119   -2.6398 H         1 GTP         0.0289
     35 H5''        1.2128   -0.0927   -2.0428 H         1 GTP         0.0289
     36 H4'         3.8044   -0.1397   -0.4040 H         1 GTP         0.2056
     37 H3'         1.6764   -1.7639    0.2728 H         1 GTP         0.1140
     38 HO3'        2.2232   -1.2979    2.3953 H         1 GTP         0.4287
     39 H2'        -0.0011    0.0027    0.0003 H         1 GTP         0.0809
     40 HO2'       -0.6141    0.5574    2.1082 H         1 GTP         0.4385
     41 H1'         1.7826    1.9024    1.6451 H         1 GTP         0.0794
     42 H8         -0.1415    1.7265   -1.7082 H         1 GTP         0.3821
     43 HN21       -0.0303    6.7197    3.9559 H         1 GTP         0.4411
     44 HN22        0.9765    5.2967    4.1108 H         1 GTP         0.4411
     45 H45         1.1068    3.6990    2.5819 H         1 GTP         0.4819
     46 H46        -1.5877    3.7943   -1.9074 H         1 GTP         0.5182
@<TRIPOS>BOND
     1    1    2 2
     2    1    3 1
     3    1    4 1
     4    1    5 1
     5    4   33 1
     6    5    6 1
     7    6    7 2
     8    6    8 1
     9    6    9 1
    10    9   10 1
    11   10   11 2
    12   10   12 1
    13   10   13 1
    14   13   14 1
    15   14   15 1
    16   14   34 1
    17   14   35 1
    18   15   16 1
    19   15   17 1
    20   15   36 1
    21   16   21 1
    22   17   18 1
    23   17   19 1
    24   17   37 1
    25   18   38 1
    26   19   20 1
    27   19   21 1
    28   19   39 1
    29   20   40 1
    30   21   22 1
    31   21   41 1
    32   22   23 ar
    33   22   32 ar
    34   23   24 ar
    35   23   42 1
    36   24   25 ar
    37   24   46 1
    38   25   26 ar
    39   25   32 ar
    40   26   27 2
    41   26   28 ar
    42   28   29 ar
    43   29   30 1
    44   29   31 ar
    45   30   43 1
    46   30   44 1
    47   31   32 ar
    48   31   45 1
@<TRIPOS>SUBSTRUCTURE
     1 GTP         1 GROUP 0 A     ****
@<TRIPOS>MOLECULE
[[[5-(2-amino-6-oxo-7,8-dihydro-3~{H}-purin-8-ylium-9-yl)-3,4-dihydroxy-tetrahydrofuran-2-yl]methoxy-oxido-phosphoryl]oxy-oxido-phosphoryl] hydrogen phosphate
   46    48     1     0     0
SMALL
USER_CHARGES

@<TRIPOS>ATOM
      1 PG         -0.1878   -2.0007   -5.4962 P.3       1 GTP         1.5447
      2 O1G         0.0171   -1.2901   -4.1770 O.co2     1 GTP        -0.8705
      3 O2G        -1.2376   -1.5298   -6.4780 O.co2     1 GTP        -0.8705
      4 O3G        -0.4313   -3.5875   -5.1983 O.3       1 GTP        -0.7914
      5 O3B         1.2460   -2.1119   -6.2680 O.3       1 GTP        -0.8116
      6 PB          2.6728   -2.7073   -5.7432 P.3       1 GTP         1.6738
      7 O1B         2.4554   -4.1186   -5.2448 O.co2     1 GTP        -0.8763
      8 O2B         3.7461   -2.3827   -6.7583 O.co2     1 GTP        -0.8763
      9 O3A         2.9205   -1.7124   -4.4729 O.3       1 GTP        -0.8005
     10 PA          3.0675   -0.0857   -4.4293 P.3       1 GTP         1.5754
     11 O1A         4.3144    0.3107   -5.1899 O.co2     1 GTP        -0.8771
     12 O2A         1.7243    0.5309   -4.7535 O.co2     1 GTP        -0.8771
     13 O5'         3.2903    0.1346   -2.8241 O.3       1 GTP        -0.5809
     14 C5'         2.2816   -0.2918   -1.9206 C.3       1 GTP         0.1986
     15 C4'         2.7248    0.0226   -0.4980 C.3       1 GTP         0.0418
     16 O4'         2.4697    1.4219   -0.2462 O.3       1 GTP        -0.3505
     17 C3'         1.9404   -0.7419    0.5596 C.3       1 GTP         0.0909
     18 O3'         2.7418   -0.8086    1.7389 O.3       1 GTP        -0.6187
     19 C2'         0.7477    0.1630    0.7858 C.3       1 GTP         0.0706
     20 O2'         0.1373   -0.0577    2.0407 O.3       1 GTP        -0.6294
     21 C1'         1.3733    1.5427    0.6747 C.3       1 GTP         0.3895
     22 N9          0.4520    2.5240    0.1767 N.pl3     1 GTP        -0.4733
     23 C8          0.2012    2.8401   -1.0899 C.ar      1 GTP         0.2958
     24 N7         -0.7168    3.7990   -1.1981 N.pl3     1 GTP        -0.4933
     25 C5         -1.0645    4.1043    0.0896 C.ar      1 GTP        -0.1494
     26 C6         -2.0336    5.0870    0.5973 C.ar      1 GTP         0.7954
     27 O6         -2.6730    5.7839   -0.1834 O.2       1 GTP        -0.5729
     28 N1         -2.1539    5.1517    1.9868 N.2       1 GTP        -0.7443
     29 C2         -1.4288    4.3650    2.7566 C.ar      1 GTP         0.8831
     30 N2         -1.5126    4.3922    4.1250 N.pl3     1 GTP        -0.9204
     31 N3         -0.5167    3.4388    2.2748 N.pl3     1 GTP        -0.7173
     32 C4         -0.3638    3.3392    0.9318 C.ar      1 GTP         0.2626
     33 HOG3       -0.5811   -4.1879   -5.9595 H         1 GTP         0.4102
     34 H5'         1.3514    0.2330   -2.1577 H         1 GTP         0.0289
     35 H5''        2.1280   -1.3678   -2.0460 H         1 GTP         0.0289
     36 H4'         3.8044   -0.1397   -0.4040 H         1 GTP         0.2056
     37 H3'         1.6764   -1.7639    0.2728 H         1 GTP         0.1140
     38 HO3'        2.2232   -1.2979    2.3953 H         1 GTP         0.4287
     39 H2'        -0.0011    0.0027    0.0003 H         1 GTP         0.0809
     40 HO2'       -0.6141    0.5574    2.1082 H         1 GTP         0.4385
     41 H1'         1.7826    1.9024    1.6451 H         1 GTP         0.0794
     42 H8          0.6787    2.3803   -1.9373 H         1 GTP         0.3821
     43 HN21       -2.1462    5.0320    4.5446 H         1 GTP         0.4411
     44 HN22       -0.9365    3.7712    4.6440 H         1 GTP         0.4411
     45 H45         0.0318    2.8419    2.8816 H         1 GTP         0.4819
     46 H46        -1.0718    4.2049   -2.0526 H         1 GTP         0.5182
@<TRIPOS>BOND
     1    1    2 2
     2    1    3 1
     3    1    4 1
     4    1    5 1
     5    4   33 1
     6    5    6 1
     7    6    7 2
     8    6    8 1
     9    6    9 1
    10    9   10 1
    11   10   11 2
    12   10   12 1
    13   10   13 1
    14   13   14 1
    15   14   15 1
    16   14   34 1
    17   14   35 1
    18   15   16 1
    19   15   17 1
    20   15   36 1
    21   16   21 1
    22   17   18 1
    23   17   19 1
    24   17   37 1
    25   18   38 1
    26   19   20 1
    27   19   21 1
    28   19   39 1
    29   20   40 1
    30   21   22 1
    31   21   41 1
    32   22   23 ar
    33   22   32 ar
    34   23   24 ar
    35   23   42 1
    36   24   25 ar
    37   24   46 1
    38   25   26 ar
    39   25   32 ar
    40   26   27 2
    41   26   28 ar
    42   28   29 ar
    43   29   30 1
    44   29   31 ar
    45   30   43 1
    46   30   44 1
    47   31   32 ar
    48   31   45 1
@<TRIPOS>SUBSTRUCTURE
     1 GTP         1 GROUP 0 A     ****
@<TRIPOS>MOLECULE
[[[5-(2-amino-6-oxo-7,8-dihydro-3~{H}-purin-8-ylium-9-yl)-3,4-dihydroxy-tetrahydrofuran-2-yl]methoxy-oxido-phosphoryl]oxy-oxido-phosphoryl] hydrogen phosphate
   46    48     1     0     0
SMALL
USER_CHARGES

@<TRIPOS>ATOM
      1 PG         -3.4999   -1.7763   -2.9252 P.3       1 GTP         1.5447
      2 O1G        -4.0435   -3.1731   -3.1269 O.co2     1 GTP        -0.8705
      3 O2G        -3.6582   -1.0644   -1.6000 O.co2     1 GTP        -0.8705
      4 O3G        -4.0916   -0.8142   -4.1043 O.3       1 GTP        -0.7914
      5 O3B        -1.9254   -1.7519   -3.3540 O.3       1 GTP        -0.8116
      6 PB         -0.6416   -2.4864   -2.6626 P.3       1 GTP         1.6738
      7 O1B        -0.4248   -1.8921   -1.2888 O.co2     1 GTP        -0.8763
      8 O2B        -0.7573   -3.9802   -2.8698 O.co2     1 GTP        -0.8763
      9 O3A         0.5318   -1.9682   -3.6723 O.3       1 GTP        -0.8005
     10 PA          2.1372   -2.2718   -3.6563 P.3       1 GTP         1.5754
     11 O1A         2.3492   -3.7701   -3.6757 O.co2     1 GTP        -0.8771
     12 O2A         2.8102   -1.3732   -4.6709 O.co2     1 GTP        -0.8771
     13 O5'         2.5245   -1.6648   -2.1878 O.3       1 GTP        -0.5809
     14 C5'         2.2816   -0.2918   -1.9206 C.3       1 GTP         0.1986
     15 C4'         2.7248    0.0226   -0.4980 C.3       1 GTP         0.0418
     16 O4'         2.4697    1.4219   -0.2462 O.3       1 GTP        -0.3505
     17 C3'         1.9404   -0.7419    0.5596 C.3       1 GTP         0.0909
     18 O3'         2.7418   -0.8086    1.7389 O.3       1 GTP        -0.6187
     19 C2'         0.7477    0.1630    0.7858 C.3       1 GTP         0.0706
     20 O2'         0.1373   -0.0577    2.0407 O.3       1 GTP        -0.6294
     21 C1'         1.3733    1.5427    0.6747 C.3       1 GTP         0.3895
     22 N9          0.4520    2.5240    0.1767 N.pl3     1 GTP        -0.4733
     23 C8          0.5427    3.2356   -0.9425 C.ar      1 GTP         0.2958
     24 N7         -0.4919    4.0590   -1.1018 N.pl3     1 GTP        -0.4933
     25 C5         -1.2850    3.8484   -0.0069 C.ar      1 GTP        -0.1494
     26 C6         -2.5644    4.4707    0.3650 C.ar      1 GTP         0.7954
     27 O6         -3.0718    5.3200   -0.3599 O.2       1 GTP        -0.5729
     28 N1         -3.1239    4.0269    1.5647 N.2       1 GTP        -0.7443
     29 C2         -2.5133    3.1079    2.2858 C.ar      1 GTP         0.8831
     30 N2         -3.0239    2.6409    3.4697 N.pl3     1 GTP        -0.9204
     31 N3         -1.3076    2.5223    1.9320 N.pl3     1 GTP        -0.7173
     32 C4         -0.7246    2.9211    0.7753 C.ar      1 GTP         0.2626
     33 HOG3       -3.8291    0.1309   -4.1114 H         1 GTP         0.4102
     34 H5'         2.8432    0.3119   -2.6398 H         1 GTP         0.0289
     35 H5''        1.2128   -0.0927   -2.0428 H         1 GTP         0.0289
     36 H4'         3.8044   -0.1397   -0.4040 H         1 GTP         0.2056
     37 H3'         1.6764   -1.7639    0.2728 H         1 GTP         0.1140
     38 HO3'        2.2232   -1.2979    2.3953 H         1 GTP         0.4287
     39 H2'        -0.0011    0.0027    0.0003 H         1 GTP         0.0809
     40 HO2'       -0.1563   -0.9855    2.0596 H         1 GTP         0.4385
     41 H1'         1.7826    1.9024    1.6451 H         1 GTP         0.0794
     42 H8          1.3539    3.1622   -1.6455 H         1 GTP         0.3821
     43 HN21       -3.8871    3.0143    3.7893 H         1 GTP         0.4411
     44 HN22       -2.5108    1.9472    3.9621 H         1 GTP         0.4411
     45 H45        -0.8530    1.8168    2.4986 H         1 GTP         0.4819
     46 H46        -0.6466    4.6966   -1.8702 H         1 GTP         0.5182
@<TRIPOS>BOND
     1    1    2 2
     2    1    3 1
     3    1    4 1
     4    1    5 1
     5    4   33 1
     6    5    6 1
     7    6    7 2
     8    6    8 1
     9    6    9 1
    10    9   10 1
    11   10   11 2
    12   10   12 1
    13   10   13 1
    14   13   14 1
    15   14   15 1
    16   14   34 1
    17   14   35 1
    18   15   16 1
    19   15   17 1
    20   15   36 1
    21   16   21 1
    22   17   18 1
    23   17   19 1
    24   17   37 1
    25   18   38 1
    26   19   20 1
    27   19   21 1
    28   19   39 1
    29   20   40 1
    30   21   22 1
    31   21   41 1
    32   22   23 ar
    33   22   32 ar
    34   23   24 ar
    35   23   42 1
    36   24   25 ar
    37   24   46 1
    38   25   26 ar
    39   25   32 ar
    40   26   27 2
    41   26   28 ar
    42   28   29 ar
    43   29   30 1
    44   29   31 ar
    45   30   43 1
    46   30   44 1
    47   31   32 ar
    48   31   45 1
@<TRIPOS>SUBSTRUCTURE
     1 GTP         1 GROUP 0 A     ****
@<TRIPOS>MOLECULE
[[[5-(2-amino-6-oxo-7,8-dihydro-3~{H}-purin-8-ylium-9-yl)-3,4-dihydroxy-tetrahydrofuran-2-yl]methoxy-oxido-phosphoryl]oxy-oxido-phosphoryl] hydrogen phosphate
   46    48     1     0     0
SMALL
USER_CHARGES

@<TRIPOS>ATOM
      1 PG          4.2548    3.8438   -6.0738 P.3       1 GTP         1.5447
      2 O1G         3.5944    2.6668   -6.7566 O.co2     1 GTP        -0.8705
      3 O2G         3.7341    5.2499   -6.2723 O.co2     1 GTP        -0.8705
      4 O3G         5.8474    3.8251   -6.4332 O.3       1 GTP        -0.7914
      5 O3B         4.3595    3.5394   -4.4738 O.3       1 GTP        -0.8116
      6 PB          3.1773    3.3946   -3.3571 P.3       1 GTP         1.6738
      7 O1B         3.7991    2.9724   -2.0446 O.co2     1 GTP        -0.8763
      8 O2B         2.2617    4.5949   -3.4495 O.co2     1 GTP        -0.8763
      9 O3A         2.3599    2.1376   -4.0025 O.3       1 GTP        -0.8005
     10 PA          2.8621    0.6170   -4.3270 P.3       1 GTP         1.5754
     11 O1A         1.6809   -0.1909   -4.8193 O.co2     1 GTP        -0.8771
     12 O2A         4.1462    0.6908   -5.1241 O.co2     1 GTP        -0.8771
     13 O5'         3.2903    0.1346   -2.8241 O.3       1 GTP        -0.5809
     14 C5'         2.2816   -0.2918   -1.9206 C.3       1 GTP         0.1986
     15 C4'         2.7248    0.0226   -0.4980 C.3       1 GTP         0.0418
     16 O4'         2.4697    1.4219   -0.2462 O.3       1 GTP        -0.3505
     17 C3'         1.9404   -0.7419    0.5596 C.3       1 GTP         0.0909
     18 O3'         2.7418   -0.8086    1.7389 O.3       1 GTP        -0.6187
     19 C2'         0.7477    0.1630    0.7858 C.3       1 GTP         0.0706
     20 O2'         0.1373   -0.0577    2.0407 O.3       1 GTP        -0.6294
     21 C1'         1.3733    1.5427    0.6747 C.3       1 GTP         0.3895
     22 N9          0.4520    2.5240    0.1767 N.pl3     1 GTP        -0.4733
     23 C8         -0.2136    2.5096   -0.9739 C.ar      1 GTP         0.2958
     24 N7         -0.9896    3.5820   -1.1212 N.pl3     1 GTP        -0.4933
     25 C5         -0.7962    4.3186    0.0156 C.ar      1 GTP        -0.1494
     26 C6         -1.3875    5.6031    0.4192 C.ar      1 GTP         0.7954
     27 O6         -2.1869    6.1731   -0.3158 O.2       1 GTP        -0.5729
     28 N1         -0.9745    6.0930    1.6597 N.2       1 GTP        -0.7443
     29 C2         -0.1105    5.4166    2.3900 C.ar      1 GTP         0.8831
     30 N2          0.3241    5.8571    3.6138 N.pl3     1 GTP        -0.9204
     31 N3          0.4444    4.2053    2.0072 N.pl3     1 GTP        -0.7173
     32 C4          0.0746    3.6889    0.8098 C.ar      1 GTP         0.2626
     33 HOG3        6.4182    4.5311   -6.0616 H         1 GTP         0.4102
     34 H5'         1.3514    0.2330   -2.1577 H         1 GTP         0.0289
     35 H5''        2.1280   -1.3678   -2.0460 H         1 GTP         0.0289
     36 H4'         3.8044   -0.1397   -0.4040 H         1 GTP         0.2056
     37 H3'         1.6764   -1.7639    0.2728 H         1 GTP         0.1140
     38 HO3'        3.5554   -1.2733    1.4914 H         1 GTP         0.4287
     39 H2'        -0.0011    0.0027    0.0003 H         1 GTP         0.0809
     40 HO2'       -0.1563   -0.9855    2.0596 H         1 GTP         0.4385
     41 H1'         1.7826    1.9024    1.6451 H         1 GTP         0.0794
     42 H8         -0.1415    1.7265   -1.7082 H         1 GTP         0.3821
     43 HN21       -0.0303    6.7197    3.9559 H         1 GTP         0.4411
     44 HN22        0.9765    5.2967    4.1108 H         1 GTP         0.4411
     45 H45         1.1068    3.6990    2.5819 H         1 GTP         0.4819
     46 H46        -1.5877    3.7943   -1.9074 H         1 GTP         0.5182
@<TRIPOS>BOND
     1    1    2 2
     2    1    3 1
     3    1    4 1
     4    1    5 1
     5    4   33 1
     6    5    6 1
     7    6    7 2
     8    6    8 1
     9    6    9 1
    10    9   10 1
    11   10   11 2
    12   10   12 1
    13   10   13 1
    14   13   14 1
    15   14   15 1
    16   14   34 1
    17   14   35 1
    18   15   16 1
    19   15   17 1
    20   15   36 1
    21   16   21 1
    22   17   18 1
    23   17   19 1
    24   17   37 1
    25   18   38 1
    26   19   20 1
    27   19   21 1
    28   19   39 1
    29   20   40 1
    30   21   22 1
    31   21   41 1
    32   22   23 ar
    33   22   32 ar
    34   23   24 ar
    35   23   42 1
    36   24   25 ar
    37   24   46 1
    38   25   26 ar
    39   25   32 ar
    40   26   27 2
    41   26   28 ar
    42   28   29 ar
    43   29   30 1
    44   29   31 ar
    45   30   43 1
    46   30   44 1
    47   31   32 ar
    48   31   45 1
@<TRIPOS>SUBSTRUCTURE
     1 GTP         1 GROUP 0 A     ****
@<TRIPOS>MOLECULE
[[[5-(2-amino-6-oxo-7,8-dihydro-3~{H}-purin-8-ylium-9-yl)-3,4-dihydroxy-tetrahydrofuran-2-yl]methoxy-oxido-phosphoryl]oxy-oxido-phosphoryl] hydrogen phosphate
   46    48     1     0     0
SMALL
USER_CHARGES

@<TRIPOS>ATOM
      1 PG         -1.5037    2.6591   -4.0508 P.3       1 GTP         1.5447
      2 O1G        -1.1371    3.8918   -4.8468 O.co2     1 GTP        -0.8705
      3 O2G        -2.8659    2.5264   -3.4068 O.co2     1 GTP        -0.8705
      4 O3G        -0.3638    2.4231   -2.9058 O.3       1 GTP        -0.7914
      5 O3B        -1.2174    1.3347   -4.9605 O.3       1 GTP        -0.8116
      6 PB          0.1391    0.8790   -5.7466 P.3       1 GTP         1.6738
      7 O1B        -0.0774   -0.5006   -6.3274 O.co2     1 GTP        -0.8763
      8 O2B         0.6251    2.0297   -6.5994 O.co2     1 GTP        -0.8763
      9 O3A         1.1584    0.7817   -4.4753 O.3       1 GTP        -0.8005
     10 PA          2.7407    0.3769   -4.4297 P.3       1 GTP         1.5754
     11 O1A         2.8866   -1.0655   -4.8640 O.co2     1 GTP        -0.8771
     12 O2A         3.5415    1.4776   -5.0906 O.co2     1 GTP        -0.8771
     13 O5'         3.0213    0.5153   -2.8245 O.3       1 GTP        -0.5809
     14 C5'         2.2816   -0.2918   -1.9206 C.3       1 GTP         0.1986
     15 C4'         2.7248    0.0226   -0.4980 C.3       1 GTP         0.0418
     16 O4'         2.4697    1.4219   -0.2462 O.3       1 GTP        -0.3505
     17 C3'         1.9404   -0.7419    0.5596 C.3       1 GTP         0.0909
     18 O3'         2.7418   -0.8086    1.7389 O.3       1 GTP        -0.6187
     19 C2'         0.7477    0.1630    0.7858 C.3       1 GTP         0.0706
     20 O2'         0.1373   -0.0577    2.0407 O.3       1 GTP        -0.6294
     21 C1'         1.3733    1.5427    0.6747 C.3       1 GTP         0.3895
     22 N9          0.4520    2.5240    0.1767 N.pl3     1 GTP        -0.4733
     23 C8         -0.8640    2.5747    0.3578 C.ar      1 GTP         0.2958
     24 N7         -1.4158    3.6263   -0.2452 N.pl3     1 GTP        -0.4933
     25 C5         -0.3734    4.2789   -0.8450 C.ar      1 GTP        -0.1494
     26 C6         -0.3693    5.5074   -1.6532 C.ar      1 GTP         0.7954
     27 O6         -1.4174    6.1047   -1.8742 O.2       1 GTP        -0.5729
     28 N1          0.8803    5.9138   -2.1250 N.2       1 GTP        -0.7443
     29 C2          1.9606    5.2142   -1.8406 C.ar      1 GTP         0.8831
     30 N2          3.2085    5.5738   -2.2809 N.pl3     1 GTP        -0.9204
     31 N3          1.9536    4.0567   -1.0776 N.pl3     1 GTP        -0.7173
     32 C4          0.7633    3.6215   -0.5973 C.ar      1 GTP         0.2626
     33 HOG3       -0.4602    1.6559   -2.3022 H         1 GTP         0.4102
     34 H5'         1.2163   -0.0770   -2.0471 H         1 GTP         0.0289
     35 H5''        2.4655   -1.3443   -2.1563 H         1 GTP         0.0289
     36 H4'         3.8044   -0.1397   -0.4040 H         1 GTP         0.2056
     37 H3'         1.6764   -1.7639    0.2728 H         1 GTP         0.1140
     38 HO3'        2.2232   -1.2979    2.3953 H         1 GTP         0.4287
     39 H2'        -0.0011    0.0027    0.0003 H         1 GTP         0.0809
     40 HO2'       -0.1563   -0.9855    2.0596 H         1 GTP         0.4385
     41 H1'         1.7826    1.9024    1.6451 H         1 GTP         0.0794
     42 H8         -1.4279    1.8548    0.9245 H         1 GTP         0.3821
     43 HN21        3.2933    6.3940   -2.8348 H         1 GTP         0.4411
     44 HN22        3.9794    5.0002   -2.0291 H         1 GTP         0.4411
     45 H45         2.7941    3.5321   -0.8687 H         1 GTP         0.4819
     46 H46        -2.3945    3.8775   -0.2507 H         1 GTP         0.5182
@<TRIPOS>BOND
     1    1    2 2
     2    1    3 1
     3    1    4 1
     4    1    5 1
     5    4   33 1
     6    5    6 1
     7    6    7 2
     8    6    8 1
     9    6    9 1
    10    9   10 1
    11   10   11 2
    12   10   12 1
    13   10   13 1
    14   13   14 1
    15   14   15 1
    16   14   34 1
    17   14   35 1
    18   15   16 1
    19   15   17 1
    20   15   36 1
    21   16   21 1
    22   17   18 1
    23   17   19 1
    24   17   37 1
    25   18   38 1
    26   19   20 1
    27   19   21 1
    28   19   39 1
    29   20   40 1
    30   21   22 1
    31   21   41 1
    32   22   23 ar
    33   22   32 ar
    34   23   24 ar
    35   23   42 1
    36   24   25 ar
    37   24   46 1
    38   25   26 ar
    39   25   32 ar
    40   26   27 2
    41   26   28 ar
    42   28   29 ar
    43   29   30 1
    44   29   31 ar
    45   30   43 1
    46   30   44 1
    47   31   32 ar
    48   31   45 1
@<TRIPOS>SUBSTRUCTURE
     1 GTP         1 GROUP 0 A     ****
@<TRIPOS>MOLECULE
[[[5-(2-amino-6-oxo-7,8-dihydro-3~{H}-purin-8-ylium-9-yl)-3,4-dihydroxy-tetrahydrofuran-2-yl]methoxy-oxido-phosphoryl]oxy-oxido-phosphoryl] hydrogen phosphate
   46    48     1     0     0
SMALL
USER_CHARGES

@<TRIPOS>ATOM
      1 PG          5.0339   -3.1727   -1.2713 P.3       1 GTP         1.5447
      2 O1G         6.4666   -3.2685   -1.7462 O.co2     1 GTP        -0.8705
      3 O2G         4.6965   -2.5316    0.0565 O.co2     1 GTP        -0.8705
      4 O3G         4.3742   -4.6658   -1.3086 O.3       1 GTP        -0.7914
      5 O3B         4.1325   -2.4755   -2.4396 O.3       1 GTP        -0.8116
      6 PB          3.9753   -2.8714   -4.0157 P.3       1 GTP         1.6738
      7 O1B         5.3022   -2.6479   -4.7064 O.co2     1 GTP        -0.8763
      8 O2B         3.2390   -4.1882   -4.1225 O.co2     1 GTP        -0.8763
      9 O3A         2.9205   -1.7124   -4.4729 O.3       1 GTP        -0.8005
     10 PA          3.0675   -0.0857   -4.4293 P.3       1 GTP         1.5754
     11 O1A         4.3144    0.3107   -5.1899 O.co2     1 GTP        -0.8771
     12 O2A         1.7243    0.5309   -4.7535 O.co2     1 GTP        -0.8771
     13 O5'         3.2903    0.1346   -2.8241 O.3       1 GTP        -0.5809
     14 C5'         2.2816   -0.2918   -1.9206 C.3       1 GTP         0.1986
     15 C4'         2.7248    0.0226   -0.4980 C.3       1 GTP         0.0418
     16 O4'         2.4697    1.4219   -0.2462 O.3       1 GTP        -0.3505
     17 C3'         1.9404   -0.7419    0.5596 C.3       1 GTP         0.0909
     18 O3'         2.7418   -0.8086    1.7389 O.3       1 GTP        -0.6187
     19 C2'         0.7477    0.1630    0.7858 C.3       1 GTP         0.0706
     20 O2'         0.1373   -0.0577    2.0407 O.3       1 GTP        -0.6294
     21 C1'         1.3733    1.5427    0.6747 C.3       1 GTP         0.3895
     22 N9          0.4520    2.5240    0.1767 N.pl3     1 GTP        -0.4733
     23 C8          0.5427    3.2356   -0.9425 C.ar      1 GTP         0.2958
     24 N7         -0.4919    4.0590   -1.1018 N.pl3     1 GTP        -0.4933
     25 C5         -1.2850    3.8484   -0.0069 C.ar      1 GTP        -0.1494
     26 C6         -2.5644    4.4707    0.3650 C.ar      1 GTP         0.7954
     27 O6         -3.0718    5.3200   -0.3599 O.2       1 GTP        -0.5729
     28 N1         -3.1239    4.0269    1.5647 N.2       1 GTP        -0.7443
     29 C2         -2.5133    3.1079    2.2858 C.ar      1 GTP         0.8831
     30 N2         -3.0239    2.6409    3.4697 N.pl3     1 GTP        -0.9204
     31 N3         -1.3076    2.5223    1.9320 N.pl3     1 GTP        -0.7173
     32 C4         -0.7246    2.9211    0.7753 C.ar      1 GTP         0.2626
     33 HOG3        3.4404   -4.7708   -1.0269 H         1 GTP         0.4102
     34 H5'         1.3514    0.2330   -2.1577 H         1 GTP         0.0289
     35 H5''        2.1280   -1.3678   -2.0460 H         1 GTP         0.0289
     36 H4'         3.8044   -0.1397   -0.4040 H         1 GTP         0.2056
     37 H3'         1.6764   -1.7639    0.2728 H         1 GTP         0.1140
     38 HO3'        2.2232   -1.2979    2.3953 H         1 GTP         0.4287
     39 H2'        -0.0011    0.0027    0.0003 H         1 GTP         0.0809
     40 HO2'       -0.1563   -0.9855    2.0596 H         1 GTP         0.4385
     41 H1'         1.7826    1.9024    1.6451 H         1 GTP         0.0794
     42 H8          1.3539    3.1622   -1.6455 H         1 GTP         0.3821
     43 HN21       -3.8871    3.0143    3.7893 H         1 GTP         0.4411
     44 HN22       -2.5108    1.9472    3.9621 H         1 GTP         0.4411
     45 H45        -0.8530    1.8168    2.4986 H         1 GTP         0.4819
     46 H46        -0.6466    4.6966   -1.8702 H         1 GTP         0.5182
@<TRIPOS>BOND
     1    1    2 2
     2    1    3 1
     3    1    4 1
     4    1    5 1
     5    4   33 1
     6    5    6 1
     7    6    7 2
     8    6    8 1
     9    6    9 1
    10    9   10 1
    11   10   11 2
    12   10   12 1
    13   10   13 1
    14   13   14 1
    15   14   15 1
    16   14   34 1
    17   14   35 1
    18   15   16 1
    19   15   17 1
    20   15   36 1
    21   16   21 1
    22   17   18 1
    23   17   19 1
    24   17   37 1
    25   18   38 1
    26   19   20 1
    27   19   21 1
    28   19   39 1
    29   20   40 1
    30   21   22 1
    31   21   41 1
    32   22   23 ar
    33   22   32 ar
    34   23   24 ar
    35   23   42 1
    36   24   25 ar
    37   24   46 1
    38   25   26 ar
    39   25   32 ar
    40   26   27 2
    41   26   28 ar
    42   28   29 ar
    43   29   30 1
    44   29   31 ar
    45   30   43 1
    46   30   44 1
    47   31   32 ar
    48   31   45 1
@<TRIPOS>SUBSTRUCTURE
     1 GTP         1 GROUP 0 A     ****
@<TRIPOS>MOLECULE
[[[5-(2-amino-6-oxo-7,8-dihydro-3~{H}-purin-8-ylium-9-yl)-3,4-dihydroxy-tetrahydrofuran-2-yl]methoxy-oxido-phosphoryl]oxy-oxido-phosphoryl] hydrogen phosphate
   46    48     1     0     0
SMALL
USER_CHARGES

@<TRIPOS>ATOM
      1 PG          1.3046    3.5525   -6.2340 P.3       1 GTP         1.5447
      2 O1G         2.0536    3.5560   -4.9201 O.co2     1 GTP        -0.8705
      3 O2G         1.8747    4.2384   -7.4555 O.co2     1 GTP        -0.8705
      4 O3G        -0.2020    4.1255   -5.9736 O.3       1 GTP        -0.7914
      5 O3B         0.9199    2.0146   -6.6221 O.3       1 GTP        -0.8116
      6 PB          0.1391    0.8790   -5.7466 P.3       1 GTP         1.6738
      7 O1B        -1.1864    1.4459   -5.2892 O.co2     1 GTP        -0.8763
      8 O2B         0.2261   -0.4469   -6.4691 O.co2     1 GTP        -0.8763
      9 O3A         1.1584    0.7817   -4.4753 O.3       1 GTP        -0.8005
     10 PA          2.7407    0.3769   -4.4297 P.3       1 GTP         1.5754
     11 O1A         2.8866   -1.0655   -4.8640 O.co2     1 GTP        -0.8771
     12 O2A         3.5415    1.4776   -5.0906 O.co2     1 GTP        -0.8771
     13 O5'         3.0213    0.5153   -2.8245 O.3       1 GTP        -0.5809
     14 C5'         2.2816   -0.2918   -1.9206 C.3       1 GTP         0.1986
     15 C4'         2.7248    0.0226   -0.4980 C.3       1 GTP         0.0418
     16 O4'         2.4697    1.4219   -0.2462 O.3       1 GTP        -0.3505
     17 C3'         1.9404   -0.7419    0.5596 C.3       1 GTP         0.0909
     18 O3'         2.7418   -0.8086    1.7389 O.3       1 GTP        -0.6187
     19 C2'         0.7477    0.1630    0.7858 C.3       1 GTP         0.0706
     20 O2'         0.1373   -0.0577    2.0407 O.3       1 GTP        -0.6294
     21 C1'         1.3733    1.5427    0.6747 C.3       1 GTP         0.3895
     22 N9          0.4520    2.5240    0.1767 N.pl3     1 GTP        -0.4733
     23 C8         -0.8640    2.5747    0.3578 C.ar      1 GTP         0.2958
     24 N7         -1.4158    3.6263   -0.2452 N.pl3     1 GTP        -0.4933
     25 C5         -0.3734    4.2789   -0.8450 C.ar      1 GTP        -0.1494
     26 C6         -0.3693    5.5074   -1.6532 C.ar      1 GTP         0.7954
     27 O6         -1.4174    6.1047   -1.8742 O.2       1 GTP        -0.5729
     28 N1          0.8803    5.9138   -2.1250 N.2       1 GTP        -0.7443
     29 C2          1.9606    5.2142   -1.8406 C.ar      1 GTP         0.8831
     30 N2          3.2085    5.5738   -2.2809 N.pl3     1 GTP        -0.9204
     31 N3          1.9536    4.0567   -1.0776 N.pl3     1 GTP        -0.7173
     32 C4          0.7633    3.6215   -0.5973 C.ar      1 GTP         0.2626
     33 HOG3       -0.8168    4.1858   -6.7356 H         1 GTP         0.4102
     34 H5'         1.2163   -0.0770   -2.0471 H         1 GTP         0.0289
     35 H5''        2.4655   -1.3443   -2.1563 H         1 GTP         0.0289
     36 H4'         3.8044   -0.1397   -0.4040 H         1 GTP         0.2056
     37 H3'         1.6764   -1.7639    0.2728 H         1 GTP         0.1140
     38 HO3'        2.2232   -1.2979    2.3953 H         1 GTP         0.4287
     39 H2'        -0.0011    0.0027    0.0003 H         1 GTP         0.0809
     40 HO2'       -0.1563   -0.9855    2.0596 H         1 GTP         0.4385
     41 H1'         1.7826    1.9024    1.6451 H         1 GTP         0.0794
     42 H8         -1.4279    1.8548    0.9245 H         1 GTP         0.3821
     43 HN21        3.2933    6.3940   -2.8348 H         1 GTP         0.4411
     44 HN22        3.9794    5.0002   -2.0291 H         1 GTP         0.4411
     45 H45         2.7941    3.5321   -0.8687 H         1 GTP         0.4819
     46 H46        -2.3945    3.8775   -0.2507 H         1 GTP         0.5182
@<TRIPOS>BOND
     1    1    2 2
     2    1    3 1
     3    1    4 1
     4    1    5 1
     5    4   33 1
     6    5    6 1
     7    6    7 2
     8    6    8 1
     9    6    9 1
    10    9   10 1
    11   10   11 2
    12   10   12 1
    13   10   13 1
    14   13   14 1
    15   14   15 1
    16   14   34 1
    17   14   35 1
    18   15   16 1
    19   15   17 1
    20   15   36 1
    21   16   21 1
    22   17   18 1
    23   17   19 1
    24   17   37 1
    25   18   38 1
    26   19   20 1
    27   19   21 1
    28   19   39 1
    29   20   40 1
    30   21   22 1
    31   21   41 1
    32   22   23 ar
    33   22   32 ar
    34   23   24 ar
    35   23   42 1
    36   24   25 ar
    37   24   46 1
    38   25   26 ar
    39   25   32 ar
    40   26   27 2
    41   26   28 ar
    42   28   29 ar
    43   29   30 1
    44   29   31 ar
    45   30   43 1
    46   30   44 1
    47   31   32 ar
    48   31   45 1
@<TRIPOS>SUBSTRUCTURE
     1 GTP         1 GROUP 0 A     ****
@<TRIPOS>MOLECULE
[[[5-(2-amino-6-oxo-7,8-dihydro-3~{H}-purin-8-ylium-9-yl)-3,4-dihydroxy-tetrahydrofuran-2-yl]methoxy-oxido-phosphoryl]oxy-oxido-phosphoryl] hydrogen phosphate
   46    48     1     0     0
SMALL
USER_CHARGES

@<TRIPOS>ATOM
      1 PG         -1.2649   -0.6354   -5.1381 P.3       1 GTP         1.5447
      2 O1G        -1.7062    0.0235   -3.8502 O.co2     1 GTP        -0.8705
      3 O2G        -2.2775   -1.0858   -6.1674 O.co2     1 GTP        -0.8705
      4 O3G        -0.3020   -1.9014   -4.7695 O.3       1 GTP        -0.7914
      5 O3B        -0.1556    0.3140   -5.8675 O.3       1 GTP        -0.8116
      6 PB          1.2307    0.9444   -5.2791 P.3       1 GTP         1.6738
      7 O1B         1.9645    1.6376   -6.4054 O.co2     1 GTP        -0.8763
      8 O2B         0.9370    1.6491   -3.9735 O.co2     1 GTP        -0.8763
      9 O3A         2.0053   -0.4400   -4.8942 O.3       1 GTP        -0.8005
     10 PA          3.4844   -0.6652   -4.2374 P.3       1 GTP         1.5754
     11 O1A         3.6822   -2.1433   -3.9794 O.co2     1 GTP        -0.8771
     12 O2A         4.4944    0.1320   -5.0337 O.co2     1 GTP        -0.8771
     13 O5'         3.2903    0.1346   -2.8241 O.3       1 GTP        -0.5809
     14 C5'         2.2816   -0.2918   -1.9206 C.3       1 GTP         0.1986
     15 C4'         2.7248    0.0226   -0.4980 C.3       1 GTP         0.0418
     16 O4'         2.4697    1.4219   -0.2462 O.3       1 GTP        -0.3505
     17 C3'         1.9404   -0.7419    0.5596 C.3       1 GTP         0.0909
     18 O3'         2.7418   -0.8086    1.7389 O.3       1 GTP        -0.6187
     19 C2'         0.7477    0.1630    0.7858 C.3       1 GTP         0.0706
     20 O2'         0.1373   -0.0577    2.0407 O.3       1 GTP        -0.6294
     21 C1'         1.3733    1.5427    0.6747 C.3       1 GTP         0.3895
     22 N9          0.4520    2.5240    0.1767 N.pl3     1 GTP        -0.4733
     23 C8         -0.2136    2.5096   -0.9739 C.ar      1 GTP         0.2958
     24 N7         -0.9896    3.5820   -1.1212 N.pl3     1 GTP        -0.4933
     25 C5         -0.7962    4.3186    0.0156 C.ar      1 GTP        -0.1494
     26 C6         -1.3875    5.6031    0.4192 C.ar      1 GTP         0.7954
     27 O6         -2.1869    6.1731   -0.3158 O.2       1 GTP        -0.5729
     28 N1         -0.9745    6.0930    1.6597 N.2       1 GTP        -0.7443
     29 C2         -0.1105    5.4166    2.3900 C.ar      1 GTP         0.8831
     30 N2          0.3241    5.8571    3.6138 N.pl3     1 GTP        -0.9204
     31 N3          0.4444    4.2053    2.0072 N.pl3     1 GTP        -0.7173
     32 C4          0.0746    3.6889    0.8098 C.ar      1 GTP         0.2626
     33 HOG3        0.0684   -2.4357   -5.5041 H         1 GTP         0.4102
     34 H5'         1.3514    0.2330   -2.1577 H         1 GTP         0.0289
     35 H5''        2.1280   -1.3678   -2.0460 H         1 GTP         0.0289
     36 H4'         3.8044   -0.1397   -0.4040 H         1 GTP         0.2056
     37 H3'         1.6764   -1.7639    0.2728 H         1 GTP         0.1140
     38 HO3'        2.2232   -1.2979    2.3953 H         1 GTP         0.4287
     39 H2'        -0.0011    0.0027    0.0003 H         1 GTP         0.0809
     40 HO2'       -0.1563   -0.9855    2.0596 H         1 GTP         0.4385
     41 H1'         1.7826    1.9024    1.6451 H         1 GTP         0.0794
     42 H8         -0.1415    1.7265   -1.7082 H         1 GTP         0.3821
     43 HN21       -0.0303    6.7197    3.9559 H         1 GTP         0.4411
     44 HN22        0.9765    5.2967    4.1108 H         1 GTP         0.4411
     45 H45         1.1068    3.6990    2.5819 H         1 GTP         0.4819
     46 H46        -1.5877    3.7943   -1.9074 H         1 GTP         0.5182
@<TRIPOS>BOND
     1    1    2 2
     2    1    3 1
     3    1    4 1
     4    1    5 1
     5    4   33 1
     6    5    6 1
     7    6    7 2
     8    6    8 1
     9    6    9 1
    10    9   10 1
    11   10   11 2
    12   10   12 1
    13   10   13 1
    14   13   14 1
    15   14   15 1
    16   14   34 1
    17   14   35 1
    18   15   16 1
    19   15   17 1
    20   15   36 1
    21   16   21 1
    22   17   18 1
    23   17   19 1
    24   17   37 1
    25   18   38 1
    26   19   20 1
    27   19   21 1
    28   19   39 1
    29   20   40 1
    30   21   22 1
    31   21   41 1
    32   22   23 ar
    33   22   32 ar
    34   23   24 ar
    35   23   42 1
    36   24   25 ar
    37   24   46 1
    38   25   26 ar
    39   25   32 ar
    40   26   27 2
    41   26   28 ar
    42   28   29 ar
    43   29   30 1
    44   29   31 ar
    45   30   43 1
    46   30   44 1
    47   31   32 ar
    48   31   45 1
@<TRIPOS>SUBSTRUCTURE
     1 GTP         1 GROUP 0 A     ****
@<TRIPOS>MOLECULE
[[[5-(2-amino-6-oxo-7,8-dihydro-3~{H}-purin-8-ylium-9-yl)-3,4-dihydroxy-tetrahydrofuran-2-yl]methoxy-oxido-phosphoryl]oxy-oxido-phosphoryl] hydrogen phosphate
   46    48     1     0     0
SMALL
USER_CHARGES

@<TRIPOS>ATOM
      1 PG          3.9474    1.1019   -7.7110 P.3       1 GTP         1.5447
      2 O1G         4.3055   -0.3289   -7.3764 O.co2     1 GTP        -0.8705
      3 O2G         3.0272    1.4228   -8.8677 O.co2     1 GTP        -0.8705
      4 O3G         5.3287    1.9526   -7.8960 O.3       1 GTP        -0.7914
      5 O3B         3.3835    1.8365   -6.3670 O.3       1 GTP        -0.8116
      6 PB          2.0155    1.5603   -5.5198 P.3       1 GTP         1.6738
      7 O1B         2.0329    2.4213   -4.2765 O.co2     1 GTP        -0.8763
      8 O2B         0.8381    1.5642   -6.4692 O.co2     1 GTP        -0.8763
      9 O3A         2.2729    0.0019   -5.1075 O.3       1 GTP        -0.8005
     10 PA          3.4844   -0.6652   -4.2374 P.3       1 GTP         1.5754
     11 O1A         3.1940   -2.1385   -4.0491 O.co2     1 GTP        -0.8771
     12 O2A         4.8053   -0.1947   -4.8061 O.co2     1 GTP        -0.8771
     13 O5'         3.2903    0.1346   -2.8241 O.3       1 GTP        -0.5809
     14 C5'         2.2816   -0.2918   -1.9206 C.3       1 GTP         0.1986
     15 C4'         2.7248    0.0226   -0.4980 C.3       1 GTP         0.0418
     16 O4'         2.4697    1.4219   -0.2462 O.3       1 GTP        -0.3505
     17 C3'         1.9404   -0.7419    0.5596 C.3       1 GTP         0.0909
     18 O3'         2.7418   -0.8086    1.7389 O.3       1 GTP        -0.6187
     19 C2'         0.7477    0.1630    0.7858 C.3       1 GTP         0.0706
     20 O2'         0.1373   -0.0577    2.0407 O.3       1 GTP        -0.6294
     21 C1'         1.3733    1.5427    0.6747 C.3       1 GTP         0.3895
     22 N9          0.4520    2.5240    0.1767 N.pl3     1 GTP        -0.4733
     23 C8          0.2012    2.8401   -1.0899 C.ar      1 GTP         0.2958
     24 N7         -0.7168    3.7990   -1.1981 N.pl3     1 GTP        -0.4933
     25 C5         -1.0645    4.1043    0.0896 C.ar      1 GTP        -0.1494
     26 C6         -2.0336    5.0870    0.5973 C.ar      1 GTP         0.7954
     27 O6         -2.6730    5.7839   -0.1834 O.2       1 GTP        -0.5729
     28 N1         -2.1539    5.1517    1.9868 N.2       1 GTP        -0.7443
     29 C2         -1.4288    4.3650    2.7566 C.ar      1 GTP         0.8831
     30 N2         -1.5126    4.3922    4.1250 N.pl3     1 GTP        -0.9204
     31 N3         -0.5167    3.4388    2.2748 N.pl3     1 GTP        -0.7173
     32 C4         -0.3638    3.3392    0.9318 C.ar      1 GTP         0.2626
     33 HOG3        5.2638    2.9060   -8.1174 H         1 GTP         0.4102
     34 H5'         1.3514    0.2330   -2.1577 H         1 GTP         0.0289
     35 H5''        2.1280   -1.3678   -2.0460 H         1 GTP         0.0289
     36 H4'         3.8044   -0.1397   -0.4040 H         1 GTP         0.2056
     37 H3'         1.6764   -1.7639    0.2728 H         1 GTP         0.1140
     38 HO3'        2.2232   -1.2979    2.3953 H         1 GTP         0.4287
     39 H2'        -0.0011    0.0027    0.0003 H         1 GTP         0.0809
     40 HO2'       -0.6141    0.5574    2.1082 H         1 GTP         0.4385
     41 H1'         1.7826    1.9024    1.6451 H         1 GTP         0.0794
     42 H8          0.6787    2.3803   -1.9373 H         1 GTP         0.3821
     43 HN21       -2.1462    5.0320    4.5446 H         1 GTP         0.4411
     44 HN22       -0.9365    3.7712    4.6440 H         1 GTP         0.4411
     45 H45         0.0318    2.8419    2.8816 H         1 GTP         0.4819
     46 H46        -1.0718    4.2049   -2.0526 H         1 GTP         0.5182
@<TRIPOS>BOND
     1    1    2 2
     2    1    3 1
     3    1    4 1
     4    1    5 1
     5    4   33 1
     6    5    6 1
     7    6    7 2
     8    6    8 1
     9    6    9 1
    10    9   10 1
    11   10   11 2
    12   10   12 1
    13   10   13 1
    14   13   14 1
    15   14   15 1
    16   14   34 1
    17   14   35 1
    18   15   16 1
    19   15   17 1
    20   15   36 1
    21   16   21 1
    22   17   18 1
    23   17   19 1
    24   17   37 1
    25   18   38 1
    26   19   20 1
    27   19   21 1
    28   19   39 1
    29   20   40 1
    30   21   22 1
    31   21   41 1
    32   22   23 ar
    33   22   32 ar
    34   23   24 ar
    35   23   42 1
    36   24   25 ar
    37   24   46 1
    38   25   26 ar
    39   25   32 ar
    40   26   27 2
    41   26   28 ar
    42   28   29 ar
    43   29   30 1
    44   29   31 ar
    45   30   43 1
    46   30   44 1
    47   31   32 ar
    48   31   45 1
@<TRIPOS>SUBSTRUCTURE
     1 GTP         1 GROUP 0 A     ****
@<TRIPOS>MOLECULE
[[[5-(2-amino-6-oxo-7,8-dihydro-3~{H}-purin-8-ylium-9-yl)-3,4-dihydroxy-tetrahydrofuran-2-yl]methoxy-oxido-phosphoryl]oxy-oxido-phosphoryl] hydrogen phosphate
   46    48     1     0     0
SMALL
USER_CHARGES

@<TRIPOS>ATOM
      1 PG          0.2903    4.7928   -6.3679 P.3       1 GTP         1.5447
      2 O1G        -0.7790    5.6487   -5.7265 O.co2     1 GTP        -0.8705
      3 O2G         1.5243    5.4187   -6.9787 O.co2     1 GTP        -0.8705
      4 O3G        -0.4140    3.8357   -7.4877 O.3       1 GTP        -0.7914
      5 O3B         0.7510    3.6377   -5.3109 O.3       1 GTP        -0.8116
      6 PB         -0.1502    2.5521   -4.4893 P.3       1 GTP         1.6738
      7 O1B        -1.0336    3.2956   -3.5125 O.co2     1 GTP        -0.8763
      8 O2B        -0.7196    1.5454   -5.4639 O.co2     1 GTP        -0.8763
      9 O3A         1.0397    1.7867   -3.6749 O.3       1 GTP        -0.8005
     10 PA          2.3336    0.9636   -4.2390 P.3       1 GTP         1.5754
     11 O1A         1.8447   -0.2544   -4.9924 O.co2     1 GTP        -0.8771
     12 O2A         3.2918    1.9456   -4.8770 O.co2     1 GTP        -0.8771
     13 O5'         3.0213    0.5153   -2.8245 O.3       1 GTP        -0.5809
     14 C5'         2.2816   -0.2918   -1.9206 C.3       1 GTP         0.1986
     15 C4'         2.7248    0.0226   -0.4980 C.3       1 GTP         0.0418
     16 O4'         2.4697    1.4219   -0.2462 O.3       1 GTP        -0.3505
     17 C3'         1.9404   -0.7419    0.5596 C.3       1 GTP         0.0909
     18 O3'         2.7418   -0.8086    1.7389 O.3       1 GTP        -0.6187
     19 C2'         0.7477    0.1630    0.7858 C.3       1 GTP         0.0706
     20 O2'         0.1373   -0.0577    2.0407 O.3       1 GTP        -0.6294
     21 C1'         1.3733    1.5427    0.6747 C.3       1 GTP         0.3895
     22 N9          0.4520    2.5240    0.1767 N.pl3     1 GTP        -0.4733
     23 C8          0.5427    3.2356   -0.9425 C.ar      1 GTP         0.2958
     24 N7         -0.4919    4.0590   -1.1018 N.pl3     1 GTP        -0.4933
     25 C5         -1.2850    3.8484   -0.0069 C.ar      1 GTP        -0.1494
     26 C6         -2.5644    4.4707    0.3650 C.ar      1 GTP         0.7954
     27 O6         -3.0718    5.3200   -0.3599 O.2       1 GTP        -0.5729
     28 N1         -3.1239    4.0269    1.5647 N.2       1 GTP        -0.7443
     29 C2         -2.5133    3.1079    2.2858 C.ar      1 GTP         0.8831
     30 N2         -3.0239    2.6409    3.4697 N.pl3     1 GTP        -0.9204
     31 N3         -1.3076    2.5223    1.9320 N.pl3     1 GTP        -0.7173
     32 C4         -0.7246    2.9211    0.7753 C.ar      1 GTP         0.2626
     33 HOG3        0.1526    3.2165   -7.9955 H         1 GTP         0.4102
     34 H5'         1.2163   -0.0770   -2.0471 H         1 GTP         0.0289
     35 H5''        2.4655   -1.3443   -2.1563 H         1 GTP         0.0289
     36 H4'         3.8044   -0.1397   -0.4040 H         1 GTP         0.2056
     37 H3'         1.6764   -1.7639    0.2728 H         1 GTP         0.1140
     38 HO3'        2.2232   -1.2979    2.3953 H         1 GTP         0.4287
     39 H2'        -0.0011    0.0027    0.0003 H         1 GTP         0.0809
     40 HO2'       -0.1563   -0.9855    2.0596 H         1 GTP         0.4385
     41 H1'         1.7826    1.9024    1.6451 H         1 GTP         0.0794
     42 H8          1.3539    3.1622   -1.6455 H         1 GTP         0.3821
     43 HN21       -3.8871    3.0143    3.7893 H         1 GTP         0.4411
     44 HN22       -2.5108    1.9472    3.9621 H         1 GTP         0.4411
     45 H45        -0.8530    1.8168    2.4986 H         1 GTP         0.4819
     46 H46        -0.6466    4.6966   -1.8702 H         1 GTP         0.5182
@<TRIPOS>BOND
     1    1    2 2
     2    1    3 1
     3    1    4 1
     4    1    5 1
     5    4   33 1
     6    5    6 1
     7    6    7 2
     8    6    8 1
     9    6    9 1
    10    9   10 1
    11   10   11 2
    12   10   12 1
    13   10   13 1
    14   13   14 1
    15   14   15 1
    16   14   34 1
    17   14   35 1
    18   15   16 1
    19   15   17 1
    20   15   36 1
    21   16   21 1
    22   17   18 1
    23   17   19 1
    24   17   37 1
    25   18   38 1
    26   19   20 1
    27   19   21 1
    28   19   39 1
    29   20   40 1
    30   21   22 1
    31   21   41 1
    32   22   23 ar
    33   22   32 ar
    34   23   24 ar
    35   23   42 1
    36   24   25 ar
    37   24   46 1
    38   25   26 ar
    39   25   32 ar
    40   26   27 2
    41   26   28 ar
    42   28   29 ar
    43   29   30 1
    44   29   31 ar
    45   30   43 1
    46   30   44 1
    47   31   32 ar
    48   31   45 1
@<TRIPOS>SUBSTRUCTURE
     1 GTP         1 GROUP 0 A     ****
@<TRIPOS>MOLECULE
[[[5-(2-amino-6-oxo-7,8-dihydro-3~{H}-purin-8-ylium-9-yl)-3,4-dihydroxy-tetrahydrofuran-2-yl]methoxy-oxido-phosphoryl]oxy-oxido-phosphoryl] hydrogen phosphate
   46    48     1     0     0
SMALL
USER_CHARGES

@<TRIPOS>ATOM
      1 PG          5.5453    4.1253   -4.4933 P.3       1 GTP         1.5447
      2 O1G         5.8379    2.7768   -3.8741 O.co2     1 GTP        -0.8705
      3 O2G         6.1873    4.5365   -5.7996 O.co2     1 GTP        -0.8705
      4 O3G         5.8452    5.2826   -3.3813 O.3       1 GTP        -0.7914
      5 O3B         3.9288    4.3140   -4.6158 O.3       1 GTP        -0.8116
      6 PB          2.7694    4.1698   -3.4753 P.3       1 GTP         1.6738
      7 O1B         3.1199    5.0695   -2.3112 O.co2     1 GTP        -0.8763
      8 O2B         1.4126    4.2287   -4.1410 O.co2     1 GTP        -0.8763
      9 O3A         3.0106    2.6117   -3.0522 O.3       1 GTP        -0.8005
     10 PA          2.9232    1.2546   -3.9579 P.3       1 GTP         1.5754
     11 O1A         1.4961    1.0747   -4.4283 O.co2     1 GTP        -0.8771
     12 O2A         4.0762    1.2511   -4.9378 O.co2     1 GTP        -0.8771
     13 O5'         3.2903    0.1346   -2.8241 O.3       1 GTP        -0.5809
     14 C5'         2.2816   -0.2918   -1.9206 C.3       1 GTP         0.1986
     15 C4'         2.7248    0.0226   -0.4980 C.3       1 GTP         0.0418
     16 O4'         2.4697    1.4219   -0.2462 O.3       1 GTP        -0.3505
     17 C3'         1.9404   -0.7419    0.5596 C.3       1 GTP         0.0909
     18 O3'         2.7418   -0.8086    1.7389 O.3       1 GTP        -0.6187
     19 C2'         0.7477    0.1630    0.7858 C.3       1 GTP         0.0706
     20 O2'         0.1373   -0.0577    2.0407 O.3       1 GTP        -0.6294
     21 C1'         1.3733    1.5427    0.6747 C.3       1 GTP         0.3895
     22 N9          0.4520    2.5240    0.1767 N.pl3     1 GTP        -0.4733
     23 C8          0.2012    2.8401   -1.0899 C.ar      1 GTP         0.2958
     24 N7         -0.7168    3.7990   -1.1981 N.pl3     1 GTP        -0.4933
     25 C5         -1.0645    4.1043    0.0896 C.ar      1 GTP        -0.1494
     26 C6         -2.0336    5.0870    0.5973 C.ar      1 GTP         0.7954
     27 O6         -2.6730    5.7839   -0.1834 O.2       1 GTP        -0.5729
     28 N1         -2.1539    5.1517    1.9868 N.2       1 GTP        -0.7443
     29 C2         -1.4288    4.3650    2.7566 C.ar      1 GTP         0.8831
     30 N2         -1.5126    4.3922    4.1250 N.pl3     1 GTP        -0.9204
     31 N3         -0.5167    3.4388    2.2748 N.pl3     1 GTP        -0.7173
     32 C4         -0.3638    3.3392    0.9318 C.ar      1 GTP         0.2626
     33 HOG3        5.7018    6.2200   -3.6327 H         1 GTP         0.4102
     34 H5'         1.3514    0.2330   -2.1577 H         1 GTP         0.0289
     35 H5''        2.1280   -1.3678   -2.0460 H         1 GTP         0.0289
     36 H4'         3.8044   -0.1397   -0.4040 H         1 GTP         0.2056
     37 H3'         1.6764   -1.7639    0.2728 H         1 GTP         0.1140
     38 HO3'        3.5554   -1.2733    1.4914 H         1 GTP         0.4287
     39 H2'        -0.0011    0.0027    0.0003 H         1 GTP         0.0809
     40 HO2'       -0.1563   -0.9855    2.0596 H         1 GTP         0.4385
     41 H1'         1.7826    1.9024    1.6451 H         1 GTP         0.0794
     42 H8          0.6787    2.3803   -1.9373 H         1 GTP         0.3821
     43 HN21       -2.1462    5.0320    4.5446 H         1 GTP         0.4411
     44 HN22       -0.9365    3.7712    4.6440 H         1 GTP         0.4411
     45 H45         0.0318    2.8419    2.8816 H         1 GTP         0.4819
     46 H46        -1.0718    4.2049   -2.0526 H         1 GTP         0.5182
@<TRIPOS>BOND
     1    1    2 2
     2    1    3 1
     3    1    4 1
     4    1    5 1
     5    4   33 1
     6    5    6 1
     7    6    7 2
     8    6    8 1
     9    6    9 1
    10    9   10 1
    11   10   11 2
    12   10   12 1
    13   10   13 1
    14   13   14 1
    15   14   15 1
    16   14   34 1
    17   14   35 1
    18   15   16 1
    19   15   17 1
    20   15   36 1
    21   16   21 1
    22   17   18 1
    23   17   19 1
    24   17   37 1
    25   18   38 1
    26   19   20 1
    27   19   21 1
    28   19   39 1
    29   20   40 1
    30   21   22 1
    31   21   41 1
    32   22   23 ar
    33   22   32 ar
    34   23   24 ar
    35   23   42 1
    36   24   25 ar
    37   24   46 1
    38   25   26 ar
    39   25   32 ar
    40   26   27 2
    41   26   28 ar
    42   28   29 ar
    43   29   30 1
    44   29   31 ar
    45   30   43 1
    46   30   44 1
    47   31   32 ar
    48   31   45 1
@<TRIPOS>SUBSTRUCTURE
     1 GTP         1 GROUP 0 A     ****
@<TRIPOS>MOLECULE
[[[5-(2-amino-6-oxo-7,8-dihydro-3~{H}-purin-8-ylium-9-yl)-3,4-dihydroxy-tetrahydrofuran-2-yl]methoxy-oxido-phosphoryl]oxy-oxido-phosphoryl] hydrogen phosphate
   46    48     1     0     0
SMALL
USER_CHARGES

@<TRIPOS>ATOM
      1 PG          5.7307   -1.4458   -6.9224 P.3       1 GTP         1.5447
      2 O1G         6.4734   -1.8163   -5.6581 O.co2     1 GTP        -0.8705
      3 O2G         5.4581   -2.4774   -7.9944 O.co2     1 GTP        -0.8705
      4 O3G         6.4818   -0.1695   -7.6101 O.3       1 GTP        -0.7914
      5 O3B         4.3265   -0.7178   -6.5197 O.3       1 GTP        -0.8116
      6 PB          3.0081   -1.3280   -5.7747 P.3       1 GTP         1.6738
      7 O1B         2.0341   -0.2009   -5.5128 O.co2     1 GTP        -0.8763
      8 O2B         2.5820   -2.5938   -6.4845 O.co2     1 GTP        -0.8763
      9 O3A         3.6940   -1.7938   -4.3685 O.3       1 GTP        -0.8005
     10 PA          4.4789   -0.9083   -3.2418 P.3       1 GTP         1.5754
     11 O1A         4.8237   -1.8045   -2.0721 O.co2     1 GTP        -0.8771
     12 O2A         5.5401   -0.0784   -3.9309 O.co2     1 GTP        -0.8771
     13 O5'         3.2903    0.1346   -2.8241 O.3       1 GTP        -0.5809
     14 C5'         2.2816   -0.2918   -1.9206 C.3       1 GTP         0.1986
     15 C4'         2.7248    0.0226   -0.4980 C.3       1 GTP         0.0418
     16 O4'         2.4697    1.4219   -0.2462 O.3       1 GTP        -0.3505
     17 C3'         1.9404   -0.7419    0.5596 C.3       1 GTP         0.0909
     18 O3'         2.7418   -0.8086    1.7389 O.3       1 GTP        -0.6187
     19 C2'         0.7477    0.1630    0.7858 C.3       1 GTP         0.0706
     20 O2'         0.1373   -0.0577    2.0407 O.3       1 GTP        -0.6294
     21 C1'         1.3733    1.5427    0.6747 C.3       1 GTP         0.3895
     22 N9          0.4520    2.5240    0.1767 N.pl3     1 GTP        -0.4733
     23 C8          0.2012    2.8401   -1.0899 C.ar      1 GTP         0.2958
     24 N7         -0.7168    3.7990   -1.1981 N.pl3     1 GTP        -0.4933
     25 C5         -1.0645    4.1043    0.0896 C.ar      1 GTP        -0.1494
     26 C6         -2.0336    5.0870    0.5973 C.ar      1 GTP         0.7954
     27 O6         -2.6730    5.7839   -0.1834 O.2       1 GTP        -0.5729
     28 N1         -2.1539    5.1517    1.9868 N.2       1 GTP        -0.7443
     29 C2         -1.4288    4.3650    2.7566 C.ar      1 GTP         0.8831
     30 N2         -1.5126    4.3922    4.1250 N.pl3     1 GTP        -0.9204
     31 N3         -0.5167    3.4388    2.2748 N.pl3     1 GTP        -0.7173
     32 C4         -0.3638    3.3392    0.9318 C.ar      1 GTP         0.2626
     33 HOG3        6.1169    0.1924   -8.4457 H         1 GTP         0.4102
     34 H5'         1.3514    0.2330   -2.1577 H         1 GTP         0.0289
     35 H5''        2.1280   -1.3678   -2.0460 H         1 GTP         0.0289
     36 H4'         3.8044   -0.1397   -0.4040 H         1 GTP         0.2056
     37 H3'         1.6764   -1.7639    0.2728 H         1 GTP         0.1140
     38 HO3'        2.2232   -1.2979    2.3953 H         1 GTP         0.4287
     39 H2'        -0.0011    0.0027    0.0003 H         1 GTP         0.0809
     40 HO2'       -0.1563   -0.9855    2.0596 H         1 GTP         0.4385
     41 H1'         1.7826    1.9024    1.6451 H         1 GTP         0.0794
     42 H8          0.6787    2.3803   -1.9373 H         1 GTP         0.3821
     43 HN21       -2.1462    5.0320    4.5446 H         1 GTP         0.4411
     44 HN22       -0.9365    3.7712    4.6440 H         1 GTP         0.4411
     45 H45         0.0318    2.8419    2.8816 H         1 GTP         0.4819
     46 H46        -1.0718    4.2049   -2.0526 H         1 GTP         0.5182
@<TRIPOS>BOND
     1    1    2 2
     2    1    3 1
     3    1    4 1
     4    1    5 1
     5    4   33 1
     6    5    6 1
     7    6    7 2
     8    6    8 1
     9    6    9 1
    10    9   10 1
    11   10   11 2
    12   10   12 1
    13   10   13 1
    14   13   14 1
    15   14   15 1
    16   14   34 1
    17   14   35 1
    18   15   16 1
    19   15   17 1
    20   15   36 1
    21   16   21 1
    22   17   18 1
    23   17   19 1
    24   17   37 1
    25   18   38 1
    26   19   20 1
    27   19   21 1
    28   19   39 1
    29   20   40 1
    30   21   22 1
    31   21   41 1
    32   22   23 ar
    33   22   32 ar
    34   23   24 ar
    35   23   42 1
    36   24   25 ar
    37   24   46 1
    38   25   26 ar
    39   25   32 ar
    40   26   27 2
    41   26   28 ar
    42   28   29 ar
    43   29   30 1
    44   29   31 ar
    45   30   43 1
    46   30   44 1
    47   31   32 ar
    48   31   45 1
@<TRIPOS>SUBSTRUCTURE
     1 GTP         1 GROUP 0 A     ****
@<TRIPOS>MOLECULE
[[[5-(2-amino-6-oxo-7,8-dihydro-3~{H}-purin-8-ylium-9-yl)-3,4-dihydroxy-tetrahydrofuran-2-yl]methoxy-oxido-phosphoryl]oxy-oxido-phosphoryl] hydrogen phosphate
   46    48     1     0     0
SMALL
USER_CHARGES

@<TRIPOS>ATOM
      1 PG          5.5715    0.1496   -7.1386 P.3       1 GTP         1.5447
      2 O1G         6.2182   -0.9838   -7.9033 O.co2     1 GTP        -0.8705
      3 O2G         4.1253    0.5227   -7.3774 O.co2     1 GTP        -0.8705
      4 O3G         6.4890    1.4879   -7.3205 O.3       1 GTP        -0.7914
      5 O3B         5.7989   -0.0901   -5.5403 O.3       1 GTP        -0.8116
      6 PB          5.2054   -1.2550   -4.5625 P.3       1 GTP         1.6738
      7 O1B         5.5503   -2.6047   -5.1515 O.co2     1 GTP        -0.8763
      8 O2B         5.5352   -0.9098   -3.1274 O.co2     1 GTP        -0.8763
      9 O3A         3.6096   -0.9687   -4.7528 O.3       1 GTP        -0.8005
     10 PA          2.7407    0.3769   -4.4297 P.3       1 GTP         1.5754
     11 O1A         3.3568    1.5435   -5.1712 O.co2     1 GTP        -0.8771
     12 O2A         1.2702    0.0493   -4.5704 O.co2     1 GTP        -0.8771
     13 O5'         3.0213    0.5153   -2.8245 O.3       1 GTP        -0.5809
     14 C5'         2.2816   -0.2918   -1.9206 C.3       1 GTP         0.1986
     15 C4'         2.7248    0.0226   -0.4980 C.3       1 GTP         0.0418
     16 O4'         2.4697    1.4219   -0.2462 O.3       1 GTP        -0.3505
     17 C3'         1.9404   -0.7419    0.5596 C.3       1 GTP         0.0909
     18 O3'         2.7418   -0.8086    1.7389 O.3       1 GTP        -0.6187
     19 C2'         0.7477    0.1630    0.7858 C.3       1 GTP         0.0706
     20 O2'         0.1373   -0.0577    2.0407 O.3       1 GTP        -0.6294
     21 C1'         1.3733    1.5427    0.6747 C.3       1 GTP         0.3895
     22 N9          0.4520    2.5240    0.1767 N.pl3     1 GTP        -0.4733
     23 C8          0.2012    2.8401   -1.0899 C.ar      1 GTP         0.2958
     24 N7         -0.7168    3.7990   -1.1981 N.pl3     1 GTP        -0.4933
     25 C5         -1.0645    4.1043    0.0896 C.ar      1 GTP        -0.1494
     26 C6         -2.0336    5.0870    0.5973 C.ar      1 GTP         0.7954
     27 O6         -2.6730    5.7839   -0.1834 O.2       1 GTP        -0.5729
     28 N1         -2.1539    5.1517    1.9868 N.2       1 GTP        -0.7443
     29 C2         -1.4288    4.3650    2.7566 C.ar      1 GTP         0.8831
     30 N2         -1.5126    4.3922    4.1250 N.pl3     1 GTP        -0.9204
     31 N3         -0.5167    3.4388    2.2748 N.pl3     1 GTP        -0.7173
     32 C4         -0.3638    3.3392    0.9318 C.ar      1 GTP         0.2626
     33 HOG3        6.1999    2.3155   -6.8803 H         1 GTP         0.4102
     34 H5'         1.2163   -0.0770   -2.0471 H         1 GTP         0.0289
     35 H5''        2.4655   -1.3443   -2.1563 H         1 GTP         0.0289
     36 H4'         3.8044   -0.1397   -0.4040 H         1 GTP         0.2056
     37 H3'         1.6764   -1.7639    0.2728 H         1 GTP         0.1140
     38 HO3'        2.2232   -1.2979    2.3953 H         1 GTP         0.4287
     39 H2'        -0.0011    0.0027    0.0003 H         1 GTP         0.0809
     40 HO2'       -0.1563   -0.9855    2.0596 H         1 GTP         0.4385
     41 H1'         1.7826    1.9024    1.6451 H         1 GTP         0.0794
     42 H8          0.6787    2.3803   -1.9373 H         1 GTP         0.3821
     43 HN21       -2.1462    5.0320    4.5446 H         1 GTP         0.4411
     44 HN22       -0.9365    3.7712    4.6440 H         1 GTP         0.4411
     45 H45         0.0318    2.8419    2.8816 H         1 GTP         0.4819
     46 H46        -1.0718    4.2049   -2.0526 H         1 GTP         0.5182
@<TRIPOS>BOND
     1    1    2 2
     2    1    3 1
     3    1    4 1
     4    1    5 1
     5    4   33 1
     6    5    6 1
     7    6    7 2
     8    6    8 1
     9    6    9 1
    10    9   10 1
    11   10   11 2
    12   10   12 1
    13   10   13 1
    14   13   14 1
    15   14   15 1
    16   14   34 1
    17   14   35 1
    18   15   16 1
    19   15   17 1
    20   15   36 1
    21   16   21 1
    22   17   18 1
    23   17   19 1
    24   17   37 1
    25   18   38 1
    26   19   20 1
    27   19   21 1
    28   19   39 1
    29   20   40 1
    30   21   22 1
    31   21   41 1
    32   22   23 ar
    33   22   32 ar
    34   23   24 ar
    35   23   42 1
    36   24   25 ar
    37   24   46 1
    38   25   26 ar
    39   25   32 ar
    40   26   27 2
    41   26   28 ar
    42   28   29 ar
    43   29   30 1
    44   29   31 ar
    45   30   43 1
    46   30   44 1
    47   31   32 ar
    48   31   45 1
@<TRIPOS>SUBSTRUCTURE
     1 GTP         1 GROUP 0 A     ****
@<TRIPOS>MOLECULE
[[[5-(2-amino-6-oxo-7,8-dihydro-3~{H}-purin-8-ylium-9-yl)-3,4-dihydroxy-tetrahydrofuran-2-yl]methoxy-oxido-phosphoryl]oxy-oxido-phosphoryl] hydrogen phosphate
   46    48     1     0     0
SMALL
USER_CHARGES

@<TRIPOS>ATOM
      1 PG          2.4794   -3.5471   -4.2999 P.3       1 GTP         1.5447
      2 O1G         3.0245   -3.9410   -2.9452 O.co2     1 GTP        -0.8705
      3 O2G         1.2720   -4.2452   -4.8849 O.co2     1 GTP        -0.8705
      4 O3G         3.6951   -3.6149   -5.3878 O.3       1 GTP        -0.7914
      5 O3B         2.2201   -1.9358   -4.3200 O.3       1 GTP        -0.8116
      6 PB          1.7878   -0.9613   -5.5565 P.3       1 GTP         1.6738
      7 O1B         2.9096   -0.9382   -6.5706 O.co2     1 GTP        -0.8763
      8 O2B         0.3639   -1.2760   -5.9580 O.co2     1 GTP        -0.8763
      9 O3A         1.7410    0.4642   -4.7626 O.3       1 GTP        -0.8005
     10 PA          2.9232    1.2546   -3.9579 P.3       1 GTP         1.5754
     11 O1A         4.0962    1.4572   -4.8924 O.co2     1 GTP        -0.8771
     12 O2A         2.3071    2.4181   -3.2121 O.co2     1 GTP        -0.8771
     13 O5'         3.2903    0.1346   -2.8241 O.3       1 GTP        -0.5809
     14 C5'         2.2816   -0.2918   -1.9206 C.3       1 GTP         0.1986
     15 C4'         2.7248    0.0226   -0.4980 C.3       1 GTP         0.0418
     16 O4'         2.4697    1.4219   -0.2462 O.3       1 GTP        -0.3505
     17 C3'         1.9404   -0.7419    0.5596 C.3       1 GTP         0.0909
     18 O3'         2.7418   -0.8086    1.7389 O.3       1 GTP        -0.6187
     19 C2'         0.7477    0.1630    0.7858 C.3       1 GTP         0.0706
     20 O2'         0.1373   -0.0577    2.0407 O.3       1 GTP        -0.6294
     21 C1'         1.3733    1.5427    0.6747 C.3       1 GTP         0.3895
     22 N9          0.4520    2.5240    0.1767 N.pl3     1 GTP        -0.4733
     23 C8         -0.2136    2.5096   -0.9739 C.ar      1 GTP         0.2958
     24 N7         -0.9896    3.5820   -1.1212 N.pl3     1 GTP        -0.4933
     25 C5         -0.7962    4.3186    0.0156 C.ar      1 GTP        -0.1494
     26 C6         -1.3875    5.6031    0.4192 C.ar      1 GTP         0.7954
     27 O6         -2.1869    6.1731   -0.3158 O.2       1 GTP        -0.5729
     28 N1         -0.9745    6.0930    1.6597 N.2       1 GTP        -0.7443
     29 C2         -0.1105    5.4166    2.3900 C.ar      1 GTP         0.8831
     30 N2          0.3241    5.8571    3.6138 N.pl3     1 GTP        -0.9204
     31 N3          0.4444    4.2053    2.0072 N.pl3     1 GTP        -0.7173
     32 C4          0.0746    3.6889    0.8098 C.ar      1 GTP         0.2626
     33 HOG3        3.4996   -3.3852   -6.3212 H         1 GTP         0.4102
     34 H5'         1.3514    0.2330   -2.1577 H         1 GTP         0.0289
     35 H5''        2.1280   -1.3678   -2.0460 H         1 GTP         0.0289
     36 H4'         3.8044   -0.1397   -0.4040 H         1 GTP         0.2056
     37 H3'         1.6764   -1.7639    0.2728 H         1 GTP         0.1140
     38 HO3'        2.2232   -1.2979    2.3953 H         1 GTP         0.4287
     39 H2'        -0.0011    0.0027    0.0003 H         1 GTP         0.0809
     40 HO2'       -0.6141    0.5574    2.1082 H         1 GTP         0.4385
     41 H1'         1.7826    1.9024    1.6451 H         1 GTP         0.0794
     42 H8         -0.1415    1.7265   -1.7082 H         1 GTP         0.3821
     43 HN21       -0.0303    6.7197    3.9559 H         1 GTP         0.4411
     44 HN22        0.9765    5.2967    4.1108 H         1 GTP         0.4411
     45 H45         1.1068    3.6990    2.5819 H         1 GTP         0.4819
     46 H46        -1.5877    3.7943   -1.9074 H         1 GTP         0.5182
@<TRIPOS>BOND
     1    1    2 2
     2    1    3 1
     3    1    4 1
     4    1    5 1
     5    4   33 1
     6    5    6 1
     7    6    7 2
     8    6    8 1
     9    6    9 1
    10    9   10 1
    11   10   11 2
    12   10   12 1
    13   10   13 1
    14   13   14 1
    15   14   15 1
    16   14   34 1
    17   14   35 1
    18   15   16 1
    19   15   17 1
    20   15   36 1
    21   16   21 1
    22   17   18 1
    23   17   19 1
    24   17   37 1
    25   18   38 1
    26   19   20 1
    27   19   21 1
    28   19   39 1
    29   20   40 1
    30   21   22 1
    31   21   41 1
    32   22   23 ar
    33   22   32 ar
    34   23   24 ar
    35   23   42 1
    36   24   25 ar
    37   24   46 1
    38   25   26 ar
    39   25   32 ar
    40   26   27 2
    41   26   28 ar
    42   28   29 ar
    43   29   30 1
    44   29   31 ar
    45   30   43 1
    46   30   44 1
    47   31   32 ar
    48   31   45 1
@<TRIPOS>SUBSTRUCTURE
     1 GTP         1 GROUP 0 A     ****
@<TRIPOS>MOLECULE
[[[5-(2-amino-6-oxo-7,8-dihydro-3~{H}-purin-8-ylium-9-yl)-3,4-dihydroxy-tetrahydrofuran-2-yl]methoxy-oxido-phosphoryl]oxy-oxido-phosphoryl] hydrogen phosphate
   46    48     1     0     0
SMALL
USER_CHARGES

@<TRIPOS>ATOM
      1 PG         -0.1509   -2.0530   -5.4962 P.3       1 GTP         1.5447
      2 O1G        -0.0566   -3.2025   -6.4745 O.co2     1 GTP        -0.8705
      3 O2G         0.5865   -2.0933   -4.1762 O.co2     1 GTP        -0.8705
      4 O3G        -1.7281   -1.7520   -5.2000 O.3       1 GTP        -0.7914
      5 O3B         0.2240   -0.6654   -6.2693 O.3       1 GTP        -0.8116
      6 PB          0.1391    0.8790   -5.7466 P.3       1 GTP         1.6738
      7 O1B         0.7346    1.7821   -6.8037 O.co2     1 GTP        -0.8763
      8 O2B        -1.2381    1.1310   -5.1743 O.co2     1 GTP        -0.8763
      9 O3A         1.1584    0.7817   -4.4753 O.3       1 GTP        -0.8005
     10 PA          2.7407    0.3769   -4.4297 P.3       1 GTP         1.5754
     11 O1A         2.8866   -1.0655   -4.8640 O.co2     1 GTP        -0.8771
     12 O2A         3.5415    1.4776   -5.0906 O.co2     1 GTP        -0.8771
     13 O5'         3.0213    0.5153   -2.8245 O.3       1 GTP        -0.5809
     14 C5'         2.2816   -0.2918   -1.9206 C.3       1 GTP         0.1986
     15 C4'         2.7248    0.0226   -0.4980 C.3       1 GTP         0.0418
     16 O4'         2.4697    1.4219   -0.2462 O.3       1 GTP        -0.3505
     17 C3'         1.9404   -0.7419    0.5596 C.3       1 GTP         0.0909
     18 O3'         2.7418   -0.8086    1.7389 O.3       1 GTP        -0.6187
     19 C2'         0.7477    0.1630    0.7858 C.3       1 GTP         0.0706
     20 O2'         0.1373   -0.0577    2.0407 O.3       1 GTP        -0.6294
     21 C1'         1.3733    1.5427    0.6747 C.3       1 GTP         0.3895
     22 N9          0.4520    2.5240    0.1767 N.pl3     1 GTP        -0.4733
     23 C8         -0.2136    2.5096   -0.9739 C.ar      1 GTP         0.2958
     24 N7         -0.9896    3.5820   -1.1212 N.pl3     1 GTP        -0.4933
     25 C5         -0.7962    4.3186    0.0156 C.ar      1 GTP        -0.1494
     26 C6         -1.3875    5.6031    0.4192 C.ar      1 GTP         0.7954
     27 O6         -2.1869    6.1731   -0.3158 O.2       1 GTP        -0.5729
     28 N1         -0.9745    6.0930    1.6597 N.2       1 GTP        -0.7443
     29 C2         -0.1105    5.4166    2.3900 C.ar      1 GTP         0.8831
     30 N2          0.3241    5.8571    3.6138 N.pl3     1 GTP        -0.9204
     31 N3          0.4444    4.2053    2.0072 N.pl3     1 GTP        -0.7173
     32 C4          0.0746    3.6889    0.8098 C.ar      1 GTP         0.2626
     33 HOG3       -2.3050   -1.5016   -5.9529 H         1 GTP         0.4102
     34 H5'         1.2163   -0.0770   -2.0471 H         1 GTP         0.0289
     35 H5''        2.4655   -1.3443   -2.1563 H         1 GTP         0.0289
     36 H4'         3.8044   -0.1397   -0.4040 H         1 GTP         0.2056
     37 H3'         1.6764   -1.7639    0.2728 H         1 GTP         0.1140
     38 HO3'        3.5554   -1.2733    1.4914 H         1 GTP         0.4287
     39 H2'        -0.0011    0.0027    0.0003 H         1 GTP         0.0809
     40 HO2'       -0.1563   -0.9855    2.0596 H         1 GTP         0.4385
     41 H1'         1.7826    1.9024    1.6451 H         1 GTP         0.0794
     42 H8         -0.1415    1.7265   -1.7082 H         1 GTP         0.3821
     43 HN21       -0.0303    6.7197    3.9559 H         1 GTP         0.4411
     44 HN22        0.9765    5.2967    4.1108 H         1 GTP         0.4411
     45 H45         1.1068    3.6990    2.5819 H         1 GTP         0.4819
     46 H46        -1.5877    3.7943   -1.9074 H         1 GTP         0.5182
@<TRIPOS>BOND
     1    1    2 2
     2    1    3 1
     3    1    4 1
     4    1    5 1
     5    4   33 1
     6    5    6 1
     7    6    7 2
     8    6    8 1
     9    6    9 1
    10    9   10 1
    11   10   11 2
    12   10   12 1
    13   10   13 1
    14   13   14 1
    15   14   15 1
    16   14   34 1
    17   14   35 1
    18   15   16 1
    19   15   17 1
    20   15   36 1
    21   16   21 1
    22   17   18 1
    23   17   19 1
    24   17   37 1
    25   18   38 1
    26   19   20 1
    27   19   21 1
    28   19   39 1
    29   20   40 1
    30   21   22 1
    31   21   41 1
    32   22   23 ar
    33   22   32 ar
    34   23   24 ar
    35   23   42 1
    36   24   25 ar
    37   24   46 1
    38   25   26 ar
    39   25   32 ar
    40   26   27 2
    41   26   28 ar
    42   28   29 ar
    43   29   30 1
    44   29   31 ar
    45   30   43 1
    46   30   44 1
    47   31   32 ar
    48   31   45 1
@<TRIPOS>SUBSTRUCTURE
     1 GTP         1 GROUP 0 A     ****
@<TRIPOS>MOLECULE
[[[5-(2-amino-6-oxo-7,8-dihydro-3~{H}-purin-8-ylium-9-yl)-3,4-dihydroxy-tetrahydrofuran-2-yl]methoxy-oxido-phosphoryl]oxy-oxido-phosphoryl] hydrogen phosphate
   46    48     1     0     0
SMALL
USER_CHARGES

@<TRIPOS>ATOM
      1 PG          7.8420   -1.5643   -3.2628 P.3       1 GTP         1.5447
      2 O1G         8.9304   -1.4783   -4.3095 O.co2     1 GTP        -0.8705
      3 O2G         7.0775   -0.3319   -2.8334 O.co2     1 GTP        -0.8705
      4 O3G         8.4579   -2.2821   -1.9319 O.3       1 GTP        -0.7914
      5 O3B         6.7774   -2.7225   -3.6974 O.3       1 GTP        -0.8116
      6 PB          5.5080   -3.3379   -2.8756 P.3       1 GTP         1.6738
      7 O1B         4.7607   -4.2916   -3.7809 O.co2     1 GTP        -0.8763
      8 O2B         5.9679   -3.7525   -1.4957 O.co2     1 GTP        -0.8763
      9 O3A         4.6346   -1.9724   -2.6820 O.3       1 GTP        -0.8005
     10 PA          4.0010   -0.9663   -3.8028 P.3       1 GTP         1.5754
     11 O1A         5.1327   -0.3254   -4.5764 O.co2     1 GTP        -0.8771
     12 O2A         2.8739   -1.6823   -4.5145 O.co2     1 GTP        -0.8771
     13 O5'         3.2903    0.1346   -2.8241 O.3       1 GTP        -0.5809
     14 C5'         2.2816   -0.2918   -1.9206 C.3       1 GTP         0.1986
     15 C4'         2.7248    0.0226   -0.4980 C.3       1 GTP         0.0418
     16 O4'         2.4697    1.4219   -0.2462 O.3       1 GTP        -0.3505
     17 C3'         1.9404   -0.7419    0.5596 C.3       1 GTP         0.0909
     18 O3'         2.7418   -0.8086    1.7389 O.3       1 GTP        -0.6187
     19 C2'         0.7477    0.1630    0.7858 C.3       1 GTP         0.0706
     20 O2'         0.1373   -0.0577    2.0407 O.3       1 GTP        -0.6294
     21 C1'         1.3733    1.5427    0.6747 C.3       1 GTP         0.3895
     22 N9          0.4520    2.5240    0.1767 N.pl3     1 GTP        -0.4733
     23 C8          0.2012    2.8401   -1.0899 C.ar      1 GTP         0.2958
     24 N7         -0.7168    3.7990   -1.1981 N.pl3     1 GTP        -0.4933
     25 C5         -1.0645    4.1043    0.0896 C.ar      1 GTP        -0.1494
     26 C6         -2.0336    5.0870    0.5973 C.ar      1 GTP         0.7954
     27 O6         -2.6730    5.7839   -0.1834 O.2       1 GTP        -0.5729
     28 N1         -2.1539    5.1517    1.9868 N.2       1 GTP        -0.7443
     29 C2         -1.4288    4.3650    2.7566 C.ar      1 GTP         0.8831
     30 N2         -1.5126    4.3922    4.1250 N.pl3     1 GTP        -0.9204
     31 N3         -0.5167    3.4388    2.2748 N.pl3     1 GTP        -0.7173
     32 C4         -0.3638    3.3392    0.9318 C.ar      1 GTP         0.2626
     33 HOG3        7.8703   -2.4121   -1.1572 H         1 GTP         0.4102
     34 H5'         1.3514    0.2330   -2.1577 H         1 GTP         0.0289
     35 H5''        2.1280   -1.3678   -2.0460 H         1 GTP         0.0289
     36 H4'         3.8044   -0.1397   -0.4040 H         1 GTP         0.2056
     37 H3'         1.6764   -1.7639    0.2728 H         1 GTP         0.1140
     38 HO3'        2.2232   -1.2979    2.3953 H         1 GTP         0.4287
     39 H2'        -0.0011    0.0027    0.0003 H         1 GTP         0.0809
     40 HO2'       -0.1563   -0.9855    2.0596 H         1 GTP         0.4385
     41 H1'         1.7826    1.9024    1.6451 H         1 GTP         0.0794
     42 H8          0.6787    2.3803   -1.9373 H         1 GTP         0.3821
     43 HN21       -2.1462    5.0320    4.5446 H         1 GTP         0.4411
     44 HN22       -0.9365    3.7712    4.6440 H         1 GTP         0.4411
     45 H45         0.0318    2.8419    2.8816 H         1 GTP         0.4819
     46 H46        -1.0718    4.2049   -2.0526 H         1 GTP         0.5182
@<TRIPOS>BOND
     1    1    2 2
     2    1    3 1
     3    1    4 1
     4    1    5 1
     5    4   33 1
     6    5    6 1
     7    6    7 2
     8    6    8 1
     9    6    9 1
    10    9   10 1
    11   10   11 2
    12   10   12 1
    13   10   13 1
    14   13   14 1
    15   14   15 1
    16   14   34 1
    17   14   35 1
    18   15   16 1
    19   15   17 1
    20   15   36 1
    21   16   21 1
    22   17   18 1
    23   17   19 1
    24   17   37 1
    25   18   38 1
    26   19   20 1
    27   19   21 1
    28   19   39 1
    29   20   40 1
    30   21   22 1
    31   21   41 1
    32   22   23 ar
    33   22   32 ar
    34   23   24 ar
    35   23   42 1
    36   24   25 ar
    37   24   46 1
    38   25   26 ar
    39   25   32 ar
    40   26   27 2
    41   26   28 ar
    42   28   29 ar
    43   29   30 1
    44   29   31 ar
    45   30   43 1
    46   30   44 1
    47   31   32 ar
    48   31   45 1
@<TRIPOS>SUBSTRUCTURE
     1 GTP         1 GROUP 0 A     ****
@<TRIPOS>MOLECULE
[[[5-(2-amino-6-oxo-7,8-dihydro-3~{H}-purin-8-ylium-9-yl)-3,4-dihydroxy-tetrahydrofuran-2-yl]methoxy-oxido-phosphoryl]oxy-oxido-phosphoryl] hydrogen phosphate
   46    48     1     0     0
SMALL
USER_CHARGES

@<TRIPOS>ATOM
      1 PG         -1.3176   -5.3297   -2.2129 P.3       1 GTP         1.5447
      2 O1G        -0.9013   -6.6233   -2.8769 O.co2     1 GTP        -0.8705
      3 O2G        -1.2835   -5.1825   -0.7079 O.co2     1 GTP        -0.8705
      4 O3G        -2.8118   -4.9342   -2.7388 O.3       1 GTP        -0.7914
      5 O3B        -0.4855   -4.0965   -2.8840 O.3       1 GTP        -0.8116
      6 PB         -0.6416   -2.4864   -2.6626 P.3       1 GTP         1.6738
      7 O1B        -1.9907   -2.0529   -3.1911 O.co2     1 GTP        -0.8763
      8 O2B        -0.1894   -2.1349   -1.2627 O.co2     1 GTP        -0.8763
      9 O3A         0.5318   -1.9682   -3.6723 O.3       1 GTP        -0.8005
     10 PA          2.1372   -2.2718   -3.6563 P.3       1 GTP         1.5754
     11 O1A         2.3492   -3.7701   -3.6757 O.co2     1 GTP        -0.8771
     12 O2A         2.8102   -1.3732   -4.6709 O.co2     1 GTP        -0.8771
     13 O5'         2.5245   -1.6648   -2.1878 O.3       1 GTP        -0.5809
     14 C5'         2.2816   -0.2918   -1.9206 C.3       1 GTP         0.1986
     15 C4'         2.7248    0.0226   -0.4980 C.3       1 GTP         0.0418
     16 O4'         2.4697    1.4219   -0.2462 O.3       1 GTP        -0.3505
     17 C3'         1.9404   -0.7419    0.5596 C.3       1 GTP         0.0909
     18 O3'         2.7418   -0.8086    1.7389 O.3       1 GTP        -0.6187
     19 C2'         0.7477    0.1630    0.7858 C.3       1 GTP         0.0706
     20 O2'         0.1373   -0.0577    2.0407 O.3       1 GTP        -0.6294
     21 C1'         1.3733    1.5427    0.6747 C.3       1 GTP         0.3895
     22 N9          0.4520    2.5240    0.1767 N.pl3     1 GTP        -0.4733
     23 C8         -0.2136    2.5096   -0.9739 C.ar      1 GTP         0.2958
     24 N7         -0.9896    3.5820   -1.1212 N.pl3     1 GTP        -0.4933
     25 C5         -0.7962    4.3186    0.0156 C.ar      1 GTP        -0.1494
     26 C6         -1.3875    5.6031    0.4192 C.ar      1 GTP         0.7954
     27 O6         -2.1869    6.1731   -0.3158 O.2       1 GTP        -0.5729
     28 N1         -0.9745    6.0930    1.6597 N.2       1 GTP        -0.7443
     29 C2         -0.1105    5.4166    2.3900 C.ar      1 GTP         0.8831
     30 N2          0.3241    5.8571    3.6138 N.pl3     1 GTP        -0.9204
     31 N3          0.4444    4.2053    2.0072 N.pl3     1 GTP        -0.7173
     32 C4          0.0746    3.6889    0.8098 C.ar      1 GTP         0.2626
     33 HOG3       -3.2250   -4.1129   -2.3966 H         1 GTP         0.4102
     34 H5'         2.8432    0.3119   -2.6398 H         1 GTP         0.0289
     35 H5''        1.2128   -0.0927   -2.0428 H         1 GTP         0.0289
     36 H4'         3.8044   -0.1397   -0.4040 H         1 GTP         0.2056
     37 H3'         1.6764   -1.7639    0.2728 H         1 GTP         0.1140
     38 HO3'        2.2232   -1.2979    2.3953 H         1 GTP         0.4287
     39 H2'        -0.0011    0.0027    0.0003 H         1 GTP         0.0809
     40 HO2'       -0.6141    0.5574    2.1082 H         1 GTP         0.4385
     41 H1'         1.7826    1.9024    1.6451 H         1 GTP         0.0794
     42 H8         -0.1415    1.7265   -1.7082 H         1 GTP         0.3821
     43 HN21       -0.0303    6.7197    3.9559 H         1 GTP         0.4411
     44 HN22        0.9765    5.2967    4.1108 H         1 GTP         0.4411
     45 H45         1.1068    3.6990    2.5819 H         1 GTP         0.4819
     46 H46        -1.5877    3.7943   -1.9074 H         1 GTP         0.5182
@<TRIPOS>BOND
     1    1    2 2
     2    1    3 1
     3    1    4 1
     4    1    5 1
     5    4   33 1
     6    5    6 1
     7    6    7 2
     8    6    8 1
     9    6    9 1
    10    9   10 1
    11   10   11 2
    12   10   12 1
    13   10   13 1
    14   13   14 1
    15   14   15 1
    16   14   34 1
    17   14   35 1
    18   15   16 1
    19   15   17 1
    20   15   36 1
    21   16   21 1
    22   17   18 1
    23   17   19 1
    24   17   37 1
    25   18   38 1
    26   19   20 1
    27   19   21 1
    28   19   39 1
    29   20   40 1
    30   21   22 1
    31   21   41 1
    32   22   23 ar
    33   22   32 ar
    34   23   24 ar
    35   23   42 1
    36   24   25 ar
    37   24   46 1
    38   25   26 ar
    39   25   32 ar
    40   26   27 2
    41   26   28 ar
    42   28   29 ar
    43   29   30 1
    44   29   31 ar
    45   30   43 1
    46   30   44 1
    47   31   32 ar
    48   31   45 1
@<TRIPOS>SUBSTRUCTURE
     1 GTP         1 GROUP 0 A     ****
@<TRIPOS>MOLECULE
[[[5-(2-amino-6-oxo-7,8-dihydro-3~{H}-purin-8-ylium-9-yl)-3,4-dihydroxy-tetrahydrofuran-2-yl]methoxy-oxido-phosphoryl]oxy-oxido-phosphoryl] hydrogen phosphate
   46    48     1     0     0
SMALL
USER_CHARGES

@<TRIPOS>ATOM
      1 PG          5.1859    4.3500   -4.7953 P.3       1 GTP         1.5447
      2 O1G         6.5067    4.3365   -5.5320 O.co2     1 GTP        -0.8705
      3 O2G         3.8983    3.9883   -5.5016 O.co2     1 GTP        -0.8705
      4 O3G         4.9988    5.8119   -4.0927 O.3       1 GTP        -0.7914
      5 O3B         5.3215    3.4430   -3.4452 O.3       1 GTP        -0.8116
      6 PB          4.2675    3.2329   -2.2161 P.3       1 GTP         1.6738
      7 O1B         4.8193    2.1823   -1.2785 O.co2     1 GTP        -0.8763
      8 O2B         3.8207    4.5873   -1.7126 O.co2     1 GTP        -0.8763
      9 O3A         3.0106    2.6117   -3.0522 O.3       1 GTP        -0.8005
     10 PA          2.9232    1.2546   -3.9579 P.3       1 GTP         1.5754
     11 O1A         1.4961    1.0747   -4.4283 O.co2     1 GTP        -0.8771
     12 O2A         4.0762    1.2511   -4.9378 O.co2     1 GTP        -0.8771
     13 O5'         3.2903    0.1346   -2.8241 O.3       1 GTP        -0.5809
     14 C5'         2.2816   -0.2918   -1.9206 C.3       1 GTP         0.1986
     15 C4'         2.7248    0.0226   -0.4980 C.3       1 GTP         0.0418
     16 O4'         2.4697    1.4219   -0.2462 O.3       1 GTP        -0.3505
     17 C3'         1.9404   -0.7419    0.5596 C.3       1 GTP         0.0909
     18 O3'         2.7418   -0.8086    1.7389 O.3       1 GTP        -0.6187
     19 C2'         0.7477    0.1630    0.7858 C.3       1 GTP         0.0706
     20 O2'         0.1373   -0.0577    2.0407 O.3       1 GTP        -0.6294
     21 C1'         1.3733    1.5427    0.6747 C.3       1 GTP         0.3895
     22 N9          0.4520    2.5240    0.1767 N.pl3     1 GTP        -0.4733
     23 C8          0.2012    2.8401   -1.0899 C.ar      1 GTP         0.2958
     24 N7         -0.7168    3.7990   -1.1981 N.pl3     1 GTP        -0.4933
     25 C5         -1.0645    4.1043    0.0896 C.ar      1 GTP        -0.1494
     26 C6         -2.0336    5.0870    0.5973 C.ar      1 GTP         0.7954
     27 O6         -2.6730    5.7839   -0.1834 O.2       1 GTP        -0.5729
     28 N1         -2.1539    5.1517    1.9868 N.2       1 GTP        -0.7443
     29 C2         -1.4288    4.3650    2.7566 C.ar      1 GTP         0.8831
     30 N2         -1.5126    4.3922    4.1250 N.pl3     1 GTP        -0.9204
     31 N3         -0.5167    3.4388    2.2748 N.pl3     1 GTP        -0.7173
     32 C4         -0.3638    3.3392    0.9318 C.ar      1 GTP         0.2626
     33 HOG3        4.1839    5.9793   -3.5729 H         1 GTP         0.4102
     34 H5'         1.3514    0.2330   -2.1577 H         1 GTP         0.0289
     35 H5''        2.1280   -1.3678   -2.0460 H         1 GTP         0.0289
     36 H4'         3.8044   -0.1397   -0.4040 H         1 GTP         0.2056
     37 H3'         1.6764   -1.7639    0.2728 H         1 GTP         0.1140
     38 HO3'        2.2232   -1.2979    2.3953 H         1 GTP         0.4287
     39 H2'        -0.0011    0.0027    0.0003 H         1 GTP         0.0809
     40 HO2'       -0.6141    0.5574    2.1082 H         1 GTP         0.4385
     41 H1'         1.7826    1.9024    1.6451 H         1 GTP         0.0794
     42 H8          0.6787    2.3803   -1.9373 H         1 GTP         0.3821
     43 HN21       -2.1462    5.0320    4.5446 H         1 GTP         0.4411
     44 HN22       -0.9365    3.7712    4.6440 H         1 GTP         0.4411
     45 H45         0.0318    2.8419    2.8816 H         1 GTP         0.4819
     46 H46        -1.0718    4.2049   -2.0526 H         1 GTP         0.5182
@<TRIPOS>BOND
     1    1    2 2
     2    1    3 1
     3    1    4 1
     4    1    5 1
     5    4   33 1
     6    5    6 1
     7    6    7 2
     8    6    8 1
     9    6    9 1
    10    9   10 1
    11   10   11 2
    12   10   12 1
    13   10   13 1
    14   13   14 1
    15   14   15 1
    16   14   34 1
    17   14   35 1
    18   15   16 1
    19   15   17 1
    20   15   36 1
    21   16   21 1
    22   17   18 1
    23   17   19 1
    24   17   37 1
    25   18   38 1
    26   19   20 1
    27   19   21 1
    28   19   39 1
    29   20   40 1
    30   21   22 1
    31   21   41 1
    32   22   23 ar
    33   22   32 ar
    34   23   24 ar
    35   23   42 1
    36   24   25 ar
    37   24   46 1
    38   25   26 ar
    39   25   32 ar
    40   26   27 2
    41   26   28 ar
    42   28   29 ar
    43   29   30 1
    44   29   31 ar
    45   30   43 1
    46   30   44 1
    47   31   32 ar
    48   31   45 1
@<TRIPOS>SUBSTRUCTURE
     1 GTP         1 GROUP 0 A     ****
@<TRIPOS>MOLECULE
[[[5-(2-amino-6-oxo-7,8-dihydro-3~{H}-purin-8-ylium-9-yl)-3,4-dihydroxy-tetrahydrofuran-2-yl]methoxy-oxido-phosphoryl]oxy-oxido-phosphoryl] hydrogen phosphate
   46    48     1     0     0
SMALL
USER_CHARGES

@<TRIPOS>ATOM
      1 PG         -1.3176   -5.3297   -2.2129 P.3       1 GTP         1.5447
      2 O1G        -1.0069   -5.3858   -0.7338 O.co2     1 GTP        -0.8705
      3 O2G        -2.7467   -5.2824   -2.7057 O.co2     1 GTP        -0.8705
      4 O3G        -0.5558   -6.5715   -2.9503 O.3       1 GTP        -0.7914
      5 O3B        -0.4855   -4.0965   -2.8840 O.3       1 GTP        -0.8116
      6 PB         -0.6416   -2.4864   -2.6626 P.3       1 GTP         1.6738
      7 O1B        -1.9907   -2.0529   -3.1911 O.co2     1 GTP        -0.8763
      8 O2B        -0.1894   -2.1349   -1.2627 O.co2     1 GTP        -0.8763
      9 O3A         0.5318   -1.9682   -3.6723 O.3       1 GTP        -0.8005
     10 PA          2.1372   -2.2718   -3.6563 P.3       1 GTP         1.5754
     11 O1A         2.3492   -3.7701   -3.6757 O.co2     1 GTP        -0.8771
     12 O2A         2.8102   -1.3732   -4.6709 O.co2     1 GTP        -0.8771
     13 O5'         2.5245   -1.6648   -2.1878 O.3       1 GTP        -0.5809
     14 C5'         2.2816   -0.2918   -1.9206 C.3       1 GTP         0.1986
     15 C4'         2.7248    0.0226   -0.4980 C.3       1 GTP         0.0418
     16 O4'         2.4697    1.4219   -0.2462 O.3       1 GTP        -0.3505
     17 C3'         1.9404   -0.7419    0.5596 C.3       1 GTP         0.0909
     18 O3'         2.7418   -0.8086    1.7389 O.3       1 GTP        -0.6187
     19 C2'         0.7477    0.1630    0.7858 C.3       1 GTP         0.0706
     20 O2'         0.1373   -0.0577    2.0407 O.3       1 GTP        -0.6294
     21 C1'         1.3733    1.5427    0.6747 C.3       1 GTP         0.3895
     22 N9          0.4520    2.5240    0.1767 N.pl3     1 GTP        -0.4733
     23 C8          0.5427    3.2356   -0.9425 C.ar      1 GTP         0.2958
     24 N7         -0.4919    4.0590   -1.1018 N.pl3     1 GTP        -0.4933
     25 C5         -1.2850    3.8484   -0.0069 C.ar      1 GTP        -0.1494
     26 C6         -2.5644    4.4707    0.3650 C.ar      1 GTP         0.7954
     27 O6         -3.0718    5.3200   -0.3599 O.2       1 GTP        -0.5729
     28 N1         -3.1239    4.0269    1.5647 N.2       1 GTP        -0.7443
     29 C2         -2.5133    3.1079    2.2858 C.ar      1 GTP         0.8831
     30 N2         -3.0239    2.6409    3.4697 N.pl3     1 GTP        -0.9204
     31 N3         -1.3076    2.5223    1.9320 N.pl3     1 GTP        -0.7173
     32 C4         -0.7246    2.9211    0.7753 C.ar      1 GTP         0.2626
     33 HOG3       -0.6597   -6.6730   -3.9204 H         1 GTP         0.4102
     34 H5'         2.8432    0.3119   -2.6398 H         1 GTP         0.0289
     35 H5''        1.2128   -0.0927   -2.0428 H         1 GTP         0.0289
     36 H4'         3.8044   -0.1397   -0.4040 H         1 GTP         0.2056
     37 H3'         1.6764   -1.7639    0.2728 H         1 GTP         0.1140
     38 HO3'        2.2232   -1.2979    2.3953 H         1 GTP         0.4287
     39 H2'        -0.0011    0.0027    0.0003 H         1 GTP         0.0809
     40 HO2'       -0.1563   -0.9855    2.0596 H         1 GTP         0.4385
     41 H1'         1.7826    1.9024    1.6451 H         1 GTP         0.0794
     42 H8          1.3539    3.1622   -1.6455 H         1 GTP         0.3821
     43 HN21       -3.8871    3.0143    3.7893 H         1 GTP         0.4411
     44 HN22       -2.5108    1.9472    3.9621 H         1 GTP         0.4411
     45 H45        -0.8530    1.8168    2.4986 H         1 GTP         0.4819
     46 H46        -0.6466    4.6966   -1.8702 H         1 GTP         0.5182
@<TRIPOS>BOND
     1    1    2 2
     2    1    3 1
     3    1    4 1
     4    1    5 1
     5    4   33 1
     6    5    6 1
     7    6    7 2
     8    6    8 1
     9    6    9 1
    10    9   10 1
    11   10   11 2
    12   10   12 1
    13   10   13 1
    14   13   14 1
    15   14   15 1
    16   14   34 1
    17   14   35 1
    18   15   16 1
    19   15   17 1
    20   15   36 1
    21   16   21 1
    22   17   18 1
    23   17   19 1
    24   17   37 1
    25   18   38 1
    26   19   20 1
    27   19   21 1
    28   19   39 1
    29   20   40 1
    30   21   22 1
    31   21   41 1
    32   22   23 ar
    33   22   32 ar
    34   23   24 ar
    35   23   42 1
    36   24   25 ar
    37   24   46 1
    38   25   26 ar
    39   25   32 ar
    40   26   27 2
    41   26   28 ar
    42   28   29 ar
    43   29   30 1
    44   29   31 ar
    45   30   43 1
    46   30   44 1
    47   31   32 ar
    48   31   45 1
@<TRIPOS>SUBSTRUCTURE
     1 GTP         1 GROUP 0 A     ****
@<TRIPOS>MOLECULE
[[[5-(2-amino-6-oxo-7,8-dihydro-3~{H}-purin-8-ylium-9-yl)-3,4-dihydroxy-tetrahydrofuran-2-yl]methoxy-oxido-phosphoryl]oxy-oxido-phosphoryl] hydrogen phosphate
   46    48     1     0     0
SMALL
USER_CHARGES

@<TRIPOS>ATOM
      1 PG         -3.0898   -4.7418    6.1879 P.3       1 GTP         1.5447
      2 O1G        -2.7914   -5.2141    7.5934 O.co2     1 GTP        -0.8705
      3 O2G        -2.0053   -4.1368    5.3245 O.co2     1 GTP        -0.8705
      4 O3G        -4.3468   -3.7014    6.2463 O.3       1 GTP        -0.7914
      5 O3B        -3.8096   -5.9520    5.3625 O.3       1 GTP        -0.8116
      6 PB         -4.4764   -5.9495    3.8722 P.3       1 GTP         1.6738
      7 O1B        -4.8829   -7.3632    3.5206 O.co2     1 GTP        -0.8763
      8 O2B        -5.4502   -4.7968    3.7694 O.co2     1 GTP        -0.8763
      9 O3A        -3.1638   -5.5263    2.9987 O.3       1 GTP        -0.8005
     10 PA         -1.7207   -6.2770    2.8455 P.3       1 GTP         1.5754
     11 O1A        -1.0265   -6.2759    4.1903 O.co2     1 GTP        -0.8771
     12 O2A        -1.9224   -7.5608    2.0704 O.co2     1 GTP        -0.8771
     13 O5'        -0.9724   -5.2440    1.8220 O.3       1 GTP        -0.5809
     14 C5'        -0.7840   -3.8935    2.2172 C.3       1 GTP         0.1986
     15 C4'        -0.0724   -3.1466    1.1027 C.3       1 GTP         0.0418
     16 O4'        -0.8674   -3.1929   -0.0945 O.3       1 GTP        -0.3505
     17 C3'         0.1338   -1.6715    1.4027 C.3       1 GTP         0.0909
     18 O3'         1.2893   -1.4445    2.1808 O.3       1 GTP        -0.6187
     19 C2'         0.2158   -1.0724    0.0128 C.3       1 GTP         0.0706
     20 O2'         1.5141   -1.2448   -0.5513 O.3       1 GTP        -0.6294
     21 C1'        -0.7897   -1.9176   -0.7583 C.3       1 GTP         0.3895
     22 N9         -2.1040   -1.3333   -0.7704 N.pl3     1 GTP        -0.4733
     23 C8         -3.0774   -1.4939    0.1205 C.ar      1 GTP         0.2958
     24 N7         -4.1709   -0.8031   -0.1972 N.pl3     1 GTP        -0.4933
     25 C5         -3.8606   -0.1662   -1.3678 C.ar      1 GTP        -0.1494
     26 C6         -4.6738    0.7391   -2.1934 C.ar      1 GTP         0.7954
     27 O6         -5.8186    1.0214   -1.8562 O.2       1 GTP        -0.5729
     28 N1         -4.0520    1.2260   -3.3448 N.2       1 GTP        -0.7443
     29 C2         -2.8155    0.8734   -3.6351 C.ar      1 GTP         0.8831
     30 N2         -2.1637    1.3257   -4.7536 N.pl3     1 GTP        -0.9204
     31 N3         -2.0511    0.0205   -2.8541 N.pl3     1 GTP        -0.7173
     32 C4         -2.6117   -0.4790   -1.7258 C.ar      1 GTP         0.2626
     33 HOG3       -4.6633   -3.3039    5.4072 H         1 GTP         0.4102
     34 H5'        -1.7618   -3.4448    2.4164 H         1 GTP         0.0289
     35 H5''       -0.1874   -3.8744    3.1341 H         1 GTP         0.0289
     36 H4'         0.8874   -3.6466    0.8805 H         1 GTP         0.2056
     37 H3'        -0.7376   -1.2333    1.9867 H         1 GTP         0.1140
     38 HO3'        1.3408   -0.4870    2.3219 H         1 GTP         0.4287
     39 H2'        -0.0384   -0.0310    0.0096 H         1 GTP         0.0809
     40 HO2'        2.1463   -0.7958    0.0370 H         1 GTP         0.4385
     41 H1'        -0.4769   -2.1002   -1.8093 H         1 GTP         0.0794
     42 H8         -3.0010   -2.1083    1.0004 H         1 GTP         0.3821
     43 HN21       -2.6485    1.9422   -5.3633 H         1 GTP         0.4411
     44 HN22       -1.2319    1.0195   -4.9110 H         1 GTP         0.4411
     45 H45        -1.1018   -0.2391   -3.0927 H         1 GTP         0.4819
     46 H46        -5.0365   -0.7653    0.3226 H         1 GTP         0.5182
@<TRIPOS>BOND
     1    1    2 2
     2    1    3 1
     3    1    4 1
     4    1    5 1
     5    4   33 1
     6    5    6 1
     7    6    7 2
     8    6    8 1
     9    6    9 1
    10    9   10 1
    11   10   11 2
    12   10   12 1
    13   10   13 1
    14   13   14 1
    15   14   15 1
    16   14   34 1
    17   14   35 1
    18   15   16 1
    19   15   17 1
    20   15   36 1
    21   16   21 1
    22   17   18 1
    23   17   19 1
    24   17   37 1
    25   18   38 1
    26   19   20 1
    27   19   21 1
    28   19   39 1
    29   20   40 1
    30   21   22 1
    31   21   41 1
    32   22   23 ar
    33   22   32 ar
    34   23   24 ar
    35   23   42 1
    36   24   25 ar
    37   24   46 1
    38   25   26 ar
    39   25   32 ar
    40   26   27 2
    41   26   28 ar
    42   28   29 ar
    43   29   30 1
    44   29   31 ar
    45   30   43 1
    46   30   44 1
    47   31   32 ar
    48   31   45 1
@<TRIPOS>SUBSTRUCTURE
     1 GTP         1 GROUP 0 A     ****
@<TRIPOS>MOLECULE
[[[5-(2-amino-6-oxo-7,8-dihydro-3~{H}-purin-8-ylium-9-yl)-3,4-dihydroxy-tetrahydrofuran-2-yl]methoxy-oxido-phosphoryl]oxy-oxido-phosphoryl] hydrogen phosphate
   46    48     1     0     0
SMALL
USER_CHARGES

@<TRIPOS>ATOM
      1 PG          1.3386   -5.2227   -5.5321 P.3       1 GTP         1.5447
      2 O1G         0.3784   -5.2186   -4.3636 O.co2     1 GTP        -0.8705
      3 O2G         0.8296   -5.2203   -6.9564 O.co2     1 GTP        -0.8705
      4 O3G         2.3693   -6.4761   -5.3520 O.3       1 GTP        -0.7914
      5 O3B         2.4035   -3.9995   -5.3489 O.3       1 GTP        -0.8116
      6 PB          2.1603   -2.3856   -5.3929 P.3       1 GTP         1.6738
      7 O1B         3.4525   -1.6904   -5.0265 O.co2     1 GTP        -0.8763
      8 O2B         1.4027   -2.0351   -6.6542 O.co2     1 GTP        -0.8763
      9 O3A         1.0982   -2.2471   -4.1610 O.3       1 GTP        -0.8005
     10 PA          1.2681   -2.6345   -2.5827 P.3       1 GTP         1.5754
     11 O1A         0.0218   -2.2049   -1.8394 O.co2     1 GTP        -0.8771
     12 O2A         1.7874   -4.0524   -2.4852 O.co2     1 GTP        -0.8771
     13 O5'         2.5245   -1.6648   -2.1878 O.3       1 GTP        -0.5809
     14 C5'         2.2816   -0.2918   -1.9206 C.3       1 GTP         0.1986
     15 C4'         2.7248    0.0226   -0.4980 C.3       1 GTP         0.0418
     16 O4'         2.4697    1.4219   -0.2462 O.3       1 GTP        -0.3505
     17 C3'         1.9404   -0.7419    0.5596 C.3       1 GTP         0.0909
     18 O3'         2.7418   -0.8086    1.7389 O.3       1 GTP        -0.6187
     19 C2'         0.7477    0.1630    0.7858 C.3       1 GTP         0.0706
     20 O2'         0.1373   -0.0577    2.0407 O.3       1 GTP        -0.6294
     21 C1'         1.3733    1.5427    0.6747 C.3       1 GTP         0.3895
     22 N9          0.4520    2.5240    0.1767 N.pl3     1 GTP        -0.4733
     23 C8          0.2012    2.8401   -1.0899 C.ar      1 GTP         0.2958
     24 N7         -0.7168    3.7990   -1.1981 N.pl3     1 GTP        -0.4933
     25 C5         -1.0645    4.1043    0.0896 C.ar      1 GTP        -0.1494
     26 C6         -2.0336    5.0870    0.5973 C.ar      1 GTP         0.7954
     27 O6         -2.6730    5.7839   -0.1834 O.2       1 GTP        -0.5729
     28 N1         -2.1539    5.1517    1.9868 N.2       1 GTP        -0.7443
     29 C2         -1.4288    4.3650    2.7566 C.ar      1 GTP         0.8831
     30 N2         -1.5126    4.3922    4.1250 N.pl3     1 GTP        -0.9204
     31 N3         -0.5167    3.4388    2.2748 N.pl3     1 GTP        -0.7173
     32 C4         -0.3638    3.3392    0.9318 C.ar      1 GTP         0.2626
     33 HOG3        3.0593   -6.6152   -6.0353 H         1 GTP         0.4102
     34 H5'         2.8432    0.3119   -2.6398 H         1 GTP         0.0289
     35 H5''        1.2128   -0.0927   -2.0428 H         1 GTP         0.0289
     36 H4'         3.8044   -0.1397   -0.4040 H         1 GTP         0.2056
     37 H3'         1.6764   -1.7639    0.2728 H         1 GTP         0.1140
     38 HO3'        2.2232   -1.2979    2.3953 H         1 GTP         0.4287
     39 H2'        -0.0011    0.0027    0.0003 H         1 GTP         0.0809
     40 HO2'       -0.6141    0.5574    2.1082 H         1 GTP         0.4385
     41 H1'         1.7826    1.9024    1.6451 H         1 GTP         0.0794
     42 H8          0.6787    2.3803   -1.9373 H         1 GTP         0.3821
     43 HN21       -2.1462    5.0320    4.5446 H         1 GTP         0.4411
     44 HN22       -0.9365    3.7712    4.6440 H         1 GTP         0.4411
     45 H45         0.0318    2.8419    2.8816 H         1 GTP         0.4819
     46 H46        -1.0718    4.2049   -2.0526 H         1 GTP         0.5182
@<TRIPOS>BOND
     1    1    2 2
     2    1    3 1
     3    1    4 1
     4    1    5 1
     5    4   33 1
     6    5    6 1
     7    6    7 2
     8    6    8 1
     9    6    9 1
    10    9   10 1
    11   10   11 2
    12   10   12 1
    13   10   13 1
    14   13   14 1
    15   14   15 1
    16   14   34 1
    17   14   35 1
    18   15   16 1
    19   15   17 1
    20   15   36 1
    21   16   21 1
    22   17   18 1
    23   17   19 1
    24   17   37 1
    25   18   38 1
    26   19   20 1
    27   19   21 1
    28   19   39 1
    29   20   40 1
    30   21   22 1
    31   21   41 1
    32   22   23 ar
    33   22   32 ar
    34   23   24 ar
    35   23   42 1
    36   24   25 ar
    37   24   46 1
    38   25   26 ar
    39   25   32 ar
    40   26   27 2
    41   26   28 ar
    42   28   29 ar
    43   29   30 1
    44   29   31 ar
    45   30   43 1
    46   30   44 1
    47   31   32 ar
    48   31   45 1
@<TRIPOS>SUBSTRUCTURE
     1 GTP         1 GROUP 0 A     ****
@<TRIPOS>MOLECULE
[[[5-(2-amino-6-oxo-7,8-dihydro-3~{H}-purin-8-ylium-9-yl)-3,4-dihydroxy-tetrahydrofuran-2-yl]methoxy-oxido-phosphoryl]oxy-oxido-phosphoryl] hydrogen phosphate
   46    48     1     0     0
SMALL
USER_CHARGES

@<TRIPOS>ATOM
      1 PG          3.9976    0.0202   -5.5613 P.3       1 GTP         1.5447
      2 O1G         3.4472    0.8625   -6.6905 O.co2     1 GTP        -0.8705
      3 O2G         4.9596    0.6064   -4.5520 O.co2     1 GTP        -0.8705
      4 O3G         4.6696   -1.3250   -6.1975 O.3       1 GTP        -0.7914
      5 O3B         2.7556   -0.6776   -4.7649 O.3       1 GTP        -0.8116
      6 PB          1.5232   -1.5830   -5.3367 P.3       1 GTP         1.6738
      7 O1B         0.6561   -0.7172   -6.2233 O.co2     1 GTP        -0.8763
      8 O2B         2.0672   -2.9109   -5.8147 O.co2     1 GTP        -0.8763
      9 O3A         0.7434   -1.8799   -3.9337 O.3       1 GTP        -0.8005
     10 PA          1.2681   -2.6345   -2.5827 P.3       1 GTP         1.5754
     11 O1A         0.1879   -2.5477   -1.5263 O.co2     1 GTP        -0.8771
     12 O2A         1.8736   -3.9646   -2.9750 O.co2     1 GTP        -0.8771
     13 O5'         2.5245   -1.6648   -2.1878 O.3       1 GTP        -0.5809
     14 C5'         2.2816   -0.2918   -1.9206 C.3       1 GTP         0.1986
     15 C4'         2.7248    0.0226   -0.4980 C.3       1 GTP         0.0418
     16 O4'         2.4697    1.4219   -0.2462 O.3       1 GTP        -0.3505
     17 C3'         1.9404   -0.7419    0.5596 C.3       1 GTP         0.0909
     18 O3'         2.7418   -0.8086    1.7389 O.3       1 GTP        -0.6187
     19 C2'         0.7477    0.1630    0.7858 C.3       1 GTP         0.0706
     20 O2'         0.1373   -0.0577    2.0407 O.3       1 GTP        -0.6294
     21 C1'         1.3733    1.5427    0.6747 C.3       1 GTP         0.3895
     22 N9          0.4520    2.5240    0.1767 N.pl3     1 GTP        -0.4733
     23 C8          0.2012    2.8401   -1.0899 C.ar      1 GTP         0.2958
     24 N7         -0.7168    3.7990   -1.1981 N.pl3     1 GTP        -0.4933
     25 C5         -1.0645    4.1043    0.0896 C.ar      1 GTP        -0.1494
     26 C6         -2.0336    5.0870    0.5973 C.ar      1 GTP         0.7954
     27 O6         -2.6730    5.7839   -0.1834 O.2       1 GTP        -0.5729
     28 N1         -2.1539    5.1517    1.9868 N.2       1 GTP        -0.7443
     29 C2         -1.4288    4.3650    2.7566 C.ar      1 GTP         0.8831
     30 N2         -1.5126    4.3922    4.1250 N.pl3     1 GTP        -0.9204
     31 N3         -0.5167    3.4388    2.2748 N.pl3     1 GTP        -0.7173
     32 C4         -0.3638    3.3392    0.9318 C.ar      1 GTP         0.2626
     33 HOG3        5.0739   -1.9782   -5.5875 H         1 GTP         0.4102
     34 H5'         2.8432    0.3119   -2.6398 H         1 GTP         0.0289
     35 H5''        1.2128   -0.0927   -2.0428 H         1 GTP         0.0289
     36 H4'         3.8044   -0.1397   -0.4040 H         1 GTP         0.2056
     37 H3'         1.6764   -1.7639    0.2728 H         1 GTP         0.1140
     38 HO3'        3.5554   -1.2733    1.4914 H         1 GTP         0.4287
     39 H2'        -0.0011    0.0027    0.0003 H         1 GTP         0.0809
     40 HO2'       -0.6141    0.5574    2.1082 H         1 GTP         0.4385
     41 H1'         1.7826    1.9024    1.6451 H         1 GTP         0.0794
     42 H8          0.6787    2.3803   -1.9373 H         1 GTP         0.3821
     43 HN21       -2.1462    5.0320    4.5446 H         1 GTP         0.4411
     44 HN22       -0.9365    3.7712    4.6440 H         1 GTP         0.4411
     45 H45         0.0318    2.8419    2.8816 H         1 GTP         0.4819
     46 H46        -1.0718    4.2049   -2.0526 H         1 GTP         0.5182
@<TRIPOS>BOND
     1    1    2 2
     2    1    3 1
     3    1    4 1
     4    1    5 1
     5    4   33 1
     6    5    6 1
     7    6    7 2
     8    6    8 1
     9    6    9 1
    10    9   10 1
    11   10   11 2
    12   10   12 1
    13   10   13 1
    14   13   14 1
    15   14   15 1
    16   14   34 1
    17   14   35 1
    18   15   16 1
    19   15   17 1
    20   15   36 1
    21   16   21 1
    22   17   18 1
    23   17   19 1
    24   17   37 1
    25   18   38 1
    26   19   20 1
    27   19   21 1
    28   19   39 1
    29   20   40 1
    30   21   22 1
    31   21   41 1
    32   22   23 ar
    33   22   32 ar
    34   23   24 ar
    35   23   42 1
    36   24   25 ar
    37   24   46 1
    38   25   26 ar
    39   25   32 ar
    40   26   27 2
    41   26   28 ar
    42   28   29 ar
    43   29   30 1
    44   29   31 ar
    45   30   43 1
    46   30   44 1
    47   31   32 ar
    48   31   45 1
@<TRIPOS>SUBSTRUCTURE
     1 GTP         1 GROUP 0 A     ****
@<TRIPOS>MOLECULE
[[[5-(2-amino-6-oxo-7,8-dihydro-3~{H}-purin-8-ylium-9-yl)-3,4-dihydroxy-tetrahydrofuran-2-yl]methoxy-oxido-phosphoryl]oxy-oxido-phosphoryl] hydrogen phosphate
   46    48     1     0     0
SMALL
USER_CHARGES

@<TRIPOS>ATOM
      1 PG          6.9686   -1.7483   -5.6832 P.3       1 GTP         1.5447
      2 O1G         5.6355   -1.9504   -6.3683 O.co2     1 GTP        -0.8705
      3 O2G         8.0225   -0.8452   -6.2844 O.co2     1 GTP        -0.8705
      4 O3G         7.6367   -3.2122   -5.4065 O.3       1 GTP        -0.7914
      5 O3B         6.7079   -1.2997   -4.1357 O.3       1 GTP        -0.8116
      6 PB          5.8003   -2.0104   -2.9795 P.3       1 GTP         1.6738
      7 O1B         6.2378   -3.4511   -2.8368 O.co2     1 GTP        -0.8763
      8 O2B         5.7127   -1.0874   -1.7844 O.co2     1 GTP        -0.8763
      9 O3A         4.3450   -1.9529   -3.7168 O.3       1 GTP        -0.8005
     10 PA          3.4844   -0.6652   -4.2374 P.3       1 GTP         1.5754
     11 O1A         4.3446    0.1446   -5.1832 O.co2     1 GTP        -0.8771
     12 O2A         2.1052   -1.1367   -4.6438 O.co2     1 GTP        -0.8771
     13 O5'         3.2903    0.1346   -2.8241 O.3       1 GTP        -0.5809
     14 C5'         2.2816   -0.2918   -1.9206 C.3       1 GTP         0.1986
     15 C4'         2.7248    0.0226   -0.4980 C.3       1 GTP         0.0418
     16 O4'         2.4697    1.4219   -0.2462 O.3       1 GTP        -0.3505
     17 C3'         1.9404   -0.7419    0.5596 C.3       1 GTP         0.0909
     18 O3'         2.7418   -0.8086    1.7389 O.3       1 GTP        -0.6187
     19 C2'         0.7477    0.1630    0.7858 C.3       1 GTP         0.0706
     20 O2'         0.1373   -0.0577    2.0407 O.3       1 GTP        -0.6294
     21 C1'         1.3733    1.5427    0.6747 C.3       1 GTP         0.3895
     22 N9          0.4520    2.5240    0.1767 N.pl3     1 GTP        -0.4733
     23 C8          0.2012    2.8401   -1.0899 C.ar      1 GTP         0.2958
     24 N7         -0.7168    3.7990   -1.1981 N.pl3     1 GTP        -0.4933
     25 C5         -1.0645    4.1043    0.0896 C.ar      1 GTP        -0.1494
     26 C6         -2.0336    5.0870    0.5973 C.ar      1 GTP         0.7954
     27 O6         -2.6730    5.7839   -0.1834 O.2       1 GTP        -0.5729
     28 N1         -2.1539    5.1517    1.9868 N.2       1 GTP        -0.7443
     29 C2         -1.4288    4.3650    2.7566 C.ar      1 GTP         0.8831
     30 N2         -1.5126    4.3922    4.1250 N.pl3     1 GTP        -0.9204
     31 N3         -0.5167    3.4388    2.2748 N.pl3     1 GTP        -0.7173
     32 C4         -0.3638    3.3392    0.9318 C.ar      1 GTP         0.2626
     33 HOG3        8.5115   -3.2501   -4.9642 H         1 GTP         0.4102
     34 H5'         1.3514    0.2330   -2.1577 H         1 GTP         0.0289
     35 H5''        2.1280   -1.3678   -2.0460 H         1 GTP         0.0289
     36 H4'         3.8044   -0.1397   -0.4040 H         1 GTP         0.2056
     37 H3'         1.6764   -1.7639    0.2728 H         1 GTP         0.1140
     38 HO3'        2.2232   -1.2979    2.3953 H         1 GTP         0.4287
     39 H2'        -0.0011    0.0027    0.0003 H         1 GTP         0.0809
     40 HO2'       -0.6141    0.5574    2.1082 H         1 GTP         0.4385
     41 H1'         1.7826    1.9024    1.6451 H         1 GTP         0.0794
     42 H8          0.6787    2.3803   -1.9373 H         1 GTP         0.3821
     43 HN21       -2.1462    5.0320    4.5446 H         1 GTP         0.4411
     44 HN22       -0.9365    3.7712    4.6440 H         1 GTP         0.4411
     45 H45         0.0318    2.8419    2.8816 H         1 GTP         0.4819
     46 H46        -1.0718    4.2049   -2.0526 H         1 GTP         0.5182
@<TRIPOS>BOND
     1    1    2 2
     2    1    3 1
     3    1    4 1
     4    1    5 1
     5    4   33 1
     6    5    6 1
     7    6    7 2
     8    6    8 1
     9    6    9 1
    10    9   10 1
    11   10   11 2
    12   10   12 1
    13   10   13 1
    14   13   14 1
    15   14   15 1
    16   14   34 1
    17   14   35 1
    18   15   16 1
    19   15   17 1
    20   15   36 1
    21   16   21 1
    22   17   18 1
    23   17   19 1
    24   17   37 1
    25   18   38 1
    26   19   20 1
    27   19   21 1
    28   19   39 1
    29   20   40 1
    30   21   22 1
    31   21   41 1
    32   22   23 ar
    33   22   32 ar
    34   23   24 ar
    35   23   42 1
    36   24   25 ar
    37   24   46 1
    38   25   26 ar
    39   25   32 ar
    40   26   27 2
    41   26   28 ar
    42   28   29 ar
    43   29   30 1
    44   29   31 ar
    45   30   43 1
    46   30   44 1
    47   31   32 ar
    48   31   45 1
@<TRIPOS>SUBSTRUCTURE
     1 GTP         1 GROUP 0 A     ****
@<TRIPOS>MOLECULE
[[[5-(2-amino-6-oxo-7,8-dihydro-3~{H}-purin-8-ylium-9-yl)-3,4-dihydroxy-tetrahydrofuran-2-yl]methoxy-oxido-phosphoryl]oxy-oxido-phosphoryl] hydrogen phosphate
   46    48     1     0     0
SMALL
USER_CHARGES

@<TRIPOS>ATOM
      1 PG          1.9336   -4.0548   -6.3992 P.3       1 GTP         1.5447
      2 O1G         2.4018   -5.3768   -6.9653 O.co2     1 GTP        -0.8705
      3 O2G         1.3632   -3.9663   -5.0011 O.co2     1 GTP        -0.8705
      4 O3G         0.8613   -3.3959   -7.4393 O.3       1 GTP        -0.7914
      5 O3B         3.1318   -2.9573   -6.5521 O.3       1 GTP        -0.8116
      6 PB          3.1246   -1.3523   -6.2524 P.3       1 GTP         1.6738
      7 O1B         4.5304   -0.8211   -6.4225 O.co2     1 GTP        -0.8763
      8 O2B         1.9486   -0.7227   -6.9653 O.co2     1 GTP        -0.8763
      9 O3A         2.7418   -1.3839   -4.6658 O.3       1 GTP        -0.8005
     10 PA          3.5300   -2.0730   -3.4114 P.3       1 GTP         1.5754
     11 O1A         3.5355   -3.5739   -3.6057 O.co2     1 GTP        -0.8771
     12 O2A         4.8145   -1.3109   -3.1689 O.co2     1 GTP        -0.8771
     13 O5'         2.5245   -1.6648   -2.1878 O.3       1 GTP        -0.5809
     14 C5'         2.2816   -0.2918   -1.9206 C.3       1 GTP         0.1986
     15 C4'         2.7248    0.0226   -0.4980 C.3       1 GTP         0.0418
     16 O4'         2.4697    1.4219   -0.2462 O.3       1 GTP        -0.3505
     17 C3'         1.9404   -0.7419    0.5596 C.3       1 GTP         0.0909
     18 O3'         2.7418   -0.8086    1.7389 O.3       1 GTP        -0.6187
     19 C2'         0.7477    0.1630    0.7858 C.3       1 GTP         0.0706
     20 O2'         0.1373   -0.0577    2.0407 O.3       1 GTP        -0.6294
     21 C1'         1.3733    1.5427    0.6747 C.3       1 GTP         0.3895
     22 N9          0.4520    2.5240    0.1767 N.pl3     1 GTP        -0.4733
     23 C8          0.2012    2.8401   -1.0899 C.ar      1 GTP         0.2958
     24 N7         -0.7168    3.7990   -1.1981 N.pl3     1 GTP        -0.4933
     25 C5         -1.0645    4.1043    0.0896 C.ar      1 GTP        -0.1494
     26 C6         -2.0336    5.0870    0.5973 C.ar      1 GTP         0.7954
     27 O6         -2.6730    5.7839   -0.1834 O.2       1 GTP        -0.5729
     28 N1         -2.1539    5.1517    1.9868 N.2       1 GTP        -0.7443
     29 C2         -1.4288    4.3650    2.7566 C.ar      1 GTP         0.8831
     30 N2         -1.5126    4.3922    4.1250 N.pl3     1 GTP        -0.9204
     31 N3         -0.5167    3.4388    2.2748 N.pl3     1 GTP        -0.7173
     32 C4         -0.3638    3.3392    0.9318 C.ar      1 GTP         0.2626
     33 HOG3        0.4627   -2.5288   -7.2120 H         1 GTP         0.4102
     34 H5'         2.8432    0.3119   -2.6398 H         1 GTP         0.0289
     35 H5''        1.2128   -0.0927   -2.0428 H         1 GTP         0.0289
     36 H4'         3.8044   -0.1397   -0.4040 H         1 GTP         0.2056
     37 H3'         1.6764   -1.7639    0.2728 H         1 GTP         0.1140
     38 HO3'        2.2232   -1.2979    2.3953 H         1 GTP         0.4287
     39 H2'        -0.0011    0.0027    0.0003 H         1 GTP         0.0809
     40 HO2'       -0.6141    0.5574    2.1082 H         1 GTP         0.4385
     41 H1'         1.7826    1.9024    1.6451 H         1 GTP         0.0794
     42 H8          0.6787    2.3803   -1.9373 H         1 GTP         0.3821
     43 HN21       -2.1462    5.0320    4.5446 H         1 GTP         0.4411
     44 HN22       -0.9365    3.7712    4.6440 H         1 GTP         0.4411
     45 H45         0.0318    2.8419    2.8816 H         1 GTP         0.4819
     46 H46        -1.0718    4.2049   -2.0526 H         1 GTP         0.5182
@<TRIPOS>BOND
     1    1    2 2
     2    1    3 1
     3    1    4 1
     4    1    5 1
     5    4   33 1
     6    5    6 1
     7    6    7 2
     8    6    8 1
     9    6    9 1
    10    9   10 1
    11   10   11 2
    12   10   12 1
    13   10   13 1
    14   13   14 1
    15   14   15 1
    16   14   34 1
    17   14   35 1
    18   15   16 1
    19   15   17 1
    20   15   36 1
    21   16   21 1
    22   17   18 1
    23   17   19 1
    24   17   37 1
    25   18   38 1
    26   19   20 1
    27   19   21 1
    28   19   39 1
    29   20   40 1
    30   21   22 1
    31   21   41 1
    32   22   23 ar
    33   22   32 ar
    34   23   24 ar
    35   23   42 1
    36   24   25 ar
    37   24   46 1
    38   25   26 ar
    39   25   32 ar
    40   26   27 2
    41   26   28 ar
    42   28   29 ar
    43   29   30 1
    44   29   31 ar
    45   30   43 1
    46   30   44 1
    47   31   32 ar
    48   31   45 1
@<TRIPOS>SUBSTRUCTURE
     1 GTP         1 GROUP 0 A     ****
@<TRIPOS>MOLECULE
[[[5-(2-amino-6-oxo-7,8-dihydro-3~{H}-purin-8-ylium-9-yl)-3,4-dihydroxy-tetrahydrofuran-2-yl]methoxy-oxido-phosphoryl]oxy-oxido-phosphoryl] hydrogen phosphate
   46    48     1     0     0
SMALL
USER_CHARGES

@<TRIPOS>ATOM
      1 PG          5.3802   -0.9572   -7.0098 P.3       1 GTP         1.5447
      2 O1G         3.9993   -0.4460   -7.3552 O.co2     1 GTP        -0.8705
      3 O2G         6.6191   -0.2381   -7.4952 O.co2     1 GTP        -0.8705
      4 O3G         5.4806   -2.5238   -7.4588 O.3       1 GTP        -0.7914
      5 O3B         5.4836   -1.1568   -5.3932 O.3       1 GTP        -0.8116
      6 PB          4.5143   -1.9910   -4.3782 P.3       1 GTP         1.6738
      7 O1B         4.3959   -3.4128   -4.8800 O.co2     1 GTP        -0.8763
      8 O2B         4.9141   -1.6855   -2.9519 O.co2     1 GTP        -0.8763
      9 O3A         3.1119   -1.1996   -4.6459 O.3       1 GTP        -0.8005
     10 PA          2.7407    0.3769   -4.4297 P.3       1 GTP         1.5754
     11 O1A         3.7274    1.2201   -5.2081 O.co2     1 GTP        -0.8771
     12 O2A         1.2486    0.5523   -4.6100 O.co2     1 GTP        -0.8771
     13 O5'         3.0213    0.5153   -2.8245 O.3       1 GTP        -0.5809
     14 C5'         2.2816   -0.2918   -1.9206 C.3       1 GTP         0.1986
     15 C4'         2.7248    0.0226   -0.4980 C.3       1 GTP         0.0418
     16 O4'         2.4697    1.4219   -0.2462 O.3       1 GTP        -0.3505
     17 C3'         1.9404   -0.7419    0.5596 C.3       1 GTP         0.0909
     18 O3'         2.7418   -0.8086    1.7389 O.3       1 GTP        -0.6187
     19 C2'         0.7477    0.1630    0.7858 C.3       1 GTP         0.0706
     20 O2'         0.1373   -0.0577    2.0407 O.3       1 GTP        -0.6294
     21 C1'         1.3733    1.5427    0.6747 C.3       1 GTP         0.3895
     22 N9          0.4520    2.5240    0.1767 N.pl3     1 GTP        -0.4733
     23 C8          0.5427    3.2356   -0.9425 C.ar      1 GTP         0.2958
     24 N7         -0.4919    4.0590   -1.1018 N.pl3     1 GTP        -0.4933
     25 C5         -1.2850    3.8484   -0.0069 C.ar      1 GTP        -0.1494
     26 C6         -2.5644    4.4707    0.3650 C.ar      1 GTP         0.7954
     27 O6         -3.0718    5.3200   -0.3599 O.2       1 GTP        -0.5729
     28 N1         -3.1239    4.0269    1.5647 N.2       1 GTP        -0.7443
     29 C2         -2.5133    3.1079    2.2858 C.ar      1 GTP         0.8831
     30 N2         -3.0239    2.6409    3.4697 N.pl3     1 GTP        -0.9204
     31 N3         -1.3076    2.5223    1.9320 N.pl3     1 GTP        -0.7173
     32 C4         -0.7246    2.9211    0.7753 C.ar      1 GTP         0.2626
     33 HOG3        6.3223   -3.0019   -7.2999 H         1 GTP         0.4102
     34 H5'         1.2163   -0.0770   -2.0471 H         1 GTP         0.0289
     35 H5''        2.4655   -1.3443   -2.1563 H         1 GTP         0.0289
     36 H4'         3.8044   -0.1397   -0.4040 H         1 GTP         0.2056
     37 H3'         1.6764   -1.7639    0.2728 H         1 GTP         0.1140
     38 HO3'        2.2232   -1.2979    2.3953 H         1 GTP         0.4287
     39 H2'        -0.0011    0.0027    0.0003 H         1 GTP         0.0809
     40 HO2'       -0.1563   -0.9855    2.0596 H         1 GTP         0.4385
     41 H1'         1.7826    1.9024    1.6451 H         1 GTP         0.0794
     42 H8          1.3539    3.1622   -1.6455 H         1 GTP         0.3821
     43 HN21       -3.8871    3.0143    3.7893 H         1 GTP         0.4411
     44 HN22       -2.5108    1.9472    3.9621 H         1 GTP         0.4411
     45 H45        -0.8530    1.8168    2.4986 H         1 GTP         0.4819
     46 H46        -0.6466    4.6966   -1.8702 H         1 GTP         0.5182
@<TRIPOS>BOND
     1    1    2 2
     2    1    3 1
     3    1    4 1
     4    1    5 1
     5    4   33 1
     6    5    6 1
     7    6    7 2
     8    6    8 1
     9    6    9 1
    10    9   10 1
    11   10   11 2
    12   10   12 1
    13   10   13 1
    14   13   14 1
    15   14   15 1
    16   14   34 1
    17   14   35 1
    18   15   16 1
    19   15   17 1
    20   15   36 1
    21   16   21 1
    22   17   18 1
    23   17   19 1
    24   17   37 1
    25   18   38 1
    26   19   20 1
    27   19   21 1
    28   19   39 1
    29   20   40 1
    30   21   22 1
    31   21   41 1
    32   22   23 ar
    33   22   32 ar
    34   23   24 ar
    35   23   42 1
    36   24   25 ar
    37   24   46 1
    38   25   26 ar
    39   25   32 ar
    40   26   27 2
    41   26   28 ar
    42   28   29 ar
    43   29   30 1
    44   29   31 ar
    45   30   43 1
    46   30   44 1
    47   31   32 ar
    48   31   45 1
@<TRIPOS>SUBSTRUCTURE
     1 GTP         1 GROUP 0 A     ****
@<TRIPOS>MOLECULE
[[[5-(2-amino-6-oxo-7,8-dihydro-3~{H}-purin-8-ylium-9-yl)-3,4-dihydroxy-tetrahydrofuran-2-yl]methoxy-oxido-phosphoryl]oxy-oxido-phosphoryl] hydrogen phosphate
   46    48     1     0     0
SMALL
USER_CHARGES

@<TRIPOS>ATOM
      1 PG         -2.5294   -1.9037   -4.8626 P.3       1 GTP         1.5447
      2 O1G        -3.8288   -1.1349   -4.9522 O.co2     1 GTP        -0.8705
      3 O2G        -1.4178   -1.6704   -5.8614 O.co2     1 GTP        -0.8705
      4 O3G        -2.8722   -3.4998   -4.8317 O.3       1 GTP        -0.7914
      5 O3B        -1.9254   -1.7519   -3.3540 O.3       1 GTP        -0.8116
      6 PB         -0.6416   -2.4864   -2.6626 P.3       1 GTP         1.6738
      7 O1B        -0.4248   -1.8921   -1.2888 O.co2     1 GTP        -0.8763
      8 O2B        -0.7573   -3.9802   -2.8698 O.co2     1 GTP        -0.8763
      9 O3A         0.5318   -1.9682   -3.6723 O.3       1 GTP        -0.8005
     10 PA          2.1372   -2.2718   -3.6563 P.3       1 GTP         1.5754
     11 O1A         2.3492   -3.7701   -3.6757 O.co2     1 GTP        -0.8771
     12 O2A         2.8102   -1.3732   -4.6709 O.co2     1 GTP        -0.8771
     13 O5'         2.5245   -1.6648   -2.1878 O.3       1 GTP        -0.5809
     14 C5'         2.2816   -0.2918   -1.9206 C.3       1 GTP         0.1986
     15 C4'         2.7248    0.0226   -0.4980 C.3       1 GTP         0.0418
     16 O4'         2.4697    1.4219   -0.2462 O.3       1 GTP        -0.3505
     17 C3'         1.9404   -0.7419    0.5596 C.3       1 GTP         0.0909
     18 O3'         2.7418   -0.8086    1.7389 O.3       1 GTP        -0.6187
     19 C2'         0.7477    0.1630    0.7858 C.3       1 GTP         0.0706
     20 O2'         0.1373   -0.0577    2.0407 O.3       1 GTP        -0.6294
     21 C1'         1.3733    1.5427    0.6747 C.3       1 GTP         0.3895
     22 N9          0.4520    2.5240    0.1767 N.pl3     1 GTP        -0.4733
     23 C8         -0.2136    2.5096   -0.9739 C.ar      1 GTP         0.2958
     24 N7         -0.9896    3.5820   -1.1212 N.pl3     1 GTP        -0.4933
     25 C5         -0.7962    4.3186    0.0156 C.ar      1 GTP        -0.1494
     26 C6         -1.3875    5.6031    0.4192 C.ar      1 GTP         0.7954
     27 O6         -2.1869    6.1731   -0.3158 O.2       1 GTP        -0.5729
     28 N1         -0.9745    6.0930    1.6597 N.2       1 GTP        -0.7443
     29 C2         -0.1105    5.4166    2.3900 C.ar      1 GTP         0.8831
     30 N2          0.3241    5.8571    3.6138 N.pl3     1 GTP        -0.9204
     31 N3          0.4444    4.2053    2.0072 N.pl3     1 GTP        -0.7173
     32 C4          0.0746    3.6889    0.8098 C.ar      1 GTP         0.2626
     33 HOG3       -2.1278   -4.1361   -4.7744 H         1 GTP         0.4102
     34 H5'         2.8432    0.3119   -2.6398 H         1 GTP         0.0289
     35 H5''        1.2128   -0.0927   -2.0428 H         1 GTP         0.0289
     36 H4'         3.8044   -0.1397   -0.4040 H         1 GTP         0.2056
     37 H3'         1.6764   -1.7639    0.2728 H         1 GTP         0.1140
     38 HO3'        2.2232   -1.2979    2.3953 H         1 GTP         0.4287
     39 H2'        -0.0011    0.0027    0.0003 H         1 GTP         0.0809
     40 HO2'       -0.1563   -0.9855    2.0596 H         1 GTP         0.4385
     41 H1'         1.7826    1.9024    1.6451 H         1 GTP         0.0794
     42 H8         -0.1415    1.7265   -1.7082 H         1 GTP         0.3821
     43 HN21       -0.0303    6.7197    3.9559 H         1 GTP         0.4411
     44 HN22        0.9765    5.2967    4.1108 H         1 GTP         0.4411
     45 H45         1.1068    3.6990    2.5819 H         1 GTP         0.4819
     46 H46        -1.5877    3.7943   -1.9074 H         1 GTP         0.5182
@<TRIPOS>BOND
     1    1    2 2
     2    1    3 1
     3    1    4 1
     4    1    5 1
     5    4   33 1
     6    5    6 1
     7    6    7 2
     8    6    8 1
     9    6    9 1
    10    9   10 1
    11   10   11 2
    12   10   12 1
    13   10   13 1
    14   13   14 1
    15   14   15 1
    16   14   34 1
    17   14   35 1
    18   15   16 1
    19   15   17 1
    20   15   36 1
    21   16   21 1
    22   17   18 1
    23   17   19 1
    24   17   37 1
    25   18   38 1
    26   19   20 1
    27   19   21 1
    28   19   39 1
    29   20   40 1
    30   21   22 1
    31   21   41 1
    32   22   23 ar
    33   22   32 ar
    34   23   24 ar
    35   23   42 1
    36   24   25 ar
    37   24   46 1
    38   25   26 ar
    39   25   32 ar
    40   26   27 2
    41   26   28 ar
    42   28   29 ar
    43   29   30 1
    44   29   31 ar
    45   30   43 1
    46   30   44 1
    47   31   32 ar
    48   31   45 1
@<TRIPOS>SUBSTRUCTURE
     1 GTP         1 GROUP 0 A     ****
@<TRIPOS>MOLECULE
[[[5-(2-amino-6-oxo-7,8-dihydro-3~{H}-purin-8-ylium-9-yl)-3,4-dihydroxy-tetrahydrofuran-2-yl]methoxy-oxido-phosphoryl]oxy-oxido-phosphoryl] hydrogen phosphate
   46    48     1     0     0
SMALL
USER_CHARGES

@<TRIPOS>ATOM
      1 PG         -0.8243    1.8882   -4.7714 P.3       1 GTP         1.5447
      2 O1G        -0.3680    0.7465   -3.8906 O.co2     1 GTP        -0.8705
      3 O2G        -1.6247    3.0379   -4.2011 O.co2     1 GTP        -0.8705
      4 O3G        -1.6404    1.2685   -6.0425 O.3       1 GTP        -0.7914
      5 O3B         0.4642    2.4876   -5.5741 O.3       1 GTP        -0.8116
      6 PB          1.7726    3.2827   -5.0069 P.3       1 GTP         1.6738
      7 O1B         2.7412    3.4986   -6.1483 O.co2     1 GTP        -0.8763
      8 O2B         1.3131    4.4270   -4.1312 O.co2     1 GTP        -0.8763
      9 O3A         2.3599    2.1376   -4.0025 O.3       1 GTP        -0.8005
     10 PA          2.8621    0.6170   -4.3270 P.3       1 GTP         1.5754
     11 O1A         1.6809   -0.1909   -4.8193 O.co2     1 GTP        -0.8771
     12 O2A         4.1462    0.6908   -5.1241 O.co2     1 GTP        -0.8771
     13 O5'         3.2903    0.1346   -2.8241 O.3       1 GTP        -0.5809
     14 C5'         2.2816   -0.2918   -1.9206 C.3       1 GTP         0.1986
     15 C4'         2.7248    0.0226   -0.4980 C.3       1 GTP         0.0418
     16 O4'         2.4697    1.4219   -0.2462 O.3       1 GTP        -0.3505
     17 C3'         1.9404   -0.7419    0.5596 C.3       1 GTP         0.0909
     18 O3'         2.7418   -0.8086    1.7389 O.3       1 GTP        -0.6187
     19 C2'         0.7477    0.1630    0.7858 C.3       1 GTP         0.0706
     20 O2'         0.1373   -0.0577    2.0407 O.3       1 GTP        -0.6294
     21 C1'         1.3733    1.5427    0.6747 C.3       1 GTP         0.3895
     22 N9          0.4520    2.5240    0.1767 N.pl3     1 GTP        -0.4733
     23 C8          0.2012    2.8401   -1.0899 C.ar      1 GTP         0.2958
     24 N7         -0.7168    3.7990   -1.1981 N.pl3     1 GTP        -0.4933
     25 C5         -1.0645    4.1043    0.0896 C.ar      1 GTP        -0.1494
     26 C6         -2.0336    5.0870    0.5973 C.ar      1 GTP         0.7954
     27 O6         -2.6730    5.7839   -0.1834 O.2       1 GTP        -0.5729
     28 N1         -2.1539    5.1517    1.9868 N.2       1 GTP        -0.7443
     29 C2         -1.4288    4.3650    2.7566 C.ar      1 GTP         0.8831
     30 N2         -1.5126    4.3922    4.1250 N.pl3     1 GTP        -0.9204
     31 N3         -0.5167    3.4388    2.2748 N.pl3     1 GTP        -0.7173
     32 C4         -0.3638    3.3392    0.9318 C.ar      1 GTP         0.2626
     33 HOG3       -2.0038    1.8878   -6.7109 H         1 GTP         0.4102
     34 H5'         1.3514    0.2330   -2.1577 H         1 GTP         0.0289
     35 H5''        2.1280   -1.3678   -2.0460 H         1 GTP         0.0289
     36 H4'         3.8044   -0.1397   -0.4040 H         1 GTP         0.2056
     37 H3'         1.6764   -1.7639    0.2728 H         1 GTP         0.1140
     38 HO3'        3.5554   -1.2733    1.4914 H         1 GTP         0.4287
     39 H2'        -0.0011    0.0027    0.0003 H         1 GTP         0.0809
     40 HO2'        0.8082    0.1199    2.7232 H         1 GTP         0.4385
     41 H1'         1.7826    1.9024    1.6451 H         1 GTP         0.0794
     42 H8          0.6787    2.3803   -1.9373 H         1 GTP         0.3821
     43 HN21       -2.1462    5.0320    4.5446 H         1 GTP         0.4411
     44 HN22       -0.9365    3.7712    4.6440 H         1 GTP         0.4411
     45 H45         0.0318    2.8419    2.8816 H         1 GTP         0.4819
     46 H46        -1.0718    4.2049   -2.0526 H         1 GTP         0.5182
@<TRIPOS>BOND
     1    1    2 2
     2    1    3 1
     3    1    4 1
     4    1    5 1
     5    4   33 1
     6    5    6 1
     7    6    7 2
     8    6    8 1
     9    6    9 1
    10    9   10 1
    11   10   11 2
    12   10   12 1
    13   10   13 1
    14   13   14 1
    15   14   15 1
    16   14   34 1
    17   14   35 1
    18   15   16 1
    19   15   17 1
    20   15   36 1
    21   16   21 1
    22   17   18 1
    23   17   19 1
    24   17   37 1
    25   18   38 1
    26   19   20 1
    27   19   21 1
    28   19   39 1
    29   20   40 1
    30   21   22 1
    31   21   41 1
    32   22   23 ar
    33   22   32 ar
    34   23   24 ar
    35   23   42 1
    36   24   25 ar
    37   24   46 1
    38   25   26 ar
    39   25   32 ar
    40   26   27 2
    41   26   28 ar
    42   28   29 ar
    43   29   30 1
    44   29   31 ar
    45   30   43 1
    46   30   44 1
    47   31   32 ar
    48   31   45 1
@<TRIPOS>SUBSTRUCTURE
     1 GTP         1 GROUP 0 A     ****
@<TRIPOS>MOLECULE
[[[5-(2-amino-6-oxo-7,8-dihydro-3~{H}-purin-8-ylium-9-yl)-3,4-dihydroxy-tetrahydrofuran-2-yl]methoxy-oxido-phosphoryl]oxy-oxido-phosphoryl] hydrogen phosphate
   46    48     1     0     0
SMALL
USER_CHARGES

@<TRIPOS>ATOM
      1 PG          7.3903   -3.6425   -2.9666 P.3       1 GTP         1.5447
      2 O1G         7.5552   -3.4721   -1.4729 O.co2     1 GTP        -0.8705
      3 O2G         7.3782   -5.0181   -3.5954 O.co2     1 GTP        -0.8705
      4 O3G         8.5220   -2.7381   -3.7198 O.3       1 GTP        -0.7914
      5 O3B         6.0615   -2.8279   -3.4507 O.3       1 GTP        -0.8116
      6 PB          5.6438   -1.2686   -3.2066 P.3       1 GTP         1.6738
      7 O1B         5.4117   -1.0547   -1.7275 O.co2     1 GTP        -0.8763
      8 O2B         6.5755   -0.3786   -3.9987 O.co2     1 GTP        -0.8763
      9 O3A         4.2121   -1.2551   -3.9908 O.3       1 GTP        -0.8005
     10 PA          2.8603   -2.1317   -3.7189 P.3       1 GTP         1.5754
     11 O1A         1.7750   -1.6570   -4.6607 O.co2     1 GTP        -0.8771
     12 O2A         3.2398   -3.5942   -3.6363 O.co2     1 GTP        -0.8771
     13 O5'         2.5245   -1.6648   -2.1878 O.3       1 GTP        -0.5809
     14 C5'         2.2816   -0.2918   -1.9206 C.3       1 GTP         0.1986
     15 C4'         2.7248    0.0226   -0.4980 C.3       1 GTP         0.0418
     16 O4'         2.4697    1.4219   -0.2462 O.3       1 GTP        -0.3505
     17 C3'         1.9404   -0.7419    0.5596 C.3       1 GTP         0.0909
     18 O3'         2.7418   -0.8086    1.7389 O.3       1 GTP        -0.6187
     19 C2'         0.7477    0.1630    0.7858 C.3       1 GTP         0.0706
     20 O2'         0.1373   -0.0577    2.0407 O.3       1 GTP        -0.6294
     21 C1'         1.3733    1.5427    0.6747 C.3       1 GTP         0.3895
     22 N9          0.4520    2.5240    0.1767 N.pl3     1 GTP        -0.4733
     23 C8         -0.2136    2.5096   -0.9739 C.ar      1 GTP         0.2958
     24 N7         -0.9896    3.5820   -1.1212 N.pl3     1 GTP        -0.4933
     25 C5         -0.7962    4.3186    0.0156 C.ar      1 GTP        -0.1494
     26 C6         -1.3875    5.6031    0.4192 C.ar      1 GTP         0.7954
     27 O6         -2.1869    6.1731   -0.3158 O.2       1 GTP        -0.5729
     28 N1         -0.9745    6.0930    1.6597 N.2       1 GTP        -0.7443
     29 C2         -0.1105    5.4166    2.3900 C.ar      1 GTP         0.8831
     30 N2          0.3241    5.8571    3.6138 N.pl3     1 GTP        -0.9204
     31 N3          0.4444    4.2053    2.0072 N.pl3     1 GTP        -0.7173
     32 C4          0.0746    3.6889    0.8098 C.ar      1 GTP         0.2626
     33 HOG3        8.5461   -2.7421   -4.7005 H         1 GTP         0.4102
     34 H5'         2.8432    0.3119   -2.6398 H         1 GTP         0.0289
     35 H5''        1.2128   -0.0927   -2.0428 H         1 GTP         0.0289
     36 H4'         3.8044   -0.1397   -0.4040 H         1 GTP         0.2056
     37 H3'         1.6764   -1.7639    0.2728 H         1 GTP         0.1140
     38 HO3'        2.2232   -1.2979    2.3953 H         1 GTP         0.4287
     39 H2'        -0.0011    0.0027    0.0003 H         1 GTP         0.0809
     40 HO2'       -0.6141    0.5574    2.1082 H         1 GTP         0.4385
     41 H1'         1.7826    1.9024    1.6451 H         1 GTP         0.0794
     42 H8         -0.1415    1.7265   -1.7082 H         1 GTP         0.3821
     43 HN21       -0.0303    6.7197    3.9559 H         1 GTP         0.4411
     44 HN22        0.9765    5.2967    4.1108 H         1 GTP         0.4411
     45 H45         1.1068    3.6990    2.5819 H         1 GTP         0.4819
     46 H46        -1.5877    3.7943   -1.9074 H         1 GTP         0.5182
@<TRIPOS>BOND
     1    1    2 2
     2    1    3 1
     3    1    4 1
     4    1    5 1
     5    4   33 1
     6    5    6 1
     7    6    7 2
     8    6    8 1
     9    6    9 1
    10    9   10 1
    11   10   11 2
    12   10   12 1
    13   10   13 1
    14   13   14 1
    15   14   15 1
    16   14   34 1
    17   14   35 1
    18   15   16 1
    19   15   17 1
    20   15   36 1
    21   16   21 1
    22   17   18 1
    23   17   19 1
    24   17   37 1
    25   18   38 1
    26   19   20 1
    27   19   21 1
    28   19   39 1
    29   20   40 1
    30   21   22 1
    31   21   41 1
    32   22   23 ar
    33   22   32 ar
    34   23   24 ar
    35   23   42 1
    36   24   25 ar
    37   24   46 1
    38   25   26 ar
    39   25   32 ar
    40   26   27 2
    41   26   28 ar
    42   28   29 ar
    43   29   30 1
    44   29   31 ar
    45   30   43 1
    46   30   44 1
    47   31   32 ar
    48   31   45 1
@<TRIPOS>SUBSTRUCTURE
     1 GTP         1 GROUP 0 A     ****
@<TRIPOS>MOLECULE
[[[5-(2-amino-6-oxo-7,8-dihydro-3~{H}-purin-8-ylium-9-yl)-3,4-dihydroxy-tetrahydrofuran-2-yl]methoxy-oxido-phosphoryl]oxy-oxido-phosphoryl] hydrogen phosphate
   46    48     1     0     0
SMALL
USER_CHARGES

@<TRIPOS>ATOM
      1 PG          4.0325   -0.3789   -7.5122 P.3       1 GTP         1.5447
      2 O1G         4.5114    0.4416   -8.6890 O.co2     1 GTP        -0.8705
      3 O2G         4.7017   -0.2637   -6.1606 O.co2     1 GTP        -0.8705
      4 O3G         4.0150   -1.9519   -7.9495 O.3       1 GTP        -0.7914
      5 O3B         2.4262   -0.1563   -7.3279 O.3       1 GTP        -0.8116
      6 PB          1.3751   -0.9023   -6.3258 P.3       1 GTP         1.6738
      7 O1B         0.0262   -0.2294   -6.4498 O.co2     1 GTP        -0.8763
      8 O2B         1.5297   -2.3994   -6.4745 O.co2     1 GTP        -0.8763
      9 O3A         2.0523   -0.5065   -4.8941 O.3       1 GTP        -0.8005
     10 PA          2.3336    0.9636   -4.2390 P.3       1 GTP         1.5754
     11 O1A         3.3392    1.6960   -5.1008 O.co2     1 GTP        -0.8771
     12 O2A         1.0067    1.5946   -3.8772 O.co2     1 GTP        -0.8771
     13 O5'         3.0213    0.5153   -2.8245 O.3       1 GTP        -0.5809
     14 C5'         2.2816   -0.2918   -1.9206 C.3       1 GTP         0.1986
     15 C4'         2.7248    0.0226   -0.4980 C.3       1 GTP         0.0418
     16 O4'         2.4697    1.4219   -0.2462 O.3       1 GTP        -0.3505
     17 C3'         1.9404   -0.7419    0.5596 C.3       1 GTP         0.0909
     18 O3'         2.7418   -0.8086    1.7389 O.3       1 GTP        -0.6187
     19 C2'         0.7477    0.1630    0.7858 C.3       1 GTP         0.0706
     20 O2'         0.1373   -0.0577    2.0407 O.3       1 GTP        -0.6294
     21 C1'         1.3733    1.5427    0.6747 C.3       1 GTP         0.3895
     22 N9          0.4520    2.5240    0.1767 N.pl3     1 GTP        -0.4733
     23 C8          0.5427    3.2356   -0.9425 C.ar      1 GTP         0.2958
     24 N7         -0.4919    4.0590   -1.1018 N.pl3     1 GTP        -0.4933
     25 C5         -1.2850    3.8484   -0.0069 C.ar      1 GTP        -0.1494
     26 C6         -2.5644    4.4707    0.3650 C.ar      1 GTP         0.7954
     27 O6         -3.0718    5.3200   -0.3599 O.2       1 GTP        -0.5729
     28 N1         -3.1239    4.0269    1.5647 N.2       1 GTP        -0.7443
     29 C2         -2.5133    3.1079    2.2858 C.ar      1 GTP         0.8831
     30 N2         -3.0239    2.6409    3.4697 N.pl3     1 GTP        -0.9204
     31 N3         -1.3076    2.5223    1.9320 N.pl3     1 GTP        -0.7173
     32 C4         -0.7246    2.9211    0.7753 C.ar      1 GTP         0.2626
     33 HOG3        3.7250   -2.6169   -7.2892 H         1 GTP         0.4102
     34 H5'         1.2163   -0.0770   -2.0471 H         1 GTP         0.0289
     35 H5''        2.4655   -1.3443   -2.1563 H         1 GTP         0.0289
     36 H4'         3.8044   -0.1397   -0.4040 H         1 GTP         0.2056
     37 H3'         1.6764   -1.7639    0.2728 H         1 GTP         0.1140
     38 HO3'        2.2232   -1.2979    2.3953 H         1 GTP         0.4287
     39 H2'        -0.0011    0.0027    0.0003 H         1 GTP         0.0809
     40 HO2'       -0.1563   -0.9855    2.0596 H         1 GTP         0.4385
     41 H1'         1.7826    1.9024    1.6451 H         1 GTP         0.0794
     42 H8          1.3539    3.1622   -1.6455 H         1 GTP         0.3821
     43 HN21       -3.8871    3.0143    3.7893 H         1 GTP         0.4411
     44 HN22       -2.5108    1.9472    3.9621 H         1 GTP         0.4411
     45 H45        -0.8530    1.8168    2.4986 H         1 GTP         0.4819
     46 H46        -0.6466    4.6966   -1.8702 H         1 GTP         0.5182
@<TRIPOS>BOND
     1    1    2 2
     2    1    3 1
     3    1    4 1
     4    1    5 1
     5    4   33 1
     6    5    6 1
     7    6    7 2
     8    6    8 1
     9    6    9 1
    10    9   10 1
    11   10   11 2
    12   10   12 1
    13   10   13 1
    14   13   14 1
    15   14   15 1
    16   14   34 1
    17   14   35 1
    18   15   16 1
    19   15   17 1
    20   15   36 1
    21   16   21 1
    22   17   18 1
    23   17   19 1
    24   17   37 1
    25   18   38 1
    26   19   20 1
    27   19   21 1
    28   19   39 1
    29   20   40 1
    30   21   22 1
    31   21   41 1
    32   22   23 ar
    33   22   32 ar
    34   23   24 ar
    35   23   42 1
    36   24   25 ar
    37   24   46 1
    38   25   26 ar
    39   25   32 ar
    40   26   27 2
    41   26   28 ar
    42   28   29 ar
    43   29   30 1
    44   29   31 ar
    45   30   43 1
    46   30   44 1
    47   31   32 ar
    48   31   45 1
@<TRIPOS>SUBSTRUCTURE
     1 GTP         1 GROUP 0 A     ****
@<TRIPOS>MOLECULE
[[[5-(2-amino-6-oxo-7,8-dihydro-3~{H}-purin-8-ylium-9-yl)-3,4-dihydroxy-tetrahydrofuran-2-yl]methoxy-oxido-phosphoryl]oxy-oxido-phosphoryl] hydrogen phosphate
   46    48     1     0     0
SMALL
USER_CHARGES

@<TRIPOS>ATOM
      1 PG          6.9037   -4.1448   -2.5767 P.3       1 GTP         1.5447
      2 O1G         6.4980   -5.5899   -2.7624 O.co2     1 GTP        -0.8705
      3 O2G         8.2488   -3.6472   -3.0571 O.co2     1 GTP        -0.8705
      4 O3G         6.7418   -3.7593   -0.9984 O.3       1 GTP        -0.7914
      5 O3B         5.7351   -3.1824   -3.1867 O.3       1 GTP        -0.8116
      6 PB          5.5777   -1.5587   -3.1219 P.3       1 GTP         1.6738
      7 O1B         5.3626   -1.1495   -1.6819 O.co2     1 GTP        -0.8763
      8 O2B         6.6552   -0.9242   -3.9728 O.co2     1 GTP        -0.8763
      9 O3A         4.1796   -1.3979   -3.9491 O.3       1 GTP        -0.8005
     10 PA          3.3343   -0.0514   -4.3264 P.3       1 GTP         1.5754
     11 O1A         4.2455    0.9036   -5.0666 O.co2     1 GTP        -0.8771
     12 O2A         1.9982   -0.4643   -4.9043 O.co2     1 GTP        -0.8771
     13 O5'         3.0213    0.5153   -2.8245 O.3       1 GTP        -0.5809
     14 C5'         2.2816   -0.2918   -1.9206 C.3       1 GTP         0.1986
     15 C4'         2.7248    0.0226   -0.4980 C.3       1 GTP         0.0418
     16 O4'         2.4697    1.4219   -0.2462 O.3       1 GTP        -0.3505
     17 C3'         1.9404   -0.7419    0.5596 C.3       1 GTP         0.0909
     18 O3'         2.7418   -0.8086    1.7389 O.3       1 GTP        -0.6187
     19 C2'         0.7477    0.1630    0.7858 C.3       1 GTP         0.0706
     20 O2'         0.1373   -0.0577    2.0407 O.3       1 GTP        -0.6294
     21 C1'         1.3733    1.5427    0.6747 C.3       1 GTP         0.3895
     22 N9          0.4520    2.5240    0.1767 N.pl3     1 GTP        -0.4733
     23 C8         -0.2136    2.5096   -0.9739 C.ar      1 GTP         0.2958
     24 N7         -0.9896    3.5820   -1.1212 N.pl3     1 GTP        -0.4933
     25 C5         -0.7962    4.3186    0.0156 C.ar      1 GTP        -0.1494
     26 C6         -1.3875    5.6031    0.4192 C.ar      1 GTP         0.7954
     27 O6         -2.1869    6.1731   -0.3158 O.2       1 GTP        -0.5729
     28 N1         -0.9745    6.0930    1.6597 N.2       1 GTP        -0.7443
     29 C2         -0.1105    5.4166    2.3900 C.ar      1 GTP         0.8831
     30 N2          0.3241    5.8571    3.6138 N.pl3     1 GTP        -0.9204
     31 N3          0.4444    4.2053    2.0072 N.pl3     1 GTP        -0.7173
     32 C4          0.0746    3.6889    0.8098 C.ar      1 GTP         0.2626
     33 HOG3        6.9683   -2.8479   -0.7148 H         1 GTP         0.4102
     34 H5'         1.2163   -0.0770   -2.0471 H         1 GTP         0.0289
     35 H5''        2.4655   -1.3443   -2.1563 H         1 GTP         0.0289
     36 H4'         3.8044   -0.1397   -0.4040 H         1 GTP         0.2056
     37 H3'         1.6764   -1.7639    0.2728 H         1 GTP         0.1140
     38 HO3'        3.5554   -1.2733    1.4914 H         1 GTP         0.4287
     39 H2'        -0.0011    0.0027    0.0003 H         1 GTP         0.0809
     40 HO2'       -0.1563   -0.9855    2.0596 H         1 GTP         0.4385
     41 H1'         1.7826    1.9024    1.6451 H         1 GTP         0.0794
     42 H8         -0.1415    1.7265   -1.7082 H         1 GTP         0.3821
     43 HN21       -0.0303    6.7197    3.9559 H         1 GTP         0.4411
     44 HN22        0.9765    5.2967    4.1108 H         1 GTP         0.4411
     45 H45         1.1068    3.6990    2.5819 H         1 GTP         0.4819
     46 H46        -1.5877    3.7943   -1.9074 H         1 GTP         0.5182
@<TRIPOS>BOND
     1    1    2 2
     2    1    3 1
     3    1    4 1
     4    1    5 1
     5    4   33 1
     6    5    6 1
     7    6    7 2
     8    6    8 1
     9    6    9 1
    10    9   10 1
    11   10   11 2
    12   10   12 1
    13   10   13 1
    14   13   14 1
    15   14   15 1
    16   14   34 1
    17   14   35 1
    18   15   16 1
    19   15   17 1
    20   15   36 1
    21   16   21 1
    22   17   18 1
    23   17   19 1
    24   17   37 1
    25   18   38 1
    26   19   20 1
    27   19   21 1
    28   19   39 1
    29   20   40 1
    30   21   22 1
    31   21   41 1
    32   22   23 ar
    33   22   32 ar
    34   23   24 ar
    35   23   42 1
    36   24   25 ar
    37   24   46 1
    38   25   26 ar
    39   25   32 ar
    40   26   27 2
    41   26   28 ar
    42   28   29 ar
    43   29   30 1
    44   29   31 ar
    45   30   43 1
    46   30   44 1
    47   31   32 ar
    48   31   45 1
@<TRIPOS>SUBSTRUCTURE
     1 GTP         1 GROUP 0 A     ****
@<TRIPOS>MOLECULE
[[[5-(2-amino-6-oxo-7,8-dihydro-3~{H}-purin-8-ylium-9-yl)-3,4-dihydroxy-tetrahydrofuran-2-yl]methoxy-oxido-phosphoryl]oxy-oxido-phosphoryl] hydrogen phosphate
   46    48     1     0     0
SMALL
USER_CHARGES

@<TRIPOS>ATOM
      1 PG          3.1644    0.0982   -7.7006 P.3       1 GTP         1.5447
      2 O1G         3.9568    0.7594   -8.8061 O.co2     1 GTP        -0.8705
      3 O2G         3.8619   -0.5619   -6.5320 O.co2     1 GTP        -0.8705
      4 O3G         2.1409   -0.9828   -8.3713 O.3       1 GTP        -0.7914
      5 O3B         2.0632    1.1585   -7.1289 O.3       1 GTP        -0.8116
      6 PB          0.8569    0.9350   -6.0516 P.3       1 GTP         1.6738
      7 O1B         0.2124    2.2720   -5.7611 O.co2     1 GTP        -0.8763
      8 O2B         0.0370   -0.2648   -6.4710 O.co2     1 GTP        -0.8763
      9 O3A         1.7410    0.4642   -4.7626 O.3       1 GTP        -0.8005
     10 PA          2.9232    1.2546   -3.9579 P.3       1 GTP         1.5754
     11 O1A         4.0962    1.4572   -4.8924 O.co2     1 GTP        -0.8771
     12 O2A         2.3071    2.4181   -3.2121 O.co2     1 GTP        -0.8771
     13 O5'         3.2903    0.1346   -2.8241 O.3       1 GTP        -0.5809
     14 C5'         2.2816   -0.2918   -1.9206 C.3       1 GTP         0.1986
     15 C4'         2.7248    0.0226   -0.4980 C.3       1 GTP         0.0418
     16 O4'         2.4697    1.4219   -0.2462 O.3       1 GTP        -0.3505
     17 C3'         1.9404   -0.7419    0.5596 C.3       1 GTP         0.0909
     18 O3'         2.7418   -0.8086    1.7389 O.3       1 GTP        -0.6187
     19 C2'         0.7477    0.1630    0.7858 C.3       1 GTP         0.0706
     20 O2'         0.1373   -0.0577    2.0407 O.3       1 GTP        -0.6294
     21 C1'         1.3733    1.5427    0.6747 C.3       1 GTP         0.3895
     22 N9          0.4520    2.5240    0.1767 N.pl3     1 GTP        -0.4733
     23 C8         -0.2136    2.5096   -0.9739 C.ar      1 GTP         0.2958
     24 N7         -0.9896    3.5820   -1.1212 N.pl3     1 GTP        -0.4933
     25 C5         -0.7962    4.3186    0.0156 C.ar      1 GTP        -0.1494
     26 C6         -1.3875    5.6031    0.4192 C.ar      1 GTP         0.7954
     27 O6         -2.1869    6.1731   -0.3158 O.2       1 GTP        -0.5729
     28 N1         -0.9745    6.0930    1.6597 N.2       1 GTP        -0.7443
     29 C2         -0.1105    5.4166    2.3900 C.ar      1 GTP         0.8831
     30 N2          0.3241    5.8571    3.6138 N.pl3     1 GTP        -0.9204
     31 N3          0.4444    4.2053    2.0072 N.pl3     1 GTP        -0.7173
     32 C4          0.0746    3.6889    0.8098 C.ar      1 GTP         0.2626
     33 HOG3        1.5526   -1.4984   -7.7793 H         1 GTP         0.4102
     34 H5'         1.3514    0.2330   -2.1577 H         1 GTP         0.0289
     35 H5''        2.1280   -1.3678   -2.0460 H         1 GTP         0.0289
     36 H4'         3.8044   -0.1397   -0.4040 H         1 GTP         0.2056
     37 H3'         1.6764   -1.7639    0.2728 H         1 GTP         0.1140
     38 HO3'        2.2232   -1.2979    2.3953 H         1 GTP         0.4287
     39 H2'        -0.0011    0.0027    0.0003 H         1 GTP         0.0809
     40 HO2'       -0.6141    0.5574    2.1082 H         1 GTP         0.4385
     41 H1'         1.7826    1.9024    1.6451 H         1 GTP         0.0794
     42 H8         -0.1415    1.7265   -1.7082 H         1 GTP         0.3821
     43 HN21       -0.0303    6.7197    3.9559 H         1 GTP         0.4411
     44 HN22        0.9765    5.2967    4.1108 H         1 GTP         0.4411
     45 H45         1.1068    3.6990    2.5819 H         1 GTP         0.4819
     46 H46        -1.5877    3.7943   -1.9074 H         1 GTP         0.5182
@<TRIPOS>BOND
     1    1    2 2
     2    1    3 1
     3    1    4 1
     4    1    5 1
     5    4   33 1
     6    5    6 1
     7    6    7 2
     8    6    8 1
     9    6    9 1
    10    9   10 1
    11   10   11 2
    12   10   12 1
    13   10   13 1
    14   13   14 1
    15   14   15 1
    16   14   34 1
    17   14   35 1
    18   15   16 1
    19   15   17 1
    20   15   36 1
    21   16   21 1
    22   17   18 1
    23   17   19 1
    24   17   37 1
    25   18   38 1
    26   19   20 1
    27   19   21 1
    28   19   39 1
    29   20   40 1
    30   21   22 1
    31   21   41 1
    32   22   23 ar
    33   22   32 ar
    34   23   24 ar
    35   23   42 1
    36   24   25 ar
    37   24   46 1
    38   25   26 ar
    39   25   32 ar
    40   26   27 2
    41   26   28 ar
    42   28   29 ar
    43   29   30 1
    44   29   31 ar
    45   30   43 1
    46   30   44 1
    47   31   32 ar
    48   31   45 1
@<TRIPOS>SUBSTRUCTURE
     1 GTP         1 GROUP 0 A     ****
@<TRIPOS>MOLECULE
[[[5-(2-amino-6-oxo-7,8-dihydro-3~{H}-purin-8-ylium-9-yl)-3,4-dihydroxy-tetrahydrofuran-2-yl]methoxy-oxido-phosphoryl]oxy-oxido-phosphoryl] hydrogen phosphate
   46    48     1     0     0
SMALL
USER_CHARGES

@<TRIPOS>ATOM
      1 PG          2.3870   -3.9823   -6.6442 P.3       1 GTP         1.5447
      2 O1G         3.8084   -3.5773   -6.3233 O.co2     1 GTP        -0.8705
      3 O2G         1.9989   -5.4405   -6.7480 O.co2     1 GTP        -0.8705
      4 O3G         1.9291   -3.2251   -8.0164 O.3       1 GTP        -0.7914
      5 O3B         1.3746   -3.2384   -5.6024 O.3       1 GTP        -0.8116
      6 PB          1.2344   -1.6547   -5.2309 P.3       1 GTP         1.6738
      7 O1B         1.0261   -0.8735   -6.5091 O.co2     1 GTP        -0.8763
      8 O2B         0.3004   -1.5057   -4.0507 O.co2     1 GTP        -0.8763
      9 O3A         2.7418   -1.3839   -4.6658 O.3       1 GTP        -0.8005
     10 PA          3.5300   -2.0730   -3.4114 P.3       1 GTP         1.5754
     11 O1A         3.5355   -3.5739   -3.6057 O.co2     1 GTP        -0.8771
     12 O2A         4.8145   -1.3109   -3.1689 O.co2     1 GTP        -0.8771
     13 O5'         2.5245   -1.6648   -2.1878 O.3       1 GTP        -0.5809
     14 C5'         2.2816   -0.2918   -1.9206 C.3       1 GTP         0.1986
     15 C4'         2.7248    0.0226   -0.4980 C.3       1 GTP         0.0418
     16 O4'         2.4697    1.4219   -0.2462 O.3       1 GTP        -0.3505
     17 C3'         1.9404   -0.7419    0.5596 C.3       1 GTP         0.0909
     18 O3'         2.7418   -0.8086    1.7389 O.3       1 GTP        -0.6187
     19 C2'         0.7477    0.1630    0.7858 C.3       1 GTP         0.0706
     20 O2'         0.1373   -0.0577    2.0407 O.3       1 GTP        -0.6294
     21 C1'         1.3733    1.5427    0.6747 C.3       1 GTP         0.3895
     22 N9          0.4520    2.5240    0.1767 N.pl3     1 GTP        -0.4733
     23 C8          0.2012    2.8401   -1.0899 C.ar      1 GTP         0.2958
     24 N7         -0.7168    3.7990   -1.1981 N.pl3     1 GTP        -0.4933
     25 C5         -1.0645    4.1043    0.0896 C.ar      1 GTP        -0.1494
     26 C6         -2.0336    5.0870    0.5973 C.ar      1 GTP         0.7954
     27 O6         -2.6730    5.7839   -0.1834 O.2       1 GTP        -0.5729
     28 N1         -2.1539    5.1517    1.9868 N.2       1 GTP        -0.7443
     29 C2         -1.4288    4.3650    2.7566 C.ar      1 GTP         0.8831
     30 N2         -1.5126    4.3922    4.1250 N.pl3     1 GTP        -0.9204
     31 N3         -0.5167    3.4388    2.2748 N.pl3     1 GTP        -0.7173
     32 C4         -0.3638    3.3392    0.9318 C.ar      1 GTP         0.2626
     33 HOG3        1.0241   -3.3862   -8.3589 H         1 GTP         0.4102
     34 H5'         2.8432    0.3119   -2.6398 H         1 GTP         0.0289
     35 H5''        1.2128   -0.0927   -2.0428 H         1 GTP         0.0289
     36 H4'         3.8044   -0.1397   -0.4040 H         1 GTP         0.2056
     37 H3'         1.6764   -1.7639    0.2728 H         1 GTP         0.1140
     38 HO3'        3.5554   -1.2733    1.4914 H         1 GTP         0.4287
     39 H2'        -0.0011    0.0027    0.0003 H         1 GTP         0.0809
     40 HO2'       -0.1563   -0.9855    2.0596 H         1 GTP         0.4385
     41 H1'         1.7826    1.9024    1.6451 H         1 GTP         0.0794
     42 H8          0.6787    2.3803   -1.9373 H         1 GTP         0.3821
     43 HN21       -2.1462    5.0320    4.5446 H         1 GTP         0.4411
     44 HN22       -0.9365    3.7712    4.6440 H         1 GTP         0.4411
     45 H45         0.0318    2.8419    2.8816 H         1 GTP         0.4819
     46 H46        -1.0718    4.2049   -2.0526 H         1 GTP         0.5182
@<TRIPOS>BOND
     1    1    2 2
     2    1    3 1
     3    1    4 1
     4    1    5 1
     5    4   33 1
     6    5    6 1
     7    6    7 2
     8    6    8 1
     9    6    9 1
    10    9   10 1
    11   10   11 2
    12   10   12 1
    13   10   13 1
    14   13   14 1
    15   14   15 1
    16   14   34 1
    17   14   35 1
    18   15   16 1
    19   15   17 1
    20   15   36 1
    21   16   21 1
    22   17   18 1
    23   17   19 1
    24   17   37 1
    25   18   38 1
    26   19   20 1
    27   19   21 1
    28   19   39 1
    29   20   40 1
    30   21   22 1
    31   21   41 1
    32   22   23 ar
    33   22   32 ar
    34   23   24 ar
    35   23   42 1
    36   24   25 ar
    37   24   46 1
    38   25   26 ar
    39   25   32 ar
    40   26   27 2
    41   26   28 ar
    42   28   29 ar
    43   29   30 1
    44   29   31 ar
    45   30   43 1
    46   30   44 1
    47   31   32 ar
    48   31   45 1
@<TRIPOS>SUBSTRUCTURE
     1 GTP         1 GROUP 0 A     ****
@<TRIPOS>MOLECULE
[[[5-(2-amino-6-oxo-7,8-dihydro-3~{H}-purin-8-ylium-9-yl)-3,4-dihydroxy-tetrahydrofuran-2-yl]methoxy-oxido-phosphoryl]oxy-oxido-phosphoryl] hydrogen phosphate
   46    48     1     0     0
SMALL
USER_CHARGES

@<TRIPOS>ATOM
      1 PG          5.8485   -2.1741   -1.7457 P.3       1 GTP         1.5447
      2 O1G         5.2955   -2.1705   -0.3380 O.co2     1 GTP        -0.8705
      3 O2G         6.5361   -3.3986   -2.3076 O.co2     1 GTP        -0.8705
      4 O3G         6.8494   -0.8950   -1.9130 O.3       1 GTP        -0.7914
      5 O3B         4.6749   -1.7057   -2.7787 O.3       1 GTP        -0.8116
      6 PB          4.5143   -1.9910   -4.3782 P.3       1 GTP         1.6738
      7 O1B         5.6372   -1.2909   -5.1107 O.co2     1 GTP        -0.8763
      8 O2B         4.2254   -3.4603   -4.5906 O.co2     1 GTP        -0.8763
      9 O3A         3.1119   -1.1996   -4.6459 O.3       1 GTP        -0.8005
     10 PA          2.7407    0.3769   -4.4297 P.3       1 GTP         1.5754
     11 O1A         3.7274    1.2201   -5.2081 O.co2     1 GTP        -0.8771
     12 O2A         1.2486    0.5523   -4.6100 O.co2     1 GTP        -0.8771
     13 O5'         3.0213    0.5153   -2.8245 O.3       1 GTP        -0.5809
     14 C5'         2.2816   -0.2918   -1.9206 C.3       1 GTP         0.1986
     15 C4'         2.7248    0.0226   -0.4980 C.3       1 GTP         0.0418
     16 O4'         2.4697    1.4219   -0.2462 O.3       1 GTP        -0.3505
     17 C3'         1.9404   -0.7419    0.5596 C.3       1 GTP         0.0909
     18 O3'         2.7418   -0.8086    1.7389 O.3       1 GTP        -0.6187
     19 C2'         0.7477    0.1630    0.7858 C.3       1 GTP         0.0706
     20 O2'         0.1373   -0.0577    2.0407 O.3       1 GTP        -0.6294
     21 C1'         1.3733    1.5427    0.6747 C.3       1 GTP         0.3895
     22 N9          0.4520    2.5240    0.1767 N.pl3     1 GTP        -0.4733
     23 C8          0.5427    3.2356   -0.9425 C.ar      1 GTP         0.2958
     24 N7         -0.4919    4.0590   -1.1018 N.pl3     1 GTP        -0.4933
     25 C5         -1.2850    3.8484   -0.0069 C.ar      1 GTP        -0.1494
     26 C6         -2.5644    4.4707    0.3650 C.ar      1 GTP         0.7954
     27 O6         -3.0718    5.3200   -0.3599 O.2       1 GTP        -0.5729
     28 N1         -3.1239    4.0269    1.5647 N.2       1 GTP        -0.7443
     29 C2         -2.5133    3.1079    2.2858 C.ar      1 GTP         0.8831
     30 N2         -3.0239    2.6409    3.4697 N.pl3     1 GTP        -0.9204
     31 N3         -1.3076    2.5223    1.9320 N.pl3     1 GTP        -0.7173
     32 C4         -0.7246    2.9211    0.7753 C.ar      1 GTP         0.2626
     33 HOG3        7.2911   -0.7578   -2.7781 H         1 GTP         0.4102
     34 H5'         1.2163   -0.0770   -2.0471 H         1 GTP         0.0289
     35 H5''        2.4655   -1.3443   -2.1563 H         1 GTP         0.0289
     36 H4'         3.8044   -0.1397   -0.4040 H         1 GTP         0.2056
     37 H3'         1.6764   -1.7639    0.2728 H         1 GTP         0.1140
     38 HO3'        2.2232   -1.2979    2.3953 H         1 GTP         0.4287
     39 H2'        -0.0011    0.0027    0.0003 H         1 GTP         0.0809
     40 HO2'       -0.1563   -0.9855    2.0596 H         1 GTP         0.4385
     41 H1'         1.7826    1.9024    1.6451 H         1 GTP         0.0794
     42 H8          1.3539    3.1622   -1.6455 H         1 GTP         0.3821
     43 HN21       -3.8871    3.0143    3.7893 H         1 GTP         0.4411
     44 HN22       -2.5108    1.9472    3.9621 H         1 GTP         0.4411
     45 H45        -0.8530    1.8168    2.4986 H         1 GTP         0.4819
     46 H46        -0.6466    4.6966   -1.8702 H         1 GTP         0.5182
@<TRIPOS>BOND
     1    1    2 2
     2    1    3 1
     3    1    4 1
     4    1    5 1
     5    4   33 1
     6    5    6 1
     7    6    7 2
     8    6    8 1
     9    6    9 1
    10    9   10 1
    11   10   11 2
    12   10   12 1
    13   10   13 1
    14   13   14 1
    15   14   15 1
    16   14   34 1
    17   14   35 1
    18   15   16 1
    19   15   17 1
    20   15   36 1
    21   16   21 1
    22   17   18 1
    23   17   19 1
    24   17   37 1
    25   18   38 1
    26   19   20 1
    27   19   21 1
    28   19   39 1
    29   20   40 1
    30   21   22 1
    31   21   41 1
    32   22   23 ar
    33   22   32 ar
    34   23   24 ar
    35   23   42 1
    36   24   25 ar
    37   24   46 1
    38   25   26 ar
    39   25   32 ar
    40   26   27 2
    41   26   28 ar
    42   28   29 ar
    43   29   30 1
    44   29   31 ar
    45   30   43 1
    46   30   44 1
    47   31   32 ar
    48   31   45 1
@<TRIPOS>SUBSTRUCTURE
     1 GTP         1 GROUP 0 A     ****
@<TRIPOS>MOLECULE
[[[5-(2-amino-6-oxo-7,8-dihydro-3~{H}-purin-8-ylium-9-yl)-3,4-dihydroxy-tetrahydrofuran-2-yl]methoxy-oxido-phosphoryl]oxy-oxido-phosphoryl] hydrogen phosphate
   46    48     1     0     0
SMALL
USER_CHARGES

@<TRIPOS>ATOM
      1 PG          5.3802   -0.9572   -7.0098 P.3       1 GTP         1.5447
      2 O1G         3.9993   -0.4460   -7.3552 O.co2     1 GTP        -0.8705
      3 O2G         6.6191   -0.2381   -7.4952 O.co2     1 GTP        -0.8705
      4 O3G         5.4806   -2.5238   -7.4588 O.3       1 GTP        -0.7914
      5 O3B         5.4836   -1.1568   -5.3932 O.3       1 GTP        -0.8116
      6 PB          4.5143   -1.9910   -4.3782 P.3       1 GTP         1.6738
      7 O1B         4.3959   -3.4128   -4.8800 O.co2     1 GTP        -0.8763
      8 O2B         4.9141   -1.6855   -2.9519 O.co2     1 GTP        -0.8763
      9 O3A         3.1119   -1.1996   -4.6459 O.3       1 GTP        -0.8005
     10 PA          2.7407    0.3769   -4.4297 P.3       1 GTP         1.5754
     11 O1A         3.7274    1.2201   -5.2081 O.co2     1 GTP        -0.8771
     12 O2A         1.2486    0.5523   -4.6100 O.co2     1 GTP        -0.8771
     13 O5'         3.0213    0.5153   -2.8245 O.3       1 GTP        -0.5809
     14 C5'         2.2816   -0.2918   -1.9206 C.3       1 GTP         0.1986
     15 C4'         2.7248    0.0226   -0.4980 C.3       1 GTP         0.0418
     16 O4'         2.4697    1.4219   -0.2462 O.3       1 GTP        -0.3505
     17 C3'         1.9404   -0.7419    0.5596 C.3       1 GTP         0.0909
     18 O3'         2.7418   -0.8086    1.7389 O.3       1 GTP        -0.6187
     19 C2'         0.7477    0.1630    0.7858 C.3       1 GTP         0.0706
     20 O2'         0.1373   -0.0577    2.0407 O.3       1 GTP        -0.6294
     21 C1'         1.3733    1.5427    0.6747 C.3       1 GTP         0.3895
     22 N9          0.4520    2.5240    0.1767 N.pl3     1 GTP        -0.4733
     23 C8         -0.6872    2.9292    0.7291 C.ar      1 GTP         0.2958
     24 N7         -1.2991    3.8596   -0.0015 N.pl3     1 GTP        -0.4933
     25 C5         -0.4870    4.0499   -1.0861 C.ar      1 GTP        -0.1494
     26 C6         -0.6427    4.9562   -2.2336 C.ar      1 GTP         0.7954
     27 O6         -1.6219    5.6904   -2.3123 O.2       1 GTP        -0.5729
     28 N1          0.3798    4.9069   -3.1832 N.2       1 GTP        -0.7443
     29 C2          1.4004    4.0885   -3.0226 C.ar      1 GTP         0.8831
     30 N2          2.4275    4.0052   -3.9273 N.pl3     1 GTP        -0.9204
     31 N3          1.5448    3.2359   -1.9390 N.pl3     1 GTP        -0.7173
     32 C4          0.5769    3.2470   -0.9903 C.ar      1 GTP         0.2626
     33 HOG3        6.3223   -3.0019   -7.2999 H         1 GTP         0.4102
     34 H5'         1.2163   -0.0770   -2.0471 H         1 GTP         0.0289
     35 H5''        2.4655   -1.3443   -2.1563 H         1 GTP         0.0289
     36 H4'         3.8044   -0.1397   -0.4040 H         1 GTP         0.2056
     37 H3'         1.6764   -1.7639    0.2728 H         1 GTP         0.1140
     38 HO3'        2.2232   -1.2979    2.3953 H         1 GTP         0.4287
     39 H2'        -0.0011    0.0027    0.0003 H         1 GTP         0.0809
     40 HO2'       -0.1563   -0.9855    2.0596 H         1 GTP         0.4385
     41 H1'         1.7826    1.9024    1.6451 H         1 GTP         0.0794
     42 H8         -1.0786    2.5555    1.6591 H         1 GTP         0.3821
     43 HN21        2.3939    4.5871   -4.7317 H         1 GTP         0.4411
     44 HN22        3.1656    3.3663   -3.7434 H         1 GTP         0.4411
     45 H45         2.3366    2.6138   -1.8319 H         1 GTP         0.4819
     46 H46        -2.1740    4.3186    0.2105 H         1 GTP         0.5182
@<TRIPOS>BOND
     1    1    2 2
     2    1    3 1
     3    1    4 1
     4    1    5 1
     5    4   33 1
     6    5    6 1
     7    6    7 2
     8    6    8 1
     9    6    9 1
    10    9   10 1
    11   10   11 2
    12   10   12 1
    13   10   13 1
    14   13   14 1
    15   14   15 1
    16   14   34 1
    17   14   35 1
    18   15   16 1
    19   15   17 1
    20   15   36 1
    21   16   21 1
    22   17   18 1
    23   17   19 1
    24   17   37 1
    25   18   38 1
    26   19   20 1
    27   19   21 1
    28   19   39 1
    29   20   40 1
    30   21   22 1
    31   21   41 1
    32   22   23 ar
    33   22   32 ar
    34   23   24 ar
    35   23   42 1
    36   24   25 ar
    37   24   46 1
    38   25   26 ar
    39   25   32 ar
    40   26   27 2
    41   26   28 ar
    42   28   29 ar
    43   29   30 1
    44   29   31 ar
    45   30   43 1
    46   30   44 1
    47   31   32 ar
    48   31   45 1
@<TRIPOS>SUBSTRUCTURE
     1 GTP         1 GROUP 0 A     ****
@<TRIPOS>MOLECULE
[[[5-(2-amino-6-oxo-7,8-dihydro-3~{H}-purin-8-ylium-9-yl)-3,4-dihydroxy-tetrahydrofuran-2-yl]methoxy-oxido-phosphoryl]oxy-oxido-phosphoryl] hydrogen phosphate
   46    48     1     0     0
SMALL
USER_CHARGES

@<TRIPOS>ATOM
      1 PG         -2.0990   -2.5236   -0.0756 P.3       1 GTP         1.5447
      2 O1G        -0.6679   -2.2882    0.3534 O.co2     1 GTP        -0.8705
      3 O2G        -3.2475   -1.8607    0.6519 O.co2     1 GTP        -0.8705
      4 O3G        -2.3705   -4.1331   -0.1155 O.3       1 GTP        -0.7914
      5 O3B        -2.2332   -2.2112   -1.6719 O.3       1 GTP        -0.8116
      6 PB         -1.3685   -2.7942   -2.9281 P.3       1 GTP         1.6738
      7 O1B        -1.4060   -4.3055   -2.8827 O.co2     1 GTP        -0.8763
      8 O2B        -1.7399   -2.0302   -4.1794 O.co2     1 GTP        -0.8763
      9 O3A         0.1148   -2.2721   -2.4897 O.3       1 GTP        -0.8005
     10 PA          1.5544   -2.4558   -3.2404 P.3       1 GTP         1.5754
     11 O1A         1.9037   -3.9280   -3.2692 O.co2     1 GTP        -0.8771
     12 O2A         1.5492   -1.6282   -4.5072 O.co2     1 GTP        -0.8771
     13 O5'         2.5245   -1.6648   -2.1878 O.3       1 GTP        -0.5809
     14 C5'         2.2816   -0.2918   -1.9206 C.3       1 GTP         0.1986
     15 C4'         2.7248    0.0226   -0.4980 C.3       1 GTP         0.0418
     16 O4'         2.4697    1.4219   -0.2462 O.3       1 GTP        -0.3505
     17 C3'         1.9404   -0.7419    0.5596 C.3       1 GTP         0.0909
     18 O3'         2.7418   -0.8086    1.7389 O.3       1 GTP        -0.6187
     19 C2'         0.7477    0.1630    0.7858 C.3       1 GTP         0.0706
     20 O2'         0.1373   -0.0577    2.0407 O.3       1 GTP        -0.6294
     21 C1'         1.3733    1.5427    0.6747 C.3       1 GTP         0.3895
     22 N9          0.4520    2.5240    0.1767 N.pl3     1 GTP        -0.4733
     23 C8         -0.2136    2.5096   -0.9739 C.ar      1 GTP         0.2958
     24 N7         -0.9896    3.5820   -1.1212 N.pl3     1 GTP        -0.4933
     25 C5         -0.7962    4.3186    0.0156 C.ar      1 GTP        -0.1494
     26 C6         -1.3875    5.6031    0.4192 C.ar      1 GTP         0.7954
     27 O6         -2.1869    6.1731   -0.3158 O.2       1 GTP        -0.5729
     28 N1         -0.9745    6.0930    1.6597 N.2       1 GTP        -0.7443
     29 C2         -0.1105    5.4166    2.3900 C.ar      1 GTP         0.8831
     30 N2          0.3241    5.8571    3.6138 N.pl3     1 GTP        -0.9204
     31 N3          0.4444    4.2053    2.0072 N.pl3     1 GTP        -0.7173
     32 C4          0.0746    3.6889    0.8098 C.ar      1 GTP         0.2626
     33 HOG3       -3.2610   -4.4500   -0.3779 H         1 GTP         0.4102
     34 H5'         2.8432    0.3119   -2.6398 H         1 GTP         0.0289
     35 H5''        1.2128   -0.0927   -2.0428 H         1 GTP         0.0289
     36 H4'         3.8044   -0.1397   -0.4040 H         1 GTP         0.2056
     37 H3'         1.6764   -1.7639    0.2728 H         1 GTP         0.1140
     38 HO3'        2.2232   -1.2979    2.3953 H         1 GTP         0.4287
     39 H2'        -0.0011    0.0027    0.0003 H         1 GTP         0.0809
     40 HO2'       -0.1563   -0.9855    2.0596 H         1 GTP         0.4385
     41 H1'         1.7826    1.9024    1.6451 H         1 GTP         0.0794
     42 H8         -0.1415    1.7265   -1.7082 H         1 GTP         0.3821
     43 HN21       -0.0303    6.7197    3.9559 H         1 GTP         0.4411
     44 HN22        0.9765    5.2967    4.1108 H         1 GTP         0.4411
     45 H45         1.1068    3.6990    2.5819 H         1 GTP         0.4819
     46 H46        -1.5877    3.7943   -1.9074 H         1 GTP         0.5182
@<TRIPOS>BOND
     1    1    2 2
     2    1    3 1
     3    1    4 1
     4    1    5 1
     5    4   33 1
     6    5    6 1
     7    6    7 2
     8    6    8 1
     9    6    9 1
    10    9   10 1
    11   10   11 2
    12   10   12 1
    13   10   13 1
    14   13   14 1
    15   14   15 1
    16   14   34 1
    17   14   35 1
    18   15   16 1
    19   15   17 1
    20   15   36 1
    21   16   21 1
    22   17   18 1
    23   17   19 1
    24   17   37 1
    25   18   38 1
    26   19   20 1
    27   19   21 1
    28   19   39 1
    29   20   40 1
    30   21   22 1
    31   21   41 1
    32   22   23 ar
    33   22   32 ar
    34   23   24 ar
    35   23   42 1
    36   24   25 ar
    37   24   46 1
    38   25   26 ar
    39   25   32 ar
    40   26   27 2
    41   26   28 ar
    42   28   29 ar
    43   29   30 1
    44   29   31 ar
    45   30   43 1
    46   30   44 1
    47   31   32 ar
    48   31   45 1
@<TRIPOS>SUBSTRUCTURE
     1 GTP         1 GROUP 0 A     ****
@<TRIPOS>MOLECULE
[[[5-(2-amino-6-oxo-7,8-dihydro-3~{H}-purin-8-ylium-9-yl)-3,4-dihydroxy-tetrahydrofuran-2-yl]methoxy-oxido-phosphoryl]oxy-oxido-phosphoryl] hydrogen phosphate
   46    48     1     0     0
SMALL
USER_CHARGES

@<TRIPOS>ATOM
      1 PG         -2.5294   -1.9037   -4.8626 P.3       1 GTP         1.5447
      2 O1G        -3.8288   -1.1349   -4.9522 O.co2     1 GTP        -0.8705
      3 O2G        -1.4178   -1.6704   -5.8614 O.co2     1 GTP        -0.8705
      4 O3G        -2.8722   -3.4998   -4.8317 O.3       1 GTP        -0.7914
      5 O3B        -1.9254   -1.7519   -3.3540 O.3       1 GTP        -0.8116
      6 PB         -0.6416   -2.4864   -2.6626 P.3       1 GTP         1.6738
      7 O1B        -0.4248   -1.8921   -1.2888 O.co2     1 GTP        -0.8763
      8 O2B        -0.7573   -3.9802   -2.8698 O.co2     1 GTP        -0.8763
      9 O3A         0.5318   -1.9682   -3.6723 O.3       1 GTP        -0.8005
     10 PA          2.1372   -2.2718   -3.6563 P.3       1 GTP         1.5754
     11 O1A         2.3492   -3.7701   -3.6757 O.co2     1 GTP        -0.8771
     12 O2A         2.8102   -1.3732   -4.6709 O.co2     1 GTP        -0.8771
     13 O5'         2.5245   -1.6648   -2.1878 O.3       1 GTP        -0.5809
     14 C5'         2.2816   -0.2918   -1.9206 C.3       1 GTP         0.1986
     15 C4'         2.7248    0.0226   -0.4980 C.3       1 GTP         0.0418
     16 O4'         2.4697    1.4219   -0.2462 O.3       1 GTP        -0.3505
     17 C3'         1.9404   -0.7419    0.5596 C.3       1 GTP         0.0909
     18 O3'         2.7418   -0.8086    1.7389 O.3       1 GTP        -0.6187
     19 C2'         0.7477    0.1630    0.7858 C.3       1 GTP         0.0706
     20 O2'         0.1373   -0.0577    2.0407 O.3       1 GTP        -0.6294
     21 C1'         1.3733    1.5427    0.6747 C.3       1 GTP         0.3895
     22 N9          0.4520    2.5240    0.1767 N.pl3     1 GTP        -0.4733
     23 C8          0.5427    3.2356   -0.9425 C.ar      1 GTP         0.2958
     24 N7         -0.4919    4.0590   -1.1018 N.pl3     1 GTP        -0.4933
     25 C5         -1.2850    3.8484   -0.0069 C.ar      1 GTP        -0.1494
     26 C6         -2.5644    4.4707    0.3650 C.ar      1 GTP         0.7954
     27 O6         -3.0718    5.3200   -0.3599 O.2       1 GTP        -0.5729
     28 N1         -3.1239    4.0269    1.5647 N.2       1 GTP        -0.7443
     29 C2         -2.5133    3.1079    2.2858 C.ar      1 GTP         0.8831
     30 N2         -3.0239    2.6409    3.4697 N.pl3     1 GTP        -0.9204
     31 N3         -1.3076    2.5223    1.9320 N.pl3     1 GTP        -0.7173
     32 C4         -0.7246    2.9211    0.7753 C.ar      1 GTP         0.2626
     33 HOG3       -2.1278   -4.1361   -4.7744 H         1 GTP         0.4102
     34 H5'         2.8432    0.3119   -2.6398 H         1 GTP         0.0289
     35 H5''        1.2128   -0.0927   -2.0428 H         1 GTP         0.0289
     36 H4'         3.8044   -0.1397   -0.4040 H         1 GTP         0.2056
     37 H3'         1.6764   -1.7639    0.2728 H         1 GTP         0.1140
     38 HO3'        2.2232   -1.2979    2.3953 H         1 GTP         0.4287
     39 H2'        -0.0011    0.0027    0.0003 H         1 GTP         0.0809
     40 HO2'       -0.1563   -0.9855    2.0596 H         1 GTP         0.4385
     41 H1'         1.7826    1.9024    1.6451 H         1 GTP         0.0794
     42 H8          1.3539    3.1622   -1.6455 H         1 GTP         0.3821
     43 HN21       -3.8871    3.0143    3.7893 H         1 GTP         0.4411
     44 HN22       -2.5108    1.9472    3.9621 H         1 GTP         0.4411
     45 H45        -0.8530    1.8168    2.4986 H         1 GTP         0.4819
     46 H46        -0.6466    4.6966   -1.8702 H         1 GTP         0.5182
@<TRIPOS>BOND
     1    1    2 2
     2    1    3 1
     3    1    4 1
     4    1    5 1
     5    4   33 1
     6    5    6 1
     7    6    7 2
     8    6    8 1
     9    6    9 1
    10    9   10 1
    11   10   11 2
    12   10   12 1
    13   10   13 1
    14   13   14 1
    15   14   15 1
    16   14   34 1
    17   14   35 1
    18   15   16 1
    19   15   17 1
    20   15   36 1
    21   16   21 1
    22   17   18 1
    23   17   19 1
    24   17   37 1
    25   18   38 1
    26   19   20 1
    27   19   21 1
    28   19   39 1
    29   20   40 1
    30   21   22 1
    31   21   41 1
    32   22   23 ar
    33   22   32 ar
    34   23   24 ar
    35   23   42 1
    36   24   25 ar
    37   24   46 1
    38   25   26 ar
    39   25   32 ar
    40   26   27 2
    41   26   28 ar
    42   28   29 ar
    43   29   30 1
    44   29   31 ar
    45   30   43 1
    46   30   44 1
    47   31   32 ar
    48   31   45 1
@<TRIPOS>SUBSTRUCTURE
     1 GTP         1 GROUP 0 A     ****
@<TRIPOS>MOLECULE
[[[5-(2-amino-6-oxo-7,8-dihydro-3~{H}-purin-8-ylium-9-yl)-3,4-dihydroxy-tetrahydrofuran-2-yl]methoxy-oxido-phosphoryl]oxy-oxido-phosphoryl] hydrogen phosphate
   46    48     1     0     0
SMALL
USER_CHARGES

@<TRIPOS>ATOM
      1 PG          2.9411    0.5530   -7.8193 P.3       1 GTP         1.5447
      2 O1G         2.6591    1.8916   -7.1741 O.co2     1 GTP        -0.8705
      3 O2G         4.1544    0.3551   -8.7005 O.co2     1 GTP        -0.8705
      4 O3G         1.6150    0.0885   -8.6509 O.3       1 GTP        -0.7914
      5 O3B         2.9286   -0.6044   -6.6687 O.3       1 GTP        -0.8116
      6 PB          1.7878   -0.9613   -5.5565 P.3       1 GTP         1.6738
      7 O1B         0.4719   -1.1874   -6.2671 O.co2     1 GTP        -0.8763
      8 O2B         2.3471   -1.9760   -4.5843 O.co2     1 GTP        -0.8763
      9 O3A         1.7410    0.4642   -4.7626 O.3       1 GTP        -0.8005
     10 PA          2.9232    1.2546   -3.9579 P.3       1 GTP         1.5754
     11 O1A         4.0962    1.4572   -4.8924 O.co2     1 GTP        -0.8771
     12 O2A         2.3071    2.4181   -3.2121 O.co2     1 GTP        -0.8771
     13 O5'         3.2903    0.1346   -2.8241 O.3       1 GTP        -0.5809
     14 C5'         2.2816   -0.2918   -1.9206 C.3       1 GTP         0.1986
     15 C4'         2.7248    0.0226   -0.4980 C.3       1 GTP         0.0418
     16 O4'         2.4697    1.4219   -0.2462 O.3       1 GTP        -0.3505
     17 C3'         1.9404   -0.7419    0.5596 C.3       1 GTP         0.0909
     18 O3'         2.7418   -0.8086    1.7389 O.3       1 GTP        -0.6187
     19 C2'         0.7477    0.1630    0.7858 C.3       1 GTP         0.0706
     20 O2'         0.1373   -0.0577    2.0407 O.3       1 GTP        -0.6294
     21 C1'         1.3733    1.5427    0.6747 C.3       1 GTP         0.3895
     22 N9          0.4520    2.5240    0.1767 N.pl3     1 GTP        -0.4733
     23 C8         -0.2136    2.5096   -0.9739 C.ar      1 GTP         0.2958
     24 N7         -0.9896    3.5820   -1.1212 N.pl3     1 GTP        -0.4933
     25 C5         -0.7962    4.3186    0.0156 C.ar      1 GTP        -0.1494
     26 C6         -1.3875    5.6031    0.4192 C.ar      1 GTP         0.7954
     27 O6         -2.1869    6.1731   -0.3158 O.2       1 GTP        -0.5729
     28 N1         -0.9745    6.0930    1.6597 N.2       1 GTP        -0.7443
     29 C2         -0.1105    5.4166    2.3900 C.ar      1 GTP         0.8831
     30 N2          0.3241    5.8571    3.6138 N.pl3     1 GTP        -0.9204
     31 N3          0.4444    4.2053    2.0072 N.pl3     1 GTP        -0.7173
     32 C4          0.0746    3.6889    0.8098 C.ar      1 GTP         0.2626
     33 HOG3        1.6402   -0.7674   -9.1297 H         1 GTP         0.4102
     34 H5'         1.3514    0.2330   -2.1577 H         1 GTP         0.0289
     35 H5''        2.1280   -1.3678   -2.0460 H         1 GTP         0.0289
     36 H4'         3.8044   -0.1397   -0.4040 H         1 GTP         0.2056
     37 H3'         1.6764   -1.7639    0.2728 H         1 GTP         0.1140
     38 HO3'        2.2232   -1.2979    2.3953 H         1 GTP         0.4287
     39 H2'        -0.0011    0.0027    0.0003 H         1 GTP         0.0809
     40 HO2'       -0.6141    0.5574    2.1082 H         1 GTP         0.4385
     41 H1'         1.7826    1.9024    1.6451 H         1 GTP         0.0794
     42 H8         -0.1415    1.7265   -1.7082 H         1 GTP         0.3821
     43 HN21       -0.0303    6.7197    3.9559 H         1 GTP         0.4411
     44 HN22        0.9765    5.2967    4.1108 H         1 GTP         0.4411
     45 H45         1.1068    3.6990    2.5819 H         1 GTP         0.4819
     46 H46        -1.5877    3.7943   -1.9074 H         1 GTP         0.5182
@<TRIPOS>BOND
     1    1    2 2
     2    1    3 1
     3    1    4 1
     4    1    5 1
     5    4   33 1
     6    5    6 1
     7    6    7 2
     8    6    8 1
     9    6    9 1
    10    9   10 1
    11   10   11 2
    12   10   12 1
    13   10   13 1
    14   13   14 1
    15   14   15 1
    16   14   34 1
    17   14   35 1
    18   15   16 1
    19   15   17 1
    20   15   36 1
    21   16   21 1
    22   17   18 1
    23   17   19 1
    24   17   37 1
    25   18   38 1
    26   19   20 1
    27   19   21 1
    28   19   39 1
    29   20   40 1
    30   21   22 1
    31   21   41 1
    32   22   23 ar
    33   22   32 ar
    34   23   24 ar
    35   23   42 1
    36   24   25 ar
    37   24   46 1
    38   25   26 ar
    39   25   32 ar
    40   26   27 2
    41   26   28 ar
    42   28   29 ar
    43   29   30 1
    44   29   31 ar
    45   30   43 1
    46   30   44 1
    47   31   32 ar
    48   31   45 1
@<TRIPOS>SUBSTRUCTURE
     1 GTP         1 GROUP 0 A     ****
@<TRIPOS>MOLECULE
[[[5-(2-amino-6-oxo-7,8-dihydro-3~{H}-purin-8-ylium-9-yl)-3,4-dihydroxy-tetrahydrofuran-2-yl]methoxy-oxido-phosphoryl]oxy-oxido-phosphoryl] hydrogen phosphate
   46    48     1     0     0
SMALL
USER_CHARGES

@<TRIPOS>ATOM
      1 PG          4.5906   -0.6469   -7.2948 P.3       1 GTP         1.5447
      2 O1G         3.6100    0.2620   -6.5879 O.co2     1 GTP        -0.8705
      3 O2G         5.6116   -0.0876   -8.2605 O.co2     1 GTP        -0.8705
      4 O3G         3.7522   -1.8257   -8.0519 O.3       1 GTP        -0.7914
      5 O3B         5.3591   -1.5645   -6.1852 O.3       1 GTP        -0.8116
      6 PB          4.7457   -2.5207   -5.0126 P.3       1 GTP         1.6738
      7 O1B         3.7811   -3.5012   -5.6417 O.co2     1 GTP        -0.8763
      8 O2B         5.8710   -2.9830   -4.1141 O.co2     1 GTP        -0.8763
      9 O3A         3.9110   -1.3991   -4.1700 O.3       1 GTP        -0.8005
     10 PA          4.4374   -0.0466   -3.4193 P.3       1 GTP         1.5754
     11 O1A         5.3589   -0.4458   -2.2872 O.co2     1 GTP        -0.8771
     12 O2A         4.8750    0.9511   -4.4695 O.co2     1 GTP        -0.8771
     13 O5'         3.0213    0.5153   -2.8245 O.3       1 GTP        -0.5809
     14 C5'         2.2816   -0.2918   -1.9206 C.3       1 GTP         0.1986
     15 C4'         2.7248    0.0226   -0.4980 C.3       1 GTP         0.0418
     16 O4'         2.4697    1.4219   -0.2462 O.3       1 GTP        -0.3505
     17 C3'         1.9404   -0.7419    0.5596 C.3       1 GTP         0.0909
     18 O3'         2.7418   -0.8086    1.7389 O.3       1 GTP        -0.6187
     19 C2'         0.7477    0.1630    0.7858 C.3       1 GTP         0.0706
     20 O2'         0.1373   -0.0577    2.0407 O.3       1 GTP        -0.6294
     21 C1'         1.3733    1.5427    0.6747 C.3       1 GTP         0.3895
     22 N9          0.4520    2.5240    0.1767 N.pl3     1 GTP        -0.4733
     23 C8          0.2012    2.8401   -1.0899 C.ar      1 GTP         0.2958
     24 N7         -0.7168    3.7990   -1.1981 N.pl3     1 GTP        -0.4933
     25 C5         -1.0645    4.1043    0.0896 C.ar      1 GTP        -0.1494
     26 C6         -2.0336    5.0870    0.5973 C.ar      1 GTP         0.7954
     27 O6         -2.6730    5.7839   -0.1834 O.2       1 GTP        -0.5729
     28 N1         -2.1539    5.1517    1.9868 N.2       1 GTP        -0.7443
     29 C2         -1.4288    4.3650    2.7566 C.ar      1 GTP         0.8831
     30 N2         -1.5126    4.3922    4.1250 N.pl3     1 GTP        -0.9204
     31 N3         -0.5167    3.4388    2.2748 N.pl3     1 GTP        -0.7173
     32 C4         -0.3638    3.3392    0.9318 C.ar      1 GTP         0.2626
     33 HOG3        4.2508   -2.5009   -8.5596 H         1 GTP         0.4102
     34 H5'         1.2163   -0.0770   -2.0471 H         1 GTP         0.0289
     35 H5''        2.4655   -1.3443   -2.1563 H         1 GTP         0.0289
     36 H4'         3.8044   -0.1397   -0.4040 H         1 GTP         0.2056
     37 H3'         1.6764   -1.7639    0.2728 H         1 GTP         0.1140
     38 HO3'        2.2232   -1.2979    2.3953 H         1 GTP         0.4287
     39 H2'        -0.0011    0.0027    0.0003 H         1 GTP         0.0809
     40 HO2'       -0.6141    0.5574    2.1082 H         1 GTP         0.4385
     41 H1'         1.7826    1.9024    1.6451 H         1 GTP         0.0794
     42 H8          0.6787    2.3803   -1.9373 H         1 GTP         0.3821
     43 HN21       -2.1462    5.0320    4.5446 H         1 GTP         0.4411
     44 HN22       -0.9365    3.7712    4.6440 H         1 GTP         0.4411
     45 H45         0.0318    2.8419    2.8816 H         1 GTP         0.4819
     46 H46        -1.0718    4.2049   -2.0526 H         1 GTP         0.5182
@<TRIPOS>BOND
     1    1    2 2
     2    1    3 1
     3    1    4 1
     4    1    5 1
     5    4   33 1
     6    5    6 1
     7    6    7 2
     8    6    8 1
     9    6    9 1
    10    9   10 1
    11   10   11 2
    12   10   12 1
    13   10   13 1
    14   13   14 1
    15   14   15 1
    16   14   34 1
    17   14   35 1
    18   15   16 1
    19   15   17 1
    20   15   36 1
    21   16   21 1
    22   17   18 1
    23   17   19 1
    24   17   37 1
    25   18   38 1
    26   19   20 1
    27   19   21 1
    28   19   39 1
    29   20   40 1
    30   21   22 1
    31   21   41 1
    32   22   23 ar
    33   22   32 ar
    34   23   24 ar
    35   23   42 1
    36   24   25 ar
    37   24   46 1
    38   25   26 ar
    39   25   32 ar
    40   26   27 2
    41   26   28 ar
    42   28   29 ar
    43   29   30 1
    44   29   31 ar
    45   30   43 1
    46   30   44 1
    47   31   32 ar
    48   31   45 1
@<TRIPOS>SUBSTRUCTURE
     1 GTP         1 GROUP 0 A     ****
@<TRIPOS>MOLECULE
[[[5-(2-amino-6-oxo-7,8-dihydro-3~{H}-purin-8-ylium-9-yl)-3,4-dihydroxy-tetrahydrofuran-2-yl]methoxy-oxido-phosphoryl]oxy-oxido-phosphoryl] hydrogen phosphate
   46    48     1     0     0
SMALL
USER_CHARGES

@<TRIPOS>ATOM
      1 PG         -1.1881   -0.3055   -5.0454 P.3       1 GTP         1.5447
      2 O1G        -0.7308   -0.1578   -3.6114 O.co2     1 GTP        -0.8705
      3 O2G        -1.1568    0.8703   -5.9963 O.co2     1 GTP        -0.8705
      4 O3G        -2.6951   -0.9337   -5.0472 O.3       1 GTP        -0.7914
      5 O3B        -0.3975   -1.5594   -5.7285 O.3       1 GTP        -0.8116
      6 PB          1.1870   -1.7278   -6.0847 P.3       1 GTP         1.6738
      7 O1B         1.4254   -3.1367   -6.5803 O.co2     1 GTP        -0.8763
      8 O2B         1.6458   -0.5224   -6.8746 O.co2     1 GTP        -0.8763
      9 O3A         1.8113   -1.5642   -4.5853 O.3       1 GTP        -0.8005
     10 PA          1.5544   -2.4558   -3.2404 P.3       1 GTP         1.5754
     11 O1A         0.1056   -2.3088   -2.8286 O.co2     1 GTP        -0.8771
     12 O2A         2.1769   -3.8208   -3.4380 O.co2     1 GTP        -0.8771
     13 O5'         2.5245   -1.6648   -2.1878 O.3       1 GTP        -0.5809
     14 C5'         2.2816   -0.2918   -1.9206 C.3       1 GTP         0.1986
     15 C4'         2.7248    0.0226   -0.4980 C.3       1 GTP         0.0418
     16 O4'         2.4697    1.4219   -0.2462 O.3       1 GTP        -0.3505
     17 C3'         1.9404   -0.7419    0.5596 C.3       1 GTP         0.0909
     18 O3'         2.7418   -0.8086    1.7389 O.3       1 GTP        -0.6187
     19 C2'         0.7477    0.1630    0.7858 C.3       1 GTP         0.0706
     20 O2'         0.1373   -0.0577    2.0407 O.3       1 GTP        -0.6294
     21 C1'         1.3733    1.5427    0.6747 C.3       1 GTP         0.3895
     22 N9          0.4520    2.5240    0.1767 N.pl3     1 GTP        -0.4733
     23 C8          0.2012    2.8401   -1.0899 C.ar      1 GTP         0.2958
     24 N7         -0.7168    3.7990   -1.1981 N.pl3     1 GTP        -0.4933
     25 C5         -1.0645    4.1043    0.0896 C.ar      1 GTP        -0.1494
     26 C6         -2.0336    5.0870    0.5973 C.ar      1 GTP         0.7954
     27 O6         -2.6730    5.7839   -0.1834 O.2       1 GTP        -0.5729
     28 N1         -2.1539    5.1517    1.9868 N.2       1 GTP        -0.7443
     29 C2         -1.4288    4.3650    2.7566 C.ar      1 GTP         0.8831
     30 N2         -1.5126    4.3922    4.1250 N.pl3     1 GTP        -0.9204
     31 N3         -0.5167    3.4388    2.2748 N.pl3     1 GTP        -0.7173
     32 C4         -0.3638    3.3392    0.9318 C.ar      1 GTP         0.2626
     33 HOG3       -3.1344   -1.0910   -5.9101 H         1 GTP         0.4102
     34 H5'         2.8432    0.3119   -2.6398 H         1 GTP         0.0289
     35 H5''        1.2128   -0.0927   -2.0428 H         1 GTP         0.0289
     36 H4'         3.8044   -0.1397   -0.4040 H         1 GTP         0.2056
     37 H3'         1.6764   -1.7639    0.2728 H         1 GTP         0.1140
     38 HO3'        2.2232   -1.2979    2.3953 H         1 GTP         0.4287
     39 H2'        -0.0011    0.0027    0.0003 H         1 GTP         0.0809
     40 HO2'       -0.6141    0.5574    2.1082 H         1 GTP         0.4385
     41 H1'         1.7826    1.9024    1.6451 H         1 GTP         0.0794
     42 H8          0.6787    2.3803   -1.9373 H         1 GTP         0.3821
     43 HN21       -2.1462    5.0320    4.5446 H         1 GTP         0.4411
     44 HN22       -0.9365    3.7712    4.6440 H         1 GTP         0.4411
     45 H45         0.0318    2.8419    2.8816 H         1 GTP         0.4819
     46 H46        -1.0718    4.2049   -2.0526 H         1 GTP         0.5182
@<TRIPOS>BOND
     1    1    2 2
     2    1    3 1
     3    1    4 1
     4    1    5 1
     5    4   33 1
     6    5    6 1
     7    6    7 2
     8    6    8 1
     9    6    9 1
    10    9   10 1
    11   10   11 2
    12   10   12 1
    13   10   13 1
    14   13   14 1
    15   14   15 1
    16   14   34 1
    17   14   35 1
    18   15   16 1
    19   15   17 1
    20   15   36 1
    21   16   21 1
    22   17   18 1
    23   17   19 1
    24   17   37 1
    25   18   38 1
    26   19   20 1
    27   19   21 1
    28   19   39 1
    29   20   40 1
    30   21   22 1
    31   21   41 1
    32   22   23 ar
    33   22   32 ar
    34   23   24 ar
    35   23   42 1
    36   24   25 ar
    37   24   46 1
    38   25   26 ar
    39   25   32 ar
    40   26   27 2
    41   26   28 ar
    42   28   29 ar
    43   29   30 1
    44   29   31 ar
    45   30   43 1
    46   30   44 1
    47   31   32 ar
    48   31   45 1
@<TRIPOS>SUBSTRUCTURE
     1 GTP         1 GROUP 0 A     ****
@<TRIPOS>MOLECULE
[[[5-(2-amino-6-oxo-7,8-dihydro-3~{H}-purin-8-ylium-9-yl)-3,4-dihydroxy-tetrahydrofuran-2-yl]methoxy-oxido-phosphoryl]oxy-oxido-phosphoryl] hydrogen phosphate
   46    48     1     0     0
SMALL
USER_CHARGES

@<TRIPOS>ATOM
      1 PG         -0.8243    1.8882   -4.7714 P.3       1 GTP         1.5447
      2 O1G        -1.8415    1.3914   -5.7743 O.co2     1 GTP        -0.8705
      3 O2G        -0.3335    0.9944   -3.6543 O.co2     1 GTP        -0.8705
      4 O3G        -1.3766    3.2789   -4.1180 O.3       1 GTP        -0.7914
      5 O3B         0.4642    2.4876   -5.5741 O.3       1 GTP        -0.8116
      6 PB          1.7726    3.2827   -5.0069 P.3       1 GTP         1.6738
      7 O1B         2.7412    3.4986   -6.1483 O.co2     1 GTP        -0.8763
      8 O2B         1.3131    4.4270   -4.1312 O.co2     1 GTP        -0.8763
      9 O3A         2.3599    2.1376   -4.0025 O.3       1 GTP        -0.8005
     10 PA          2.8621    0.6170   -4.3270 P.3       1 GTP         1.5754
     11 O1A         1.6809   -0.1909   -4.8193 O.co2     1 GTP        -0.8771
     12 O2A         4.1462    0.6908   -5.1241 O.co2     1 GTP        -0.8771
     13 O5'         3.2903    0.1346   -2.8241 O.3       1 GTP        -0.5809
     14 C5'         2.2816   -0.2918   -1.9206 C.3       1 GTP         0.1986
     15 C4'         2.7248    0.0226   -0.4980 C.3       1 GTP         0.0418
     16 O4'         2.4697    1.4219   -0.2462 O.3       1 GTP        -0.3505
     17 C3'         1.9404   -0.7419    0.5596 C.3       1 GTP         0.0909
     18 O3'         2.7418   -0.8086    1.7389 O.3       1 GTP        -0.6187
     19 C2'         0.7477    0.1630    0.7858 C.3       1 GTP         0.0706
     20 O2'         0.1373   -0.0577    2.0407 O.3       1 GTP        -0.6294
     21 C1'         1.3733    1.5427    0.6747 C.3       1 GTP         0.3895
     22 N9          0.4520    2.5240    0.1767 N.pl3     1 GTP        -0.4733
     23 C8          0.5427    3.2356   -0.9425 C.ar      1 GTP         0.2958
     24 N7         -0.4919    4.0590   -1.1018 N.pl3     1 GTP        -0.4933
     25 C5         -1.2850    3.8484   -0.0069 C.ar      1 GTP        -0.1494
     26 C6         -2.5644    4.4707    0.3650 C.ar      1 GTP         0.7954
     27 O6         -3.0718    5.3200   -0.3599 O.2       1 GTP        -0.5729
     28 N1         -3.1239    4.0269    1.5647 N.2       1 GTP        -0.7443
     29 C2         -2.5133    3.1079    2.2858 C.ar      1 GTP         0.8831
     30 N2         -3.0239    2.6409    3.4697 N.pl3     1 GTP        -0.9204
     31 N3         -1.3076    2.5223    1.9320 N.pl3     1 GTP        -0.7173
     32 C4         -0.7246    2.9211    0.7753 C.ar      1 GTP         0.2626
     33 HOG3       -0.8248    3.7293   -3.4435 H         1 GTP         0.4102
     34 H5'         1.3514    0.2330   -2.1577 H         1 GTP         0.0289
     35 H5''        2.1280   -1.3678   -2.0460 H         1 GTP         0.0289
     36 H4'         3.8044   -0.1397   -0.4040 H         1 GTP         0.2056
     37 H3'         1.6764   -1.7639    0.2728 H         1 GTP         0.1140
     38 HO3'        3.5554   -1.2733    1.4914 H         1 GTP         0.4287
     39 H2'        -0.0011    0.0027    0.0003 H         1 GTP         0.0809
     40 HO2'       -0.1563   -0.9855    2.0596 H         1 GTP         0.4385
     41 H1'         1.7826    1.9024    1.6451 H         1 GTP         0.0794
     42 H8          1.3539    3.1622   -1.6455 H         1 GTP         0.3821
     43 HN21       -3.8871    3.0143    3.7893 H         1 GTP         0.4411
     44 HN22       -2.5108    1.9472    3.9621 H         1 GTP         0.4411
     45 H45        -0.8530    1.8168    2.4986 H         1 GTP         0.4819
     46 H46        -0.6466    4.6966   -1.8702 H         1 GTP         0.5182
@<TRIPOS>BOND
     1    1    2 2
     2    1    3 1
     3    1    4 1
     4    1    5 1
     5    4   33 1
     6    5    6 1
     7    6    7 2
     8    6    8 1
     9    6    9 1
    10    9   10 1
    11   10   11 2
    12   10   12 1
    13   10   13 1
    14   13   14 1
    15   14   15 1
    16   14   34 1
    17   14   35 1
    18   15   16 1
    19   15   17 1
    20   15   36 1
    21   16   21 1
    22   17   18 1
    23   17   19 1
    24   17   37 1
    25   18   38 1
    26   19   20 1
    27   19   21 1
    28   19   39 1
    29   20   40 1
    30   21   22 1
    31   21   41 1
    32   22   23 ar
    33   22   32 ar
    34   23   24 ar
    35   23   42 1
    36   24   25 ar
    37   24   46 1
    38   25   26 ar
    39   25   32 ar
    40   26   27 2
    41   26   28 ar
    42   28   29 ar
    43   29   30 1
    44   29   31 ar
    45   30   43 1
    46   30   44 1
    47   31   32 ar
    48   31   45 1
@<TRIPOS>SUBSTRUCTURE
     1 GTP         1 GROUP 0 A     ****
@<TRIPOS>MOLECULE
[[[5-(2-amino-6-oxo-7,8-dihydro-3~{H}-purin-8-ylium-9-yl)-3,4-dihydroxy-tetrahydrofuran-2-yl]methoxy-oxido-phosphoryl]oxy-oxido-phosphoryl] hydrogen phosphate
   46    48     1     0     0
SMALL
USER_CHARGES

@<TRIPOS>ATOM
      1 PG          0.2568   -5.6741   -4.1958 P.3       1 GTP         1.5447
      2 O1G         0.7759   -4.7767   -5.2970 O.co2     1 GTP        -0.8705
      3 O2G         0.8191   -7.0639   -3.9958 O.co2     1 GTP        -0.8705
      4 O3G        -1.3656   -5.7872   -4.3404 O.3       1 GTP        -0.7914
      5 O3B         0.3224   -4.8679   -2.7783 O.3       1 GTP        -0.8116
      6 PB         -0.2798   -3.4039   -2.3788 P.3       1 GTP         1.6738
      7 O1B        -1.7568   -3.3822   -2.7034 O.co2     1 GTP        -0.8763
      8 O2B         0.2362   -3.0146   -1.0114 O.co2     1 GTP        -0.8763
      9 O3A         0.5293   -2.4845   -3.4582 O.3       1 GTP        -0.8005
     10 PA          2.1372   -2.2718   -3.6563 P.3       1 GTP         1.5754
     11 O1A         2.7866   -3.6248   -3.8512 O.co2     1 GTP        -0.8771
     12 O2A         2.3589   -1.1479   -4.6449 O.co2     1 GTP        -0.8771
     13 O5'         2.5245   -1.6648   -2.1878 O.3       1 GTP        -0.5809
     14 C5'         2.2816   -0.2918   -1.9206 C.3       1 GTP         0.1986
     15 C4'         2.7248    0.0226   -0.4980 C.3       1 GTP         0.0418
     16 O4'         2.4697    1.4219   -0.2462 O.3       1 GTP        -0.3505
     17 C3'         1.9404   -0.7419    0.5596 C.3       1 GTP         0.0909
     18 O3'         2.7418   -0.8086    1.7389 O.3       1 GTP        -0.6187
     19 C2'         0.7477    0.1630    0.7858 C.3       1 GTP         0.0706
     20 O2'         0.1373   -0.0577    2.0407 O.3       1 GTP        -0.6294
     21 C1'         1.3733    1.5427    0.6747 C.3       1 GTP         0.3895
     22 N9          0.4520    2.5240    0.1767 N.pl3     1 GTP        -0.4733
     23 C8          0.2012    2.8401   -1.0899 C.ar      1 GTP         0.2958
     24 N7         -0.7168    3.7990   -1.1981 N.pl3     1 GTP        -0.4933
     25 C5         -1.0645    4.1043    0.0896 C.ar      1 GTP        -0.1494
     26 C6         -2.0336    5.0870    0.5973 C.ar      1 GTP         0.7954
     27 O6         -2.6730    5.7839   -0.1834 O.2       1 GTP        -0.5729
     28 N1         -2.1539    5.1517    1.9868 N.2       1 GTP        -0.7443
     29 C2         -1.4288    4.3650    2.7566 C.ar      1 GTP         0.8831
     30 N2         -1.5126    4.3922    4.1250 N.pl3     1 GTP        -0.9204
     31 N3         -0.5167    3.4388    2.2748 N.pl3     1 GTP        -0.7173
     32 C4         -0.3638    3.3392    0.9318 C.ar      1 GTP         0.2626
     33 HOG3       -1.8546   -6.3394   -3.6937 H         1 GTP         0.4102
     34 H5'         2.8432    0.3119   -2.6398 H         1 GTP         0.0289
     35 H5''        1.2128   -0.0927   -2.0428 H         1 GTP         0.0289
     36 H4'         3.8044   -0.1397   -0.4040 H         1 GTP         0.2056
     37 H3'         1.6764   -1.7639    0.2728 H         1 GTP         0.1140
     38 HO3'        2.2232   -1.2979    2.3953 H         1 GTP         0.4287
     39 H2'        -0.0011    0.0027    0.0003 H         1 GTP         0.0809
     40 HO2'       -0.6141    0.5574    2.1082 H         1 GTP         0.4385
     41 H1'         1.7826    1.9024    1.6451 H         1 GTP         0.0794
     42 H8          0.6787    2.3803   -1.9373 H         1 GTP         0.3821
     43 HN21       -2.1462    5.0320    4.5446 H         1 GTP         0.4411
     44 HN22       -0.9365    3.7712    4.6440 H         1 GTP         0.4411
     45 H45         0.0318    2.8419    2.8816 H         1 GTP         0.4819
     46 H46        -1.0718    4.2049   -2.0526 H         1 GTP         0.5182
@<TRIPOS>BOND
     1    1    2 2
     2    1    3 1
     3    1    4 1
     4    1    5 1
     5    4   33 1
     6    5    6 1
     7    6    7 2
     8    6    8 1
     9    6    9 1
    10    9   10 1
    11   10   11 2
    12   10   12 1
    13   10   13 1
    14   13   14 1
    15   14   15 1
    16   14   34 1
    17   14   35 1
    18   15   16 1
    19   15   17 1
    20   15   36 1
    21   16   21 1
    22   17   18 1
    23   17   19 1
    24   17   37 1
    25   18   38 1
    26   19   20 1
    27   19   21 1
    28   19   39 1
    29   20   40 1
    30   21   22 1
    31   21   41 1
    32   22   23 ar
    33   22   32 ar
    34   23   24 ar
    35   23   42 1
    36   24   25 ar
    37   24   46 1
    38   25   26 ar
    39   25   32 ar
    40   26   27 2
    41   26   28 ar
    42   28   29 ar
    43   29   30 1
    44   29   31 ar
    45   30   43 1
    46   30   44 1
    47   31   32 ar
    48   31   45 1
@<TRIPOS>SUBSTRUCTURE
     1 GTP         1 GROUP 0 A     ****
@<TRIPOS>MOLECULE
[[[5-(2-amino-6-oxo-7,8-dihydro-3~{H}-purin-8-ylium-9-yl)-3,4-dihydroxy-tetrahydrofuran-2-yl]methoxy-oxido-phosphoryl]oxy-oxido-phosphoryl] hydrogen phosphate
   46    48     1     0     0
SMALL
USER_CHARGES

@<TRIPOS>ATOM
      1 PG          6.3311   -4.8073   -3.1280 P.3       1 GTP         1.5447
      2 O1G         6.1344   -6.3055   -3.0638 O.co2     1 GTP        -0.8705
      3 O2G         5.9867   -4.0311   -4.3796 O.co2     1 GTP        -0.8705
      4 O3G         7.8743   -4.4686   -2.7161 O.3       1 GTP        -0.7914
      5 O3B         5.5789   -4.1178   -1.8542 O.3       1 GTP        -0.8116
      6 PB          5.5913   -2.5661   -1.3467 P.3       1 GTP         1.6738
      7 O1B         4.6181   -2.4239   -0.1977 O.co2     1 GTP        -0.8763
      8 O2B         7.0242   -2.0956   -1.2334 O.co2     1 GTP        -0.8763
      9 O3A         4.9726   -1.8505   -2.6771 O.3       1 GTP        -0.8005
     10 PA          3.5300   -2.0730   -3.4114 P.3       1 GTP         1.5754
     11 O1A         3.4034   -1.0798   -4.5463 O.co2     1 GTP        -0.8771
     12 O2A         3.3275   -3.5547   -3.6423 O.co2     1 GTP        -0.8771
     13 O5'         2.5245   -1.6648   -2.1878 O.3       1 GTP        -0.5809
     14 C5'         2.2816   -0.2918   -1.9206 C.3       1 GTP         0.1986
     15 C4'         2.7248    0.0226   -0.4980 C.3       1 GTP         0.0418
     16 O4'         2.4697    1.4219   -0.2462 O.3       1 GTP        -0.3505
     17 C3'         1.9404   -0.7419    0.5596 C.3       1 GTP         0.0909
     18 O3'         2.7418   -0.8086    1.7389 O.3       1 GTP        -0.6187
     19 C2'         0.7477    0.1630    0.7858 C.3       1 GTP         0.0706
     20 O2'         0.1373   -0.0577    2.0407 O.3       1 GTP        -0.6294
     21 C1'         1.3733    1.5427    0.6747 C.3       1 GTP         0.3895
     22 N9          0.4520    2.5240    0.1767 N.pl3     1 GTP        -0.4733
     23 C8          0.2012    2.8401   -1.0899 C.ar      1 GTP         0.2958
     24 N7         -0.7168    3.7990   -1.1981 N.pl3     1 GTP        -0.4933
     25 C5         -1.0645    4.1043    0.0896 C.ar      1 GTP        -0.1494
     26 C6         -2.0336    5.0870    0.5973 C.ar      1 GTP         0.7954
     27 O6         -2.6730    5.7839   -0.1834 O.2       1 GTP        -0.5729
     28 N1         -2.1539    5.1517    1.9868 N.2       1 GTP        -0.7443
     29 C2         -1.4288    4.3650    2.7566 C.ar      1 GTP         0.8831
     30 N2         -1.5126    4.3922    4.1250 N.pl3     1 GTP        -0.9204
     31 N3         -0.5167    3.4388    2.2748 N.pl3     1 GTP        -0.7173
     32 C4         -0.3638    3.3392    0.9318 C.ar      1 GTP         0.2626
     33 HOG3        8.1607   -3.5305   -2.7098 H         1 GTP         0.4102
     34 H5'         2.8432    0.3119   -2.6398 H         1 GTP         0.0289
     35 H5''        1.2128   -0.0927   -2.0428 H         1 GTP         0.0289
     36 H4'         3.8044   -0.1397   -0.4040 H         1 GTP         0.2056
     37 H3'         1.6764   -1.7639    0.2728 H         1 GTP         0.1140
     38 HO3'        3.5554   -1.2733    1.4914 H         1 GTP         0.4287
     39 H2'        -0.0011    0.0027    0.0003 H         1 GTP         0.0809
     40 HO2'       -0.6141    0.5574    2.1082 H         1 GTP         0.4385
     41 H1'         1.7826    1.9024    1.6451 H         1 GTP         0.0794
     42 H8          0.6787    2.3803   -1.9373 H         1 GTP         0.3821
     43 HN21       -2.1462    5.0320    4.5446 H         1 GTP         0.4411
     44 HN22       -0.9365    3.7712    4.6440 H         1 GTP         0.4411
     45 H45         0.0318    2.8419    2.8816 H         1 GTP         0.4819
     46 H46        -1.0718    4.2049   -2.0526 H         1 GTP         0.5182
@<TRIPOS>BOND
     1    1    2 2
     2    1    3 1
     3    1    4 1
     4    1    5 1
     5    4   33 1
     6    5    6 1
     7    6    7 2
     8    6    8 1
     9    6    9 1
    10    9   10 1
    11   10   11 2
    12   10   12 1
    13   10   13 1
    14   13   14 1
    15   14   15 1
    16   14   34 1
    17   14   35 1
    18   15   16 1
    19   15   17 1
    20   15   36 1
    21   16   21 1
    22   17   18 1
    23   17   19 1
    24   17   37 1
    25   18   38 1
    26   19   20 1
    27   19   21 1
    28   19   39 1
    29   20   40 1
    30   21   22 1
    31   21   41 1
    32   22   23 ar
    33   22   32 ar
    34   23   24 ar
    35   23   42 1
    36   24   25 ar
    37   24   46 1
    38   25   26 ar
    39   25   32 ar
    40   26   27 2
    41   26   28 ar
    42   28   29 ar
    43   29   30 1
    44   29   31 ar
    45   30   43 1
    46   30   44 1
    47   31   32 ar
    48   31   45 1
@<TRIPOS>SUBSTRUCTURE
     1 GTP         1 GROUP 0 A     ****
@<TRIPOS>MOLECULE
[[[5-(2-amino-6-oxo-7,8-dihydro-3~{H}-purin-8-ylium-9-yl)-3,4-dihydroxy-tetrahydrofuran-2-yl]methoxy-oxido-phosphoryl]oxy-oxido-phosphoryl] hydrogen phosphate
   46    48     1     0     0
SMALL
USER_CHARGES

@<TRIPOS>ATOM
      1 PG          5.8605   -4.1700   -4.4801 P.3       1 GTP         1.5447
      2 O1G         6.1564   -5.5736   -4.0008 O.co2     1 GTP        -0.8705
      3 O2G         4.7071   -3.8963   -5.4194 O.co2     1 GTP        -0.8705
      4 O3G         7.2209   -3.5478   -5.1346 O.3       1 GTP        -0.7914
      5 O3B         5.7351   -3.1824   -3.1867 O.3       1 GTP        -0.8116
      6 PB          5.5777   -1.5587   -3.1219 P.3       1 GTP         1.6738
      7 O1B         5.3626   -1.1495   -1.6819 O.co2     1 GTP        -0.8763
      8 O2B         6.6552   -0.9242   -3.9728 O.co2     1 GTP        -0.8763
      9 O3A         4.1796   -1.3979   -3.9491 O.3       1 GTP        -0.8005
     10 PA          3.3343   -0.0514   -4.3264 P.3       1 GTP         1.5754
     11 O1A         4.2455    0.9036   -5.0666 O.co2     1 GTP        -0.8771
     12 O2A         1.9982   -0.4643   -4.9043 O.co2     1 GTP        -0.8771
     13 O5'         3.0213    0.5153   -2.8245 O.3       1 GTP        -0.5809
     14 C5'         2.2816   -0.2918   -1.9206 C.3       1 GTP         0.1986
     15 C4'         2.7248    0.0226   -0.4980 C.3       1 GTP         0.0418
     16 O4'         2.4697    1.4219   -0.2462 O.3       1 GTP        -0.3505
     17 C3'         1.9404   -0.7419    0.5596 C.3       1 GTP         0.0909
     18 O3'         2.7418   -0.8086    1.7389 O.3       1 GTP        -0.6187
     19 C2'         0.7477    0.1630    0.7858 C.3       1 GTP         0.0706
     20 O2'         0.1373   -0.0577    2.0407 O.3       1 GTP        -0.6294
     21 C1'         1.3733    1.5427    0.6747 C.3       1 GTP         0.3895
     22 N9          0.4520    2.5240    0.1767 N.pl3     1 GTP        -0.4733
     23 C8          0.5427    3.2356   -0.9425 C.ar      1 GTP         0.2958
     24 N7         -0.4919    4.0590   -1.1018 N.pl3     1 GTP        -0.4933
     25 C5         -1.2850    3.8484   -0.0069 C.ar      1 GTP        -0.1494
     26 C6         -2.5644    4.4707    0.3650 C.ar      1 GTP         0.7954
     27 O6         -3.0718    5.3200   -0.3599 O.2       1 GTP        -0.5729
     28 N1         -3.1239    4.0269    1.5647 N.2       1 GTP        -0.7443
     29 C2         -2.5133    3.1079    2.2858 C.ar      1 GTP         0.8831
     30 N2         -3.0239    2.6409    3.4697 N.pl3     1 GTP        -0.9204
     31 N3         -1.3076    2.5223    1.9320 N.pl3     1 GTP        -0.7173
     32 C4         -0.7246    2.9211    0.7753 C.ar      1 GTP         0.2626
     33 HOG3        7.1911   -2.6356   -5.4942 H         1 GTP         0.4102
     34 H5'         1.2163   -0.0770   -2.0471 H         1 GTP         0.0289
     35 H5''        2.4655   -1.3443   -2.1563 H         1 GTP         0.0289
     36 H4'         3.8044   -0.1397   -0.4040 H         1 GTP         0.2056
     37 H3'         1.6764   -1.7639    0.2728 H         1 GTP         0.1140
     38 HO3'        2.2232   -1.2979    2.3953 H         1 GTP         0.4287
     39 H2'        -0.0011    0.0027    0.0003 H         1 GTP         0.0809
     40 HO2'       -0.1563   -0.9855    2.0596 H         1 GTP         0.4385
     41 H1'         1.7826    1.9024    1.6451 H         1 GTP         0.0794
     42 H8          1.3539    3.1622   -1.6455 H         1 GTP         0.3821
     43 HN21       -3.8871    3.0143    3.7893 H         1 GTP         0.4411
     44 HN22       -2.5108    1.9472    3.9621 H         1 GTP         0.4411
     45 H45        -0.8530    1.8168    2.4986 H         1 GTP         0.4819
     46 H46        -0.6466    4.6966   -1.8702 H         1 GTP         0.5182
@<TRIPOS>BOND
     1    1    2 2
     2    1    3 1
     3    1    4 1
     4    1    5 1
     5    4   33 1
     6    5    6 1
     7    6    7 2
     8    6    8 1
     9    6    9 1
    10    9   10 1
    11   10   11 2
    12   10   12 1
    13   10   13 1
    14   13   14 1
    15   14   15 1
    16   14   34 1
    17   14   35 1
    18   15   16 1
    19   15   17 1
    20   15   36 1
    21   16   21 1
    22   17   18 1
    23   17   19 1
    24   17   37 1
    25   18   38 1
    26   19   20 1
    27   19   21 1
    28   19   39 1
    29   20   40 1
    30   21   22 1
    31   21   41 1
    32   22   23 ar
    33   22   32 ar
    34   23   24 ar
    35   23   42 1
    36   24   25 ar
    37   24   46 1
    38   25   26 ar
    39   25   32 ar
    40   26   27 2
    41   26   28 ar
    42   28   29 ar
    43   29   30 1
    44   29   31 ar
    45   30   43 1
    46   30   44 1
    47   31   32 ar
    48   31   45 1
@<TRIPOS>SUBSTRUCTURE
     1 GTP         1 GROUP 0 A     ****
@<TRIPOS>MOLECULE
[[[5-(2-amino-6-oxo-7,8-dihydro-3~{H}-purin-8-ylium-9-yl)-3,4-dihydroxy-tetrahydrofuran-2-yl]methoxy-oxido-phosphoryl]oxy-oxido-phosphoryl] hydrogen phosphate
   46    48     1     0     0
SMALL
USER_CHARGES

@<TRIPOS>ATOM
      1 PG         -4.2276   -8.2563   -0.2094 P.3       1 GTP         1.5447
      2 O1G        -2.7966   -7.7903   -0.3602 O.co2     1 GTP        -0.8705
      3 O2G        -4.5576   -9.7277   -0.0925 O.co2     1 GTP        -0.8705
      4 O3G        -5.1107   -7.6221   -1.4276 O.3       1 GTP        -0.7914
      5 O3B        -4.9174   -7.4588    1.0363 O.3       1 GTP        -0.8116
      6 PB         -5.0169   -5.8549    1.3248 P.3       1 GTP         1.6738
      7 O1B        -5.6353   -5.1829    0.1191 O.co2     1 GTP        -0.8763
      8 O2B        -5.5619   -5.6373    2.7188 O.co2     1 GTP        -0.8763
      9 O3A        -3.4246   -5.5011    1.3893 O.3       1 GTP        -0.8005
     10 PA         -2.2652   -6.0681    2.3913 P.3       1 GTP         1.5754
     11 O1A        -2.5853   -5.6288    3.8037 O.co2     1 GTP        -0.8771
     12 O2A        -2.0109   -7.5233    2.0634 O.co2     1 GTP        -0.8771
     13 O5'        -0.9724   -5.2440    1.8220 O.3       1 GTP        -0.5809
     14 C5'        -0.7840   -3.8935    2.2172 C.3       1 GTP         0.1986
     15 C4'        -0.0724   -3.1466    1.1027 C.3       1 GTP         0.0418
     16 O4'        -0.8674   -3.1929   -0.0945 O.3       1 GTP        -0.3505
     17 C3'         0.1338   -1.6715    1.4027 C.3       1 GTP         0.0909
     18 O3'         1.2893   -1.4445    2.1808 O.3       1 GTP        -0.6187
     19 C2'         0.2158   -1.0724    0.0128 C.3       1 GTP         0.0706
     20 O2'         1.5141   -1.2448   -0.5513 O.3       1 GTP        -0.6294
     21 C1'        -0.7897   -1.9176   -0.7583 C.3       1 GTP         0.3895
     22 N9         -2.1040   -1.3333   -0.7704 N.pl3     1 GTP        -0.4733
     23 C8         -3.0774   -1.4939    0.1205 C.ar      1 GTP         0.2958
     24 N7         -4.1709   -0.8031   -0.1972 N.pl3     1 GTP        -0.4933
     25 C5         -3.8606   -0.1662   -1.3678 C.ar      1 GTP        -0.1494
     26 C6         -4.6738    0.7391   -2.1934 C.ar      1 GTP         0.7954
     27 O6         -5.8186    1.0214   -1.8562 O.2       1 GTP        -0.5729
     28 N1         -4.0520    1.2260   -3.3448 N.2       1 GTP        -0.7443
     29 C2         -2.8155    0.8734   -3.6351 C.ar      1 GTP         0.8831
     30 N2         -2.1637    1.3257   -4.7536 N.pl3     1 GTP        -0.9204
     31 N3         -2.0511    0.0205   -2.8541 N.pl3     1 GTP        -0.7173
     32 C4         -2.6117   -0.4790   -1.7258 C.ar      1 GTP         0.2626
     33 HOG3       -6.0677   -7.8333   -1.4696 H         1 GTP         0.4102
     34 H5'        -1.7618   -3.4448    2.4164 H         1 GTP         0.0289
     35 H5''       -0.1874   -3.8744    3.1341 H         1 GTP         0.0289
     36 H4'         0.8874   -3.6466    0.8805 H         1 GTP         0.2056
     37 H3'        -0.7376   -1.2333    1.9867 H         1 GTP         0.1140
     38 HO3'        1.3408   -0.4870    2.3219 H         1 GTP         0.4287
     39 H2'        -0.0384   -0.0310    0.0096 H         1 GTP         0.0809
     40 HO2'        2.1463   -0.7958    0.0370 H         1 GTP         0.4385
     41 H1'        -0.4769   -2.1002   -1.8093 H         1 GTP         0.0794
     42 H8         -3.0010   -2.1083    1.0004 H         1 GTP         0.3821
     43 HN21       -2.6485    1.9422   -5.3633 H         1 GTP         0.4411
     44 HN22       -1.2319    1.0195   -4.9110 H         1 GTP         0.4411
     45 H45        -1.1018   -0.2391   -3.0927 H         1 GTP         0.4819
     46 H46        -5.0365   -0.7653    0.3226 H         1 GTP         0.5182
@<TRIPOS>BOND
     1    1    2 2
     2    1    3 1
     3    1    4 1
     4    1    5 1
     5    4   33 1
     6    5    6 1
     7    6    7 2
     8    6    8 1
     9    6    9 1
    10    9   10 1
    11   10   11 2
    12   10   12 1
    13   10   13 1
    14   13   14 1
    15   14   15 1
    16   14   34 1
    17   14   35 1
    18   15   16 1
    19   15   17 1
    20   15   36 1
    21   16   21 1
    22   17   18 1
    23   17   19 1
    24   17   37 1
    25   18   38 1
    26   19   20 1
    27   19   21 1
    28   19   39 1
    29   20   40 1
    30   21   22 1
    31   21   41 1
    32   22   23 ar
    33   22   32 ar
    34   23   24 ar
    35   23   42 1
    36   24   25 ar
    37   24   46 1
    38   25   26 ar
    39   25   32 ar
    40   26   27 2
    41   26   28 ar
    42   28   29 ar
    43   29   30 1
    44   29   31 ar
    45   30   43 1
    46   30   44 1
    47   31   32 ar
    48   31   45 1
@<TRIPOS>SUBSTRUCTURE
     1 GTP         1 GROUP 0 A     ****
@<TRIPOS>MOLECULE
[[[5-(2-amino-6-oxo-7,8-dihydro-3~{H}-purin-8-ylium-9-yl)-3,4-dihydroxy-tetrahydrofuran-2-yl]methoxy-oxido-phosphoryl]oxy-oxido-phosphoryl] hydrogen phosphate
   46    48     1     0     0
SMALL
USER_CHARGES

@<TRIPOS>ATOM
      1 PG          5.8485   -2.1741   -1.7457 P.3       1 GTP         1.5447
      2 O1G         5.2955   -2.1705   -0.3380 O.co2     1 GTP        -0.8705
      3 O2G         6.5361   -3.3986   -2.3076 O.co2     1 GTP        -0.8705
      4 O3G         6.8494   -0.8950   -1.9130 O.3       1 GTP        -0.7914
      5 O3B         4.6749   -1.7057   -2.7787 O.3       1 GTP        -0.8116
      6 PB          4.5143   -1.9910   -4.3782 P.3       1 GTP         1.6738
      7 O1B         5.6372   -1.2909   -5.1107 O.co2     1 GTP        -0.8763
      8 O2B         4.2254   -3.4603   -4.5906 O.co2     1 GTP        -0.8763
      9 O3A         3.1119   -1.1996   -4.6459 O.3       1 GTP        -0.8005
     10 PA          2.7407    0.3769   -4.4297 P.3       1 GTP         1.5754
     11 O1A         3.7274    1.2201   -5.2081 O.co2     1 GTP        -0.8771
     12 O2A         1.2486    0.5523   -4.6100 O.co2     1 GTP        -0.8771
     13 O5'         3.0213    0.5153   -2.8245 O.3       1 GTP        -0.5809
     14 C5'         2.2816   -0.2918   -1.9206 C.3       1 GTP         0.1986
     15 C4'         2.7248    0.0226   -0.4980 C.3       1 GTP         0.0418
     16 O4'         2.4697    1.4219   -0.2462 O.3       1 GTP        -0.3505
     17 C3'         1.9404   -0.7419    0.5596 C.3       1 GTP         0.0909
     18 O3'         2.7418   -0.8086    1.7389 O.3       1 GTP        -0.6187
     19 C2'         0.7477    0.1630    0.7858 C.3       1 GTP         0.0706
     20 O2'         0.1373   -0.0577    2.0407 O.3       1 GTP        -0.6294
     21 C1'         1.3733    1.5427    0.6747 C.3       1 GTP         0.3895
     22 N9          0.4520    2.5240    0.1767 N.pl3     1 GTP        -0.4733
     23 C8         -0.6872    2.9292    0.7291 C.ar      1 GTP         0.2958
     24 N7         -1.2991    3.8596   -0.0015 N.pl3     1 GTP        -0.4933
     25 C5         -0.4870    4.0499   -1.0861 C.ar      1 GTP        -0.1494
     26 C6         -0.6427    4.9562   -2.2336 C.ar      1 GTP         0.7954
     27 O6         -1.6219    5.6904   -2.3123 O.2       1 GTP        -0.5729
     28 N1          0.3798    4.9069   -3.1832 N.2       1 GTP        -0.7443
     29 C2          1.4004    4.0885   -3.0226 C.ar      1 GTP         0.8831
     30 N2          2.4275    4.0052   -3.9273 N.pl3     1 GTP        -0.9204
     31 N3          1.5448    3.2359   -1.9390 N.pl3     1 GTP        -0.7173
     32 C4          0.5769    3.2470   -0.9903 C.ar      1 GTP         0.2626
     33 HOG3        7.2911   -0.7578   -2.7781 H         1 GTP         0.4102
     34 H5'         1.2163   -0.0770   -2.0471 H         1 GTP         0.0289
     35 H5''        2.4655   -1.3443   -2.1563 H         1 GTP         0.0289
     36 H4'         3.8044   -0.1397   -0.4040 H         1 GTP         0.2056
     37 H3'         1.6764   -1.7639    0.2728 H         1 GTP         0.1140
     38 HO3'        2.2232   -1.2979    2.3953 H         1 GTP         0.4287
     39 H2'        -0.0011    0.0027    0.0003 H         1 GTP         0.0809
     40 HO2'       -0.1563   -0.9855    2.0596 H         1 GTP         0.4385
     41 H1'         1.7826    1.9024    1.6451 H         1 GTP         0.0794
     42 H8         -1.0786    2.5555    1.6591 H         1 GTP         0.3821
     43 HN21        2.3939    4.5871   -4.7317 H         1 GTP         0.4411
     44 HN22        3.1656    3.3663   -3.7434 H         1 GTP         0.4411
     45 H45         2.3366    2.6138   -1.8319 H         1 GTP         0.4819
     46 H46        -2.1740    4.3186    0.2105 H         1 GTP         0.5182
@<TRIPOS>BOND
     1    1    2 2
     2    1    3 1
     3    1    4 1
     4    1    5 1
     5    4   33 1
     6    5    6 1
     7    6    7 2
     8    6    8 1
     9    6    9 1
    10    9   10 1
    11   10   11 2
    12   10   12 1
    13   10   13 1
    14   13   14 1
    15   14   15 1
    16   14   34 1
    17   14   35 1
    18   15   16 1
    19   15   17 1
    20   15   36 1
    21   16   21 1
    22   17   18 1
    23   17   19 1
    24   17   37 1
    25   18   38 1
    26   19   20 1
    27   19   21 1
    28   19   39 1
    29   20   40 1
    30   21   22 1
    31   21   41 1
    32   22   23 ar
    33   22   32 ar
    34   23   24 ar
    35   23   42 1
    36   24   25 ar
    37   24   46 1
    38   25   26 ar
    39   25   32 ar
    40   26   27 2
    41   26   28 ar
    42   28   29 ar
    43   29   30 1
    44   29   31 ar
    45   30   43 1
    46   30   44 1
    47   31   32 ar
    48   31   45 1
@<TRIPOS>SUBSTRUCTURE
     1 GTP         1 GROUP 0 A     ****
@<TRIPOS>MOLECULE
[[[5-(2-amino-6-oxo-7,8-dihydro-3~{H}-purin-8-ylium-9-yl)-3,4-dihydroxy-tetrahydrofuran-2-yl]methoxy-oxido-phosphoryl]oxy-oxido-phosphoryl] hydrogen phosphate
   46    48     1     0     0
SMALL
USER_CHARGES

@<TRIPOS>ATOM
      1 PG          5.8605   -4.1700   -4.4801 P.3       1 GTP         1.5447
      2 O1G         6.9837   -3.6799   -5.3665 O.co2     1 GTP        -0.8705
      3 O2G         5.8138   -5.6058   -4.0069 O.co2     1 GTP        -0.8705
      4 O3G         4.4389   -3.8149   -5.2003 O.3       1 GTP        -0.7914
      5 O3B         5.7351   -3.1824   -3.1867 O.3       1 GTP        -0.8116
      6 PB          5.5777   -1.5587   -3.1219 P.3       1 GTP         1.6738
      7 O1B         5.3626   -1.1495   -1.6819 O.co2     1 GTP        -0.8763
      8 O2B         6.6552   -0.9242   -3.9728 O.co2     1 GTP        -0.8763
      9 O3A         4.1796   -1.3979   -3.9491 O.3       1 GTP        -0.8005
     10 PA          3.3343   -0.0514   -4.3264 P.3       1 GTP         1.5754
     11 O1A         4.2455    0.9036   -5.0666 O.co2     1 GTP        -0.8771
     12 O2A         1.9982   -0.4643   -4.9043 O.co2     1 GTP        -0.8771
     13 O5'         3.0213    0.5153   -2.8245 O.3       1 GTP        -0.5809
     14 C5'         2.2816   -0.2918   -1.9206 C.3       1 GTP         0.1986
     15 C4'         2.7248    0.0226   -0.4980 C.3       1 GTP         0.0418
     16 O4'         2.4697    1.4219   -0.2462 O.3       1 GTP        -0.3505
     17 C3'         1.9404   -0.7419    0.5596 C.3       1 GTP         0.0909
     18 O3'         2.7418   -0.8086    1.7389 O.3       1 GTP        -0.6187
     19 C2'         0.7477    0.1630    0.7858 C.3       1 GTP         0.0706
     20 O2'         0.1373   -0.0577    2.0407 O.3       1 GTP        -0.6294
     21 C1'         1.3733    1.5427    0.6747 C.3       1 GTP         0.3895
     22 N9          0.4520    2.5240    0.1767 N.pl3     1 GTP        -0.4733
     23 C8         -0.2136    2.5096   -0.9739 C.ar      1 GTP         0.2958
     24 N7         -0.9896    3.5820   -1.1212 N.pl3     1 GTP        -0.4933
     25 C5         -0.7962    4.3186    0.0156 C.ar      1 GTP        -0.1494
     26 C6         -1.3875    5.6031    0.4192 C.ar      1 GTP         0.7954
     27 O6         -2.1869    6.1731   -0.3158 O.2       1 GTP        -0.5729
     28 N1         -0.9745    6.0930    1.6597 N.2       1 GTP        -0.7443
     29 C2         -0.1105    5.4166    2.3900 C.ar      1 GTP         0.8831
     30 N2          0.3241    5.8571    3.6138 N.pl3     1 GTP        -0.9204
     31 N3          0.4444    4.2053    2.0072 N.pl3     1 GTP        -0.7173
     32 C4          0.0746    3.6889    0.8098 C.ar      1 GTP         0.2626
     33 HOG3        3.6083   -4.0710   -4.7456 H         1 GTP         0.4102
     34 H5'         1.2163   -0.0770   -2.0471 H         1 GTP         0.0289
     35 H5''        2.4655   -1.3443   -2.1563 H         1 GTP         0.0289
     36 H4'         3.8044   -0.1397   -0.4040 H         1 GTP         0.2056
     37 H3'         1.6764   -1.7639    0.2728 H         1 GTP         0.1140
     38 HO3'        2.2232   -1.2979    2.3953 H         1 GTP         0.4287
     39 H2'        -0.0011    0.0027    0.0003 H         1 GTP         0.0809
     40 HO2'       -0.1563   -0.9855    2.0596 H         1 GTP         0.4385
     41 H1'         1.7826    1.9024    1.6451 H         1 GTP         0.0794
     42 H8         -0.1415    1.7265   -1.7082 H         1 GTP         0.3821
     43 HN21       -0.0303    6.7197    3.9559 H         1 GTP         0.4411
     44 HN22        0.9765    5.2967    4.1108 H         1 GTP         0.4411
     45 H45         1.1068    3.6990    2.5819 H         1 GTP         0.4819
     46 H46        -1.5877    3.7943   -1.9074 H         1 GTP         0.5182
@<TRIPOS>BOND
     1    1    2 2
     2    1    3 1
     3    1    4 1
     4    1    5 1
     5    4   33 1
     6    5    6 1
     7    6    7 2
     8    6    8 1
     9    6    9 1
    10    9   10 1
    11   10   11 2
    12   10   12 1
    13   10   13 1
    14   13   14 1
    15   14   15 1
    16   14   34 1
    17   14   35 1
    18   15   16 1
    19   15   17 1
    20   15   36 1
    21   16   21 1
    22   17   18 1
    23   17   19 1
    24   17   37 1
    25   18   38 1
    26   19   20 1
    27   19   21 1
    28   19   39 1
    29   20   40 1
    30   21   22 1
    31   21   41 1
    32   22   23 ar
    33   22   32 ar
    34   23   24 ar
    35   23   42 1
    36   24   25 ar
    37   24   46 1
    38   25   26 ar
    39   25   32 ar
    40   26   27 2
    41   26   28 ar
    42   28   29 ar
    43   29   30 1
    44   29   31 ar
    45   30   43 1
    46   30   44 1
    47   31   32 ar
    48   31   45 1
@<TRIPOS>SUBSTRUCTURE
     1 GTP         1 GROUP 0 A     ****
@<TRIPOS>MOLECULE
[[[5-(2-amino-6-oxo-7,8-dihydro-3~{H}-purin-8-ylium-9-yl)-3,4-dihydroxy-tetrahydrofuran-2-yl]methoxy-oxido-phosphoryl]oxy-oxido-phosphoryl] hydrogen phosphate
   46    48     1     0     0
SMALL
USER_CHARGES

@<TRIPOS>ATOM
      1 PG          5.5730    0.0407   -4.2341 P.3       1 GTP         1.5447
      2 O1G         6.5481   -1.1028   -4.4050 O.co2     1 GTP        -0.8705
      3 O2G         5.6153    1.2420   -5.1522 O.co2     1 GTP        -0.8705
      4 O3G         5.6542    0.5652   -2.6900 O.3       1 GTP        -0.7914
      5 O3B         4.0538   -0.5554   -4.2126 O.3       1 GTP        -0.8116
      6 PB          3.1956   -1.2747   -5.4007 P.3       1 GTP         1.6738
      7 O1B         2.9361   -0.2614   -6.4930 O.co2     1 GTP        -0.8763
      8 O2B         3.8064   -2.6251   -5.7022 O.co2     1 GTP        -0.8763
      9 O3A         1.8113   -1.5642   -4.5853 O.3       1 GTP        -0.8005
     10 PA          1.5544   -2.4558   -3.2404 P.3       1 GTP         1.5754
     11 O1A         0.1056   -2.3088   -2.8286 O.co2     1 GTP        -0.8771
     12 O2A         2.1769   -3.8208   -3.4380 O.co2     1 GTP        -0.8771
     13 O5'         2.5245   -1.6648   -2.1878 O.3       1 GTP        -0.5809
     14 C5'         2.2816   -0.2918   -1.9206 C.3       1 GTP         0.1986
     15 C4'         2.7248    0.0226   -0.4980 C.3       1 GTP         0.0418
     16 O4'         2.4697    1.4219   -0.2462 O.3       1 GTP        -0.3505
     17 C3'         1.9404   -0.7419    0.5596 C.3       1 GTP         0.0909
     18 O3'         2.7418   -0.8086    1.7389 O.3       1 GTP        -0.6187
     19 C2'         0.7477    0.1630    0.7858 C.3       1 GTP         0.0706
     20 O2'         0.1373   -0.0577    2.0407 O.3       1 GTP        -0.6294
     21 C1'         1.3733    1.5427    0.6747 C.3       1 GTP         0.3895
     22 N9          0.4520    2.5240    0.1767 N.pl3     1 GTP        -0.4733
     23 C8          0.2012    2.8401   -1.0899 C.ar      1 GTP         0.2958
     24 N7         -0.7168    3.7990   -1.1981 N.pl3     1 GTP        -0.4933
     25 C5         -1.0645    4.1043    0.0896 C.ar      1 GTP        -0.1494
     26 C6         -2.0336    5.0870    0.5973 C.ar      1 GTP         0.7954
     27 O6         -2.6730    5.7839   -0.1834 O.2       1 GTP        -0.5729
     28 N1         -2.1539    5.1517    1.9868 N.2       1 GTP        -0.7443
     29 C2         -1.4288    4.3650    2.7566 C.ar      1 GTP         0.8831
     30 N2         -1.5126    4.3922    4.1250 N.pl3     1 GTP        -0.9204
     31 N3         -0.5167    3.4388    2.2748 N.pl3     1 GTP        -0.7173
     32 C4         -0.3638    3.3392    0.9318 C.ar      1 GTP         0.2626
     33 HOG3        5.4431   -0.0672   -1.9704 H         1 GTP         0.4102
     34 H5'         2.8432    0.3119   -2.6398 H         1 GTP         0.0289
     35 H5''        1.2128   -0.0927   -2.0428 H         1 GTP         0.0289
     36 H4'         3.8044   -0.1397   -0.4040 H         1 GTP         0.2056
     37 H3'         1.6764   -1.7639    0.2728 H         1 GTP         0.1140
     38 HO3'        3.5554   -1.2733    1.4914 H         1 GTP         0.4287
     39 H2'        -0.0011    0.0027    0.0003 H         1 GTP         0.0809
     40 HO2'       -0.1563   -0.9855    2.0596 H         1 GTP         0.4385
     41 H1'         1.7826    1.9024    1.6451 H         1 GTP         0.0794
     42 H8          0.6787    2.3803   -1.9373 H         1 GTP         0.3821
     43 HN21       -2.1462    5.0320    4.5446 H         1 GTP         0.4411
     44 HN22       -0.9365    3.7712    4.6440 H         1 GTP         0.4411
     45 H45         0.0318    2.8419    2.8816 H         1 GTP         0.4819
     46 H46        -1.0718    4.2049   -2.0526 H         1 GTP         0.5182
@<TRIPOS>BOND
     1    1    2 2
     2    1    3 1
     3    1    4 1
     4    1    5 1
     5    4   33 1
     6    5    6 1
     7    6    7 2
     8    6    8 1
     9    6    9 1
    10    9   10 1
    11   10   11 2
    12   10   12 1
    13   10   13 1
    14   13   14 1
    15   14   15 1
    16   14   34 1
    17   14   35 1
    18   15   16 1
    19   15   17 1
    20   15   36 1
    21   16   21 1
    22   17   18 1
    23   17   19 1
    24   17   37 1
    25   18   38 1
    26   19   20 1
    27   19   21 1
    28   19   39 1
    29   20   40 1
    30   21   22 1
    31   21   41 1
    32   22   23 ar
    33   22   32 ar
    34   23   24 ar
    35   23   42 1
    36   24   25 ar
    37   24   46 1
    38   25   26 ar
    39   25   32 ar
    40   26   27 2
    41   26   28 ar
    42   28   29 ar
    43   29   30 1
    44   29   31 ar
    45   30   43 1
    46   30   44 1
    47   31   32 ar
    48   31   45 1
@<TRIPOS>SUBSTRUCTURE
     1 GTP         1 GROUP 0 A     ****
@<TRIPOS>MOLECULE
[[[5-(2-amino-6-oxo-7,8-dihydro-3~{H}-purin-8-ylium-9-yl)-3,4-dihydroxy-tetrahydrofuran-2-yl]methoxy-oxido-phosphoryl]oxy-oxido-phosphoryl] hydrogen phosphate
   46    48     1     0     0
SMALL
USER_CHARGES

@<TRIPOS>ATOM
      1 PG          8.1442   -0.3342   -3.9327 P.3       1 GTP         1.5447
      2 O1G         8.6127    0.3922   -5.1738 O.co2     1 GTP        -0.8705
      3 O2G         8.3986    0.2366   -2.5553 O.co2     1 GTP        -0.8705
      4 O3G         8.7220   -1.8608   -3.9761 O.3       1 GTP        -0.7914
      5 O3B         6.5536   -0.6683   -4.0814 O.3       1 GTP        -0.8116
      6 PB          5.5777   -1.5587   -3.1219 P.3       1 GTP         1.6738
      7 O1B         6.0319   -3.0004   -3.1728 O.co2     1 GTP        -0.8763
      8 O2B         5.3845   -0.8353   -1.8078 O.co2     1 GTP        -0.8763
      9 O3A         4.1796   -1.3979   -3.9491 O.3       1 GTP        -0.8005
     10 PA          3.3343   -0.0514   -4.3264 P.3       1 GTP         1.5754
     11 O1A         4.2455    0.9036   -5.0666 O.co2     1 GTP        -0.8771
     12 O2A         1.9982   -0.4643   -4.9043 O.co2     1 GTP        -0.8771
     13 O5'         3.0213    0.5153   -2.8245 O.3       1 GTP        -0.5809
     14 C5'         2.2816   -0.2918   -1.9206 C.3       1 GTP         0.1986
     15 C4'         2.7248    0.0226   -0.4980 C.3       1 GTP         0.0418
     16 O4'         2.4697    1.4219   -0.2462 O.3       1 GTP        -0.3505
     17 C3'         1.9404   -0.7419    0.5596 C.3       1 GTP         0.0909
     18 O3'         2.7418   -0.8086    1.7389 O.3       1 GTP        -0.6187
     19 C2'         0.7477    0.1630    0.7858 C.3       1 GTP         0.0706
     20 O2'         0.1373   -0.0577    2.0407 O.3       1 GTP        -0.6294
     21 C1'         1.3733    1.5427    0.6747 C.3       1 GTP         0.3895
     22 N9          0.4520    2.5240    0.1767 N.pl3     1 GTP        -0.4733
     23 C8         -0.2136    2.5096   -0.9739 C.ar      1 GTP         0.2958
     24 N7         -0.9896    3.5820   -1.1212 N.pl3     1 GTP        -0.4933
     25 C5         -0.7962    4.3186    0.0156 C.ar      1 GTP        -0.1494
     26 C6         -1.3875    5.6031    0.4192 C.ar      1 GTP         0.7954
     27 O6         -2.1869    6.1731   -0.3158 O.2       1 GTP        -0.5729
     28 N1         -0.9745    6.0930    1.6597 N.2       1 GTP        -0.7443
     29 C2         -0.1105    5.4166    2.3900 C.ar      1 GTP         0.8831
     30 N2          0.3241    5.8571    3.6138 N.pl3     1 GTP        -0.9204
     31 N3          0.4444    4.2053    2.0072 N.pl3     1 GTP        -0.7173
     32 C4          0.0746    3.6889    0.8098 C.ar      1 GTP         0.2626
     33 HOG3        8.5031   -2.4641   -3.2342 H         1 GTP         0.4102
     34 H5'         1.2163   -0.0770   -2.0471 H         1 GTP         0.0289
     35 H5''        2.4655   -1.3443   -2.1563 H         1 GTP         0.0289
     36 H4'         3.8044   -0.1397   -0.4040 H         1 GTP         0.2056
     37 H3'         1.6764   -1.7639    0.2728 H         1 GTP         0.1140
     38 HO3'        2.2232   -1.2979    2.3953 H         1 GTP         0.4287
     39 H2'        -0.0011    0.0027    0.0003 H         1 GTP         0.0809
     40 HO2'       -0.6141    0.5574    2.1082 H         1 GTP         0.4385
     41 H1'         1.7826    1.9024    1.6451 H         1 GTP         0.0794
     42 H8         -0.1415    1.7265   -1.7082 H         1 GTP         0.3821
     43 HN21       -0.0303    6.7197    3.9559 H         1 GTP         0.4411
     44 HN22        0.9765    5.2967    4.1108 H         1 GTP         0.4411
     45 H45         1.1068    3.6990    2.5819 H         1 GTP         0.4819
     46 H46        -1.5877    3.7943   -1.9074 H         1 GTP         0.5182
@<TRIPOS>BOND
     1    1    2 2
     2    1    3 1
     3    1    4 1
     4    1    5 1
     5    4   33 1
     6    5    6 1
     7    6    7 2
     8    6    8 1
     9    6    9 1
    10    9   10 1
    11   10   11 2
    12   10   12 1
    13   10   13 1
    14   13   14 1
    15   14   15 1
    16   14   34 1
    17   14   35 1
    18   15   16 1
    19   15   17 1
    20   15   36 1
    21   16   21 1
    22   17   18 1
    23   17   19 1
    24   17   37 1
    25   18   38 1
    26   19   20 1
    27   19   21 1
    28   19   39 1
    29   20   40 1
    30   21   22 1
    31   21   41 1
    32   22   23 ar
    33   22   32 ar
    34   23   24 ar
    35   23   42 1
    36   24   25 ar
    37   24   46 1
    38   25   26 ar
    39   25   32 ar
    40   26   27 2
    41   26   28 ar
    42   28   29 ar
    43   29   30 1
    44   29   31 ar
    45   30   43 1
    46   30   44 1
    47   31   32 ar
    48   31   45 1
@<TRIPOS>SUBSTRUCTURE
     1 GTP         1 GROUP 0 A     ****
@<TRIPOS>MOLECULE
[[[5-(2-amino-6-oxo-7,8-dihydro-3~{H}-purin-8-ylium-9-yl)-3,4-dihydroxy-tetrahydrofuran-2-yl]methoxy-oxido-phosphoryl]oxy-oxido-phosphoryl] hydrogen phosphate
   46    48     1     0     0
SMALL
USER_CHARGES

@<TRIPOS>ATOM
      1 PG          8.2595   -1.9685   -0.2212 P.3       1 GTP         1.5447
      2 O1G         7.8067   -1.4645    1.1310 O.co2     1 GTP        -0.8705
      3 O2G         8.8618   -3.3474   -0.3749 O.co2     1 GTP        -0.8705
      4 O3G         9.2916   -0.8776   -0.8622 O.3       1 GTP        -0.7914
      5 O3B         7.0343   -1.8046   -1.2868 O.3       1 GTP        -0.8116
      6 PB          5.5913   -2.5661   -1.3467 P.3       1 GTP         1.6738
      7 O1B         5.8286   -4.0333   -1.6263 O.co2     1 GTP        -0.8763
      8 O2B         4.7437   -2.1094   -0.1802 O.co2     1 GTP        -0.8763
      9 O3A         4.9726   -1.8505   -2.6771 O.3       1 GTP        -0.8005
     10 PA          3.5300   -2.0730   -3.4114 P.3       1 GTP         1.5754
     11 O1A         3.4034   -1.0798   -4.5463 O.co2     1 GTP        -0.8771
     12 O2A         3.3275   -3.5547   -3.6423 O.co2     1 GTP        -0.8771
     13 O5'         2.5245   -1.6648   -2.1878 O.3       1 GTP        -0.5809
     14 C5'         2.2816   -0.2918   -1.9206 C.3       1 GTP         0.1986
     15 C4'         2.7248    0.0226   -0.4980 C.3       1 GTP         0.0418
     16 O4'         2.4697    1.4219   -0.2462 O.3       1 GTP        -0.3505
     17 C3'         1.9404   -0.7419    0.5596 C.3       1 GTP         0.0909
     18 O3'         2.7418   -0.8086    1.7389 O.3       1 GTP        -0.6187
     19 C2'         0.7477    0.1630    0.7858 C.3       1 GTP         0.0706
     20 O2'         0.1373   -0.0577    2.0407 O.3       1 GTP        -0.6294
     21 C1'         1.3733    1.5427    0.6747 C.3       1 GTP         0.3895
     22 N9          0.4520    2.5240    0.1767 N.pl3     1 GTP        -0.4733
     23 C8          0.2012    2.8401   -1.0899 C.ar      1 GTP         0.2958
     24 N7         -0.7168    3.7990   -1.1981 N.pl3     1 GTP        -0.4933
     25 C5         -1.0645    4.1043    0.0896 C.ar      1 GTP        -0.1494
     26 C6         -2.0336    5.0870    0.5973 C.ar      1 GTP         0.7954
     27 O6         -2.6730    5.7839   -0.1834 O.2       1 GTP        -0.5729
     28 N1         -2.1539    5.1517    1.9868 N.2       1 GTP        -0.7443
     29 C2         -1.4288    4.3650    2.7566 C.ar      1 GTP         0.8831
     30 N2         -1.5126    4.3922    4.1250 N.pl3     1 GTP        -0.9204
     31 N3         -0.5167    3.4388    2.2748 N.pl3     1 GTP        -0.7173
     32 C4         -0.3638    3.3392    0.9318 C.ar      1 GTP         0.2626
     33 HOG3        9.6765   -1.0620   -1.7455 H         1 GTP         0.4102
     34 H5'         2.8432    0.3119   -2.6398 H         1 GTP         0.0289
     35 H5''        1.2128   -0.0927   -2.0428 H         1 GTP         0.0289
     36 H4'         3.8044   -0.1397   -0.4040 H         1 GTP         0.2056
     37 H3'         1.6764   -1.7639    0.2728 H         1 GTP         0.1140
     38 HO3'        2.2232   -1.2979    2.3953 H         1 GTP         0.4287
     39 H2'        -0.0011    0.0027    0.0003 H         1 GTP         0.0809
     40 HO2'       -0.1563   -0.9855    2.0596 H         1 GTP         0.4385
     41 H1'         1.7826    1.9024    1.6451 H         1 GTP         0.0794
     42 H8          0.6787    2.3803   -1.9373 H         1 GTP         0.3821
     43 HN21       -2.1462    5.0320    4.5446 H         1 GTP         0.4411
     44 HN22       -0.9365    3.7712    4.6440 H         1 GTP         0.4411
     45 H45         0.0318    2.8419    2.8816 H         1 GTP         0.4819
     46 H46        -1.0718    4.2049   -2.0526 H         1 GTP         0.5182
@<TRIPOS>BOND
     1    1    2 2
     2    1    3 1
     3    1    4 1
     4    1    5 1
     5    4   33 1
     6    5    6 1
     7    6    7 2
     8    6    8 1
     9    6    9 1
    10    9   10 1
    11   10   11 2
    12   10   12 1
    13   10   13 1
    14   13   14 1
    15   14   15 1
    16   14   34 1
    17   14   35 1
    18   15   16 1
    19   15   17 1
    20   15   36 1
    21   16   21 1
    22   17   18 1
    23   17   19 1
    24   17   37 1
    25   18   38 1
    26   19   20 1
    27   19   21 1
    28   19   39 1
    29   20   40 1
    30   21   22 1
    31   21   41 1
    32   22   23 ar
    33   22   32 ar
    34   23   24 ar
    35   23   42 1
    36   24   25 ar
    37   24   46 1
    38   25   26 ar
    39   25   32 ar
    40   26   27 2
    41   26   28 ar
    42   28   29 ar
    43   29   30 1
    44   29   31 ar
    45   30   43 1
    46   30   44 1
    47   31   32 ar
    48   31   45 1
@<TRIPOS>SUBSTRUCTURE
     1 GTP         1 GROUP 0 A     ****
@<TRIPOS>MOLECULE
[[[5-(2-amino-6-oxo-7,8-dihydro-3~{H}-purin-8-ylium-9-yl)-3,4-dihydroxy-tetrahydrofuran-2-yl]methoxy-oxido-phosphoryl]oxy-oxido-phosphoryl] hydrogen phosphate
   46    48     1     0     0
SMALL
USER_CHARGES

@<TRIPOS>ATOM
      1 PG         -1.3461   -3.9705    0.3178 P.3       1 GTP         1.5447
      2 O1G        -2.2788   -3.4504    1.3888 O.co2     1 GTP        -0.8705
      3 O2G        -1.0479   -5.4485    0.1976 O.co2     1 GTP        -0.8705
      4 O3G         0.0691   -3.1633    0.4258 O.3       1 GTP        -0.7914
      5 O3B        -1.8392   -3.4105   -1.1338 O.3       1 GTP        -0.8116
      6 PB         -1.1267   -3.5300   -2.5979 P.3       1 GTP         1.6738
      7 O1B        -0.8477   -4.9888   -2.8837 O.co2     1 GTP        -0.8763
      8 O2B        -1.8744   -2.6591   -3.5828 O.co2     1 GTP        -0.8763
      9 O3A         0.2753   -2.7606   -2.2705 O.3       1 GTP        -0.8005
     10 PA          1.5544   -2.4558   -3.2404 P.3       1 GTP         1.5754
     11 O1A         2.1833   -3.7718   -3.6442 O.co2     1 GTP        -0.8771
     12 O2A         1.1428   -1.4344   -4.2782 O.co2     1 GTP        -0.8771
     13 O5'         2.5245   -1.6648   -2.1878 O.3       1 GTP        -0.5809
     14 C5'         2.2816   -0.2918   -1.9206 C.3       1 GTP         0.1986
     15 C4'         2.7248    0.0226   -0.4980 C.3       1 GTP         0.0418
     16 O4'         2.4697    1.4219   -0.2462 O.3       1 GTP        -0.3505
     17 C3'         1.9404   -0.7419    0.5596 C.3       1 GTP         0.0909
     18 O3'         2.7418   -0.8086    1.7389 O.3       1 GTP        -0.6187
     19 C2'         0.7477    0.1630    0.7858 C.3       1 GTP         0.0706
     20 O2'         0.1373   -0.0577    2.0407 O.3       1 GTP        -0.6294
     21 C1'         1.3733    1.5427    0.6747 C.3       1 GTP         0.3895
     22 N9          0.4520    2.5240    0.1767 N.pl3     1 GTP        -0.4733
     23 C8          0.2012    2.8401   -1.0899 C.ar      1 GTP         0.2958
     24 N7         -0.7168    3.7990   -1.1981 N.pl3     1 GTP        -0.4933
     25 C5         -1.0645    4.1043    0.0896 C.ar      1 GTP        -0.1494
     26 C6         -2.0336    5.0870    0.5973 C.ar      1 GTP         0.7954
     27 O6         -2.6730    5.7839   -0.1834 O.2       1 GTP        -0.5729
     28 N1         -2.1539    5.1517    1.9868 N.2       1 GTP        -0.7443
     29 C2         -1.4288    4.3650    2.7566 C.ar      1 GTP         0.8831
     30 N2         -1.5126    4.3922    4.1250 N.pl3     1 GTP        -0.9204
     31 N3         -0.5167    3.4388    2.2748 N.pl3     1 GTP        -0.7173
     32 C4         -0.3638    3.3392    0.9318 C.ar      1 GTP         0.2626
     33 HOG3        0.7844   -3.3882   -0.2067 H         1 GTP         0.4102
     34 H5'         2.8432    0.3119   -2.6398 H         1 GTP         0.0289
     35 H5''        1.2128   -0.0927   -2.0428 H         1 GTP         0.0289
     36 H4'         3.8044   -0.1397   -0.4040 H         1 GTP         0.2056
     37 H3'         1.6764   -1.7639    0.2728 H         1 GTP         0.1140
     38 HO3'        2.2232   -1.2979    2.3953 H         1 GTP         0.4287
     39 H2'        -0.0011    0.0027    0.0003 H         1 GTP         0.0809
     40 HO2'       -0.1563   -0.9855    2.0596 H         1 GTP         0.4385
     41 H1'         1.7826    1.9024    1.6451 H         1 GTP         0.0794
     42 H8          0.6787    2.3803   -1.9373 H         1 GTP         0.3821
     43 HN21       -2.1462    5.0320    4.5446 H         1 GTP         0.4411
     44 HN22       -0.9365    3.7712    4.6440 H         1 GTP         0.4411
     45 H45         0.0318    2.8419    2.8816 H         1 GTP         0.4819
     46 H46        -1.0718    4.2049   -2.0526 H         1 GTP         0.5182
@<TRIPOS>BOND
     1    1    2 2
     2    1    3 1
     3    1    4 1
     4    1    5 1
     5    4   33 1
     6    5    6 1
     7    6    7 2
     8    6    8 1
     9    6    9 1
    10    9   10 1
    11   10   11 2
    12   10   12 1
    13   10   13 1
    14   13   14 1
    15   14   15 1
    16   14   34 1
    17   14   35 1
    18   15   16 1
    19   15   17 1
    20   15   36 1
    21   16   21 1
    22   17   18 1
    23   17   19 1
    24   17   37 1
    25   18   38 1
    26   19   20 1
    27   19   21 1
    28   19   39 1
    29   20   40 1
    30   21   22 1
    31   21   41 1
    32   22   23 ar
    33   22   32 ar
    34   23   24 ar
    35   23   42 1
    36   24   25 ar
    37   24   46 1
    38   25   26 ar
    39   25   32 ar
    40   26   27 2
    41   26   28 ar
    42   28   29 ar
    43   29   30 1
    44   29   31 ar
    45   30   43 1
    46   30   44 1
    47   31   32 ar
    48   31   45 1
@<TRIPOS>SUBSTRUCTURE
     1 GTP         1 GROUP 0 A     ****
@<TRIPOS>MOLECULE
[[[5-(2-amino-6-oxo-7,8-dihydro-3~{H}-purin-8-ylium-9-yl)-3,4-dihydroxy-tetrahydrofuran-2-yl]methoxy-oxido-phosphoryl]oxy-oxido-phosphoryl] hydrogen phosphate
   46    48     1     0     0
SMALL
USER_CHARGES

@<TRIPOS>ATOM
      1 PG         -1.2314   -0.4958   -4.9899 P.3       1 GTP         1.5447
      2 O1G        -0.6036   -0.3810   -3.6187 O.co2     1 GTP        -0.8705
      3 O2G        -2.4769    0.2866   -5.3424 O.co2     1 GTP        -0.8705
      4 O3G        -1.5043   -2.0744   -5.3049 O.3       1 GTP        -0.7914
      5 O3B        -0.0905   -0.2121   -6.1220 O.3       1 GTP        -0.8116
      6 PB          1.3751   -0.9023   -6.3258 P.3       1 GTP         1.6738
      7 O1B         1.1980   -2.4023   -6.4035 O.co2     1 GTP        -0.8763
      8 O2B         2.1366   -0.1389   -7.3864 O.co2     1 GTP        -0.8763
      9 O3A         2.0523   -0.5065   -4.8941 O.3       1 GTP        -0.8005
     10 PA          2.3336    0.9636   -4.2390 P.3       1 GTP         1.5754
     11 O1A         3.3392    1.6960   -5.1008 O.co2     1 GTP        -0.8771
     12 O2A         1.0067    1.5946   -3.8772 O.co2     1 GTP        -0.8771
     13 O5'         3.0213    0.5153   -2.8245 O.3       1 GTP        -0.5809
     14 C5'         2.2816   -0.2918   -1.9206 C.3       1 GTP         0.1986
     15 C4'         2.7248    0.0226   -0.4980 C.3       1 GTP         0.0418
     16 O4'         2.4697    1.4219   -0.2462 O.3       1 GTP        -0.3505
     17 C3'         1.9404   -0.7419    0.5596 C.3       1 GTP         0.0909
     18 O3'         2.7418   -0.8086    1.7389 O.3       1 GTP        -0.6187
     19 C2'         0.7477    0.1630    0.7858 C.3       1 GTP         0.0706
     20 O2'         0.1373   -0.0577    2.0407 O.3       1 GTP        -0.6294
     21 C1'         1.3733    1.5427    0.6747 C.3       1 GTP         0.3895
     22 N9          0.4520    2.5240    0.1767 N.pl3     1 GTP        -0.4733
     23 C8          0.5427    3.2356   -0.9425 C.ar      1 GTP         0.2958
     24 N7         -0.4919    4.0590   -1.1018 N.pl3     1 GTP        -0.4933
     25 C5         -1.2850    3.8484   -0.0069 C.ar      1 GTP        -0.1494
     26 C6         -2.5644    4.4707    0.3650 C.ar      1 GTP         0.7954
     27 O6         -3.0718    5.3200   -0.3599 O.2       1 GTP        -0.5729
     28 N1         -3.1239    4.0269    1.5647 N.2       1 GTP        -0.7443
     29 C2         -2.5133    3.1079    2.2858 C.ar      1 GTP         0.8831
     30 N2         -3.0239    2.6409    3.4697 N.pl3     1 GTP        -0.9204
     31 N3         -1.3076    2.5223    1.9320 N.pl3     1 GTP        -0.7173
     32 C4         -0.7246    2.9211    0.7753 C.ar      1 GTP         0.2626
     33 HOG3       -1.9118   -2.3155   -6.1640 H         1 GTP         0.4102
     34 H5'         1.2163   -0.0770   -2.0471 H         1 GTP         0.0289
     35 H5''        2.4655   -1.3443   -2.1563 H         1 GTP         0.0289
     36 H4'         3.8044   -0.1397   -0.4040 H         1 GTP         0.2056
     37 H3'         1.6764   -1.7639    0.2728 H         1 GTP         0.1140
     38 HO3'        2.2232   -1.2979    2.3953 H         1 GTP         0.4287
     39 H2'        -0.0011    0.0027    0.0003 H         1 GTP         0.0809
     40 HO2'       -0.1563   -0.9855    2.0596 H         1 GTP         0.4385
     41 H1'         1.7826    1.9024    1.6451 H         1 GTP         0.0794
     42 H8          1.3539    3.1622   -1.6455 H         1 GTP         0.3821
     43 HN21       -3.8871    3.0143    3.7893 H         1 GTP         0.4411
     44 HN22       -2.5108    1.9472    3.9621 H         1 GTP         0.4411
     45 H45        -0.8530    1.8168    2.4986 H         1 GTP         0.4819
     46 H46        -0.6466    4.6966   -1.8702 H         1 GTP         0.5182
@<TRIPOS>BOND
     1    1    2 2
     2    1    3 1
     3    1    4 1
     4    1    5 1
     5    4   33 1
     6    5    6 1
     7    6    7 2
     8    6    8 1
     9    6    9 1
    10    9   10 1
    11   10   11 2
    12   10   12 1
    13   10   13 1
    14   13   14 1
    15   14   15 1
    16   14   34 1
    17   14   35 1
    18   15   16 1
    19   15   17 1
    20   15   36 1
    21   16   21 1
    22   17   18 1
    23   17   19 1
    24   17   37 1
    25   18   38 1
    26   19   20 1
    27   19   21 1
    28   19   39 1
    29   20   40 1
    30   21   22 1
    31   21   41 1
    32   22   23 ar
    33   22   32 ar
    34   23   24 ar
    35   23   42 1
    36   24   25 ar
    37   24   46 1
    38   25   26 ar
    39   25   32 ar
    40   26   27 2
    41   26   28 ar
    42   28   29 ar
    43   29   30 1
    44   29   31 ar
    45   30   43 1
    46   30   44 1
    47   31   32 ar
    48   31   45 1
@<TRIPOS>SUBSTRUCTURE
     1 GTP         1 GROUP 0 A     ****
@<TRIPOS>MOLECULE
[[[5-(2-amino-6-oxo-7,8-dihydro-3~{H}-purin-8-ylium-9-yl)-3,4-dihydroxy-tetrahydrofuran-2-yl]methoxy-oxido-phosphoryl]oxy-oxido-phosphoryl] hydrogen phosphate
   46    48     1     0     0
SMALL
USER_CHARGES

@<TRIPOS>ATOM
      1 PG         -0.4942    3.9678   -4.3400 P.3       1 GTP         1.5447
      2 O1G        -1.8694    4.5188   -4.0356 O.co2     1 GTP        -0.8705
      3 O2G         0.5267    3.7749   -3.2408 O.co2     1 GTP        -0.8705
      4 O3G         0.1786    4.8748   -5.5192 O.3       1 GTP        -0.7914
      5 O3B        -0.6534    2.5688   -5.1655 O.3       1 GTP        -0.8116
      6 PB          0.4851    1.6362   -5.8724 P.3       1 GTP         1.6738
      7 O1B        -0.1721    0.3747   -6.3864 O.co2     1 GTP        -0.8763
      8 O2B         1.3461    2.5010   -6.7660 O.co2     1 GTP        -0.8763
      9 O3A         1.3881    1.2844   -4.5588 O.3       1 GTP        -0.8005
     10 PA          2.7407    0.3769   -4.4297 P.3       1 GTP         1.5754
     11 O1A         2.4007   -1.0556   -4.7799 O.co2     1 GTP        -0.8771
     12 O2A         3.8776    1.1015   -5.1169 O.co2     1 GTP        -0.8771
     13 O5'         3.0213    0.5153   -2.8245 O.3       1 GTP        -0.5809
     14 C5'         2.2816   -0.2918   -1.9206 C.3       1 GTP         0.1986
     15 C4'         2.7248    0.0226   -0.4980 C.3       1 GTP         0.0418
     16 O4'         2.4697    1.4219   -0.2462 O.3       1 GTP        -0.3505
     17 C3'         1.9404   -0.7419    0.5596 C.3       1 GTP         0.0909
     18 O3'         2.7418   -0.8086    1.7389 O.3       1 GTP        -0.6187
     19 C2'         0.7477    0.1630    0.7858 C.3       1 GTP         0.0706
     20 O2'         0.1373   -0.0577    2.0407 O.3       1 GTP        -0.6294
     21 C1'         1.3733    1.5427    0.6747 C.3       1 GTP         0.3895
     22 N9          0.4520    2.5240    0.1767 N.pl3     1 GTP        -0.4733
     23 C8         -0.2136    2.5096   -0.9739 C.ar      1 GTP         0.2958
     24 N7         -0.9896    3.5820   -1.1212 N.pl3     1 GTP        -0.4933
     25 C5         -0.7962    4.3186    0.0156 C.ar      1 GTP        -0.1494
     26 C6         -1.3875    5.6031    0.4192 C.ar      1 GTP         0.7954
     27 O6         -2.1869    6.1731   -0.3158 O.2       1 GTP        -0.5729
     28 N1         -0.9745    6.0930    1.6597 N.2       1 GTP        -0.7443
     29 C2         -0.1105    5.4166    2.3900 C.ar      1 GTP         0.8831
     30 N2          0.3241    5.8571    3.6138 N.pl3     1 GTP        -0.9204
     31 N3          0.4444    4.2053    2.0072 N.pl3     1 GTP        -0.7173
     32 C4          0.0746    3.6889    0.8098 C.ar      1 GTP         0.2626
     33 HOG3       -0.2785    4.9282   -6.3855 H         1 GTP         0.4102
     34 H5'         1.2163   -0.0770   -2.0471 H         1 GTP         0.0289
     35 H5''        2.4655   -1.3443   -2.1563 H         1 GTP         0.0289
     36 H4'         3.8044   -0.1397   -0.4040 H         1 GTP         0.2056
     37 H3'         1.6764   -1.7639    0.2728 H         1 GTP         0.1140
     38 HO3'        2.2232   -1.2979    2.3953 H         1 GTP         0.4287
     39 H2'        -0.0011    0.0027    0.0003 H         1 GTP         0.0809
     40 HO2'       -0.1563   -0.9855    2.0596 H         1 GTP         0.4385
     41 H1'         1.7826    1.9024    1.6451 H         1 GTP         0.0794
     42 H8         -0.1415    1.7265   -1.7082 H         1 GTP         0.3821
     43 HN21       -0.0303    6.7197    3.9559 H         1 GTP         0.4411
     44 HN22        0.9765    5.2967    4.1108 H         1 GTP         0.4411
     45 H45         1.1068    3.6990    2.5819 H         1 GTP         0.4819
     46 H46        -1.5877    3.7943   -1.9074 H         1 GTP         0.5182
@<TRIPOS>BOND
     1    1    2 2
     2    1    3 1
     3    1    4 1
     4    1    5 1
     5    4   33 1
     6    5    6 1
     7    6    7 2
     8    6    8 1
     9    6    9 1
    10    9   10 1
    11   10   11 2
    12   10   12 1
    13   10   13 1
    14   13   14 1
    15   14   15 1
    16   14   34 1
    17   14   35 1
    18   15   16 1
    19   15   17 1
    20   15   36 1
    21   16   21 1
    22   17   18 1
    23   17   19 1
    24   17   37 1
    25   18   38 1
    26   19   20 1
    27   19   21 1
    28   19   39 1
    29   20   40 1
    30   21   22 1
    31   21   41 1
    32   22   23 ar
    33   22   32 ar
    34   23   24 ar
    35   23   42 1
    36   24   25 ar
    37   24   46 1
    38   25   26 ar
    39   25   32 ar
    40   26   27 2
    41   26   28 ar
    42   28   29 ar
    43   29   30 1
    44   29   31 ar
    45   30   43 1
    46   30   44 1
    47   31   32 ar
    48   31   45 1
@<TRIPOS>SUBSTRUCTURE
     1 GTP         1 GROUP 0 A     ****
@<TRIPOS>MOLECULE
[[[5-(2-amino-6-oxo-7,8-dihydro-3~{H}-purin-8-ylium-9-yl)-3,4-dihydroxy-tetrahydrofuran-2-yl]methoxy-oxido-phosphoryl]oxy-oxido-phosphoryl] hydrogen phosphate
   46    48     1     0     0
SMALL
USER_CHARGES

@<TRIPOS>ATOM
      1 PG          2.5955   -4.6265   -3.6281 P.3       1 GTP         1.5447
      2 O1G         3.3848   -5.8911   -3.3727 O.co2     1 GTP        -0.8705
      3 O2G         2.4414   -3.5756   -2.5513 O.co2     1 GTP        -0.8705
      4 O3G         1.1100   -5.0416   -4.1638 O.3       1 GTP        -0.7914
      5 O3B         3.1571   -3.9148   -4.9853 O.3       1 GTP        -0.8116
      6 PB          2.5837   -2.6233   -5.8030 P.3       1 GTP         1.6738
      7 O1B         3.5508   -2.2857   -6.9159 O.co2     1 GTP        -0.8763
      8 O2B         1.1085   -2.8234   -6.0696 O.co2     1 GTP        -0.8763
      9 O3A         2.6932   -1.4980   -4.6255 O.3       1 GTP        -0.8005
     10 PA          4.0010   -0.9663   -3.8028 P.3       1 GTP         1.5754
     11 O1A         4.5594   -2.1105   -2.9847 O.co2     1 GTP        -0.8771
     12 O2A         4.8809   -0.1785   -4.7487 O.co2     1 GTP        -0.8771
     13 O5'         3.2903    0.1346   -2.8241 O.3       1 GTP        -0.5809
     14 C5'         2.2816   -0.2918   -1.9206 C.3       1 GTP         0.1986
     15 C4'         2.7248    0.0226   -0.4980 C.3       1 GTP         0.0418
     16 O4'         2.4697    1.4219   -0.2462 O.3       1 GTP        -0.3505
     17 C3'         1.9404   -0.7419    0.5596 C.3       1 GTP         0.0909
     18 O3'         2.7418   -0.8086    1.7389 O.3       1 GTP        -0.6187
     19 C2'         0.7477    0.1630    0.7858 C.3       1 GTP         0.0706
     20 O2'         0.1373   -0.0577    2.0407 O.3       1 GTP        -0.6294
     21 C1'         1.3733    1.5427    0.6747 C.3       1 GTP         0.3895
     22 N9          0.4520    2.5240    0.1767 N.pl3     1 GTP        -0.4733
     23 C8          0.2012    2.8401   -1.0899 C.ar      1 GTP         0.2958
     24 N7         -0.7168    3.7990   -1.1981 N.pl3     1 GTP        -0.4933
     25 C5         -1.0645    4.1043    0.0896 C.ar      1 GTP        -0.1494
     26 C6         -2.0336    5.0870    0.5973 C.ar      1 GTP         0.7954
     27 O6         -2.6730    5.7839   -0.1834 O.2       1 GTP        -0.5729
     28 N1         -2.1539    5.1517    1.9868 N.2       1 GTP        -0.7443
     29 C2         -1.4288    4.3650    2.7566 C.ar      1 GTP         0.8831
     30 N2         -1.5126    4.3922    4.1250 N.pl3     1 GTP        -0.9204
     31 N3         -0.5167    3.4388    2.2748 N.pl3     1 GTP        -0.7173
     32 C4         -0.3638    3.3392    0.9318 C.ar      1 GTP         0.2626
     33 HOG3        0.4733   -4.3260   -4.3758 H         1 GTP         0.4102
     34 H5'         1.3514    0.2330   -2.1577 H         1 GTP         0.0289
     35 H5''        2.1280   -1.3678   -2.0460 H         1 GTP         0.0289
     36 H4'         3.8044   -0.1397   -0.4040 H         1 GTP         0.2056
     37 H3'         1.6764   -1.7639    0.2728 H         1 GTP         0.1140
     38 HO3'        3.5554   -1.2733    1.4914 H         1 GTP         0.4287
     39 H2'        -0.0011    0.0027    0.0003 H         1 GTP         0.0809
     40 HO2'       -0.1563   -0.9855    2.0596 H         1 GTP         0.4385
     41 H1'         1.7826    1.9024    1.6451 H         1 GTP         0.0794
     42 H8          0.6787    2.3803   -1.9373 H         1 GTP         0.3821
     43 HN21       -2.1462    5.0320    4.5446 H         1 GTP         0.4411
     44 HN22       -0.9365    3.7712    4.6440 H         1 GTP         0.4411
     45 H45         0.0318    2.8419    2.8816 H         1 GTP         0.4819
     46 H46        -1.0718    4.2049   -2.0526 H         1 GTP         0.5182
@<TRIPOS>BOND
     1    1    2 2
     2    1    3 1
     3    1    4 1
     4    1    5 1
     5    4   33 1
     6    5    6 1
     7    6    7 2
     8    6    8 1
     9    6    9 1
    10    9   10 1
    11   10   11 2
    12   10   12 1
    13   10   13 1
    14   13   14 1
    15   14   15 1
    16   14   34 1
    17   14   35 1
    18   15   16 1
    19   15   17 1
    20   15   36 1
    21   16   21 1
    22   17   18 1
    23   17   19 1
    24   17   37 1
    25   18   38 1
    26   19   20 1
    27   19   21 1
    28   19   39 1
    29   20   40 1
    30   21   22 1
    31   21   41 1
    32   22   23 ar
    33   22   32 ar
    34   23   24 ar
    35   23   42 1
    36   24   25 ar
    37   24   46 1
    38   25   26 ar
    39   25   32 ar
    40   26   27 2
    41   26   28 ar
    42   28   29 ar
    43   29   30 1
    44   29   31 ar
    45   30   43 1
    46   30   44 1
    47   31   32 ar
    48   31   45 1
@<TRIPOS>SUBSTRUCTURE
     1 GTP         1 GROUP 0 A     ****
@<TRIPOS>MOLECULE
[[[5-(2-amino-6-oxo-7,8-dihydro-3~{H}-purin-8-ylium-9-yl)-3,4-dihydroxy-tetrahydrofuran-2-yl]methoxy-oxido-phosphoryl]oxy-oxido-phosphoryl] hydrogen phosphate
   46    48     1     0     0
SMALL
USER_CHARGES

@<TRIPOS>ATOM
      1 PG          6.2976   -0.2034   -2.3212 P.3       1 GTP         1.5447
      2 O1G         5.9441    0.3943   -0.9776 O.co2     1 GTP        -0.8705
      3 O2G         7.2849   -1.3442   -2.4289 O.co2     1 GTP        -0.8705
      4 O3G         6.7851    0.9994   -3.3119 O.3       1 GTP        -0.7914
      5 O3B         4.9226   -0.6190   -3.0961 O.3       1 GTP        -0.8116
      6 PB          4.7038   -1.1596   -4.6210 P.3       1 GTP         1.6738
      7 O1B         5.0839   -0.0581   -5.5852 O.co2     1 GTP        -0.8763
      8 O2B         5.2852   -2.5509   -4.7393 O.co2     1 GTP        -0.8763
      9 O3A         3.0809   -1.3355   -4.6062 O.3       1 GTP        -0.8005
     10 PA          2.1372   -2.2718   -3.6563 P.3       1 GTP         1.5754
     11 O1A         0.6864   -1.9828   -3.9759 O.co2     1 GTP        -0.8771
     12 O2A         2.6769   -3.6852   -3.6801 O.co2     1 GTP        -0.8771
     13 O5'         2.5245   -1.6648   -2.1878 O.3       1 GTP        -0.5809
     14 C5'         2.2816   -0.2918   -1.9206 C.3       1 GTP         0.1986
     15 C4'         2.7248    0.0226   -0.4980 C.3       1 GTP         0.0418
     16 O4'         2.4697    1.4219   -0.2462 O.3       1 GTP        -0.3505
     17 C3'         1.9404   -0.7419    0.5596 C.3       1 GTP         0.0909
     18 O3'         2.7418   -0.8086    1.7389 O.3       1 GTP        -0.6187
     19 C2'         0.7477    0.1630    0.7858 C.3       1 GTP         0.0706
     20 O2'         0.1373   -0.0577    2.0407 O.3       1 GTP        -0.6294
     21 C1'         1.3733    1.5427    0.6747 C.3       1 GTP         0.3895
     22 N9          0.4520    2.5240    0.1767 N.pl3     1 GTP        -0.4733
     23 C8          0.5427    3.2356   -0.9425 C.ar      1 GTP         0.2958
     24 N7         -0.4919    4.0590   -1.1018 N.pl3     1 GTP        -0.4933
     25 C5         -1.2850    3.8484   -0.0069 C.ar      1 GTP        -0.1494
     26 C6         -2.5644    4.4707    0.3650 C.ar      1 GTP         0.7954
     27 O6         -3.0718    5.3200   -0.3599 O.2       1 GTP        -0.5729
     28 N1         -3.1239    4.0269    1.5647 N.2       1 GTP        -0.7443
     29 C2         -2.5133    3.1079    2.2858 C.ar      1 GTP         0.8831
     30 N2         -3.0239    2.6409    3.4697 N.pl3     1 GTP        -0.9204
     31 N3         -1.3076    2.5223    1.9320 N.pl3     1 GTP        -0.7173
     32 C4         -0.7246    2.9211    0.7753 C.ar      1 GTP         0.2626
     33 HOG3        7.0509    0.7709   -4.2281 H         1 GTP         0.4102
     34 H5'         2.8432    0.3119   -2.6398 H         1 GTP         0.0289
     35 H5''        1.2128   -0.0927   -2.0428 H         1 GTP         0.0289
     36 H4'         3.8044   -0.1397   -0.4040 H         1 GTP         0.2056
     37 H3'         1.6764   -1.7639    0.2728 H         1 GTP         0.1140
     38 HO3'        2.2232   -1.2979    2.3953 H         1 GTP         0.4287
     39 H2'        -0.0011    0.0027    0.0003 H         1 GTP         0.0809
     40 HO2'       -0.1563   -0.9855    2.0596 H         1 GTP         0.4385
     41 H1'         1.7826    1.9024    1.6451 H         1 GTP         0.0794
     42 H8          1.3539    3.1622   -1.6455 H         1 GTP         0.3821
     43 HN21       -3.8871    3.0143    3.7893 H         1 GTP         0.4411
     44 HN22       -2.5108    1.9472    3.9621 H         1 GTP         0.4411
     45 H45        -0.8530    1.8168    2.4986 H         1 GTP         0.4819
     46 H46        -0.6466    4.6966   -1.8702 H         1 GTP         0.5182
@<TRIPOS>BOND
     1    1    2 2
     2    1    3 1
     3    1    4 1
     4    1    5 1
     5    4   33 1
     6    5    6 1
     7    6    7 2
     8    6    8 1
     9    6    9 1
    10    9   10 1
    11   10   11 2
    12   10   12 1
    13   10   13 1
    14   13   14 1
    15   14   15 1
    16   14   34 1
    17   14   35 1
    18   15   16 1
    19   15   17 1
    20   15   36 1
    21   16   21 1
    22   17   18 1
    23   17   19 1
    24   17   37 1
    25   18   38 1
    26   19   20 1
    27   19   21 1
    28   19   39 1
    29   20   40 1
    30   21   22 1
    31   21   41 1
    32   22   23 ar
    33   22   32 ar
    34   23   24 ar
    35   23   42 1
    36   24   25 ar
    37   24   46 1
    38   25   26 ar
    39   25   32 ar
    40   26   27 2
    41   26   28 ar
    42   28   29 ar
    43   29   30 1
    44   29   31 ar
    45   30   43 1
    46   30   44 1
    47   31   32 ar
    48   31   45 1
@<TRIPOS>SUBSTRUCTURE
     1 GTP         1 GROUP 0 A     ****
@<TRIPOS>MOLECULE
[[[5-(2-amino-6-oxo-7,8-dihydro-3~{H}-purin-8-ylium-9-yl)-3,4-dihydroxy-tetrahydrofuran-2-yl]methoxy-oxido-phosphoryl]oxy-oxido-phosphoryl] hydrogen phosphate
   46    48     1     0     0
SMALL
USER_CHARGES

@<TRIPOS>ATOM
      1 PG         -0.5847   -5.4007   -1.7726 P.3       1 GTP         1.5447
      2 O1G         0.8311   -5.0383   -1.3834 O.co2     1 GTP        -0.8705
      3 O2G        -1.6760   -5.5007   -0.7301 O.co2     1 GTP        -0.8705
      4 O3G        -0.5486   -6.7955   -2.6206 O.3       1 GTP        -0.7914
      5 O3B        -1.0807   -4.4009   -2.9634 O.3       1 GTP        -0.8116
      6 PB         -1.3685   -2.7942   -2.9281 P.3       1 GTP         1.6738
      7 O1B        -1.6742   -2.3254   -4.3331 O.co2     1 GTP        -0.8763
      8 O2B        -2.2920   -2.4838   -1.7712 O.co2     1 GTP        -0.8763
      9 O3A         0.1148   -2.2721   -2.4897 O.3       1 GTP        -0.8005
     10 PA          1.5544   -2.4558   -3.2404 P.3       1 GTP         1.5754
     11 O1A         1.9037   -3.9280   -3.2692 O.co2     1 GTP        -0.8771
     12 O2A         1.5492   -1.6282   -4.5072 O.co2     1 GTP        -0.8771
     13 O5'         2.5245   -1.6648   -2.1878 O.3       1 GTP        -0.5809
     14 C5'         2.2816   -0.2918   -1.9206 C.3       1 GTP         0.1986
     15 C4'         2.7248    0.0226   -0.4980 C.3       1 GTP         0.0418
     16 O4'         2.4697    1.4219   -0.2462 O.3       1 GTP        -0.3505
     17 C3'         1.9404   -0.7419    0.5596 C.3       1 GTP         0.0909
     18 O3'         2.7418   -0.8086    1.7389 O.3       1 GTP        -0.6187
     19 C2'         0.7477    0.1630    0.7858 C.3       1 GTP         0.0706
     20 O2'         0.1373   -0.0577    2.0407 O.3       1 GTP        -0.6294
     21 C1'         1.3733    1.5427    0.6747 C.3       1 GTP         0.3895
     22 N9          0.4520    2.5240    0.1767 N.pl3     1 GTP        -0.4733
     23 C8         -0.2136    2.5096   -0.9739 C.ar      1 GTP         0.2958
     24 N7         -0.9896    3.5820   -1.1212 N.pl3     1 GTP        -0.4933
     25 C5         -0.7962    4.3186    0.0156 C.ar      1 GTP        -0.1494
     26 C6         -1.3875    5.6031    0.4192 C.ar      1 GTP         0.7954
     27 O6         -2.1869    6.1731   -0.3158 O.2       1 GTP        -0.5729
     28 N1         -0.9745    6.0930    1.6597 N.2       1 GTP        -0.7443
     29 C2         -0.1105    5.4166    2.3900 C.ar      1 GTP         0.8831
     30 N2          0.3241    5.8571    3.6138 N.pl3     1 GTP        -0.9204
     31 N3          0.4444    4.2053    2.0072 N.pl3     1 GTP        -0.7173
     32 C4          0.0746    3.6889    0.8098 C.ar      1 GTP         0.2626
     33 HOG3       -1.3964   -7.1656   -2.9471 H         1 GTP         0.4102
     34 H5'         2.8432    0.3119   -2.6398 H         1 GTP         0.0289
     35 H5''        1.2128   -0.0927   -2.0428 H         1 GTP         0.0289
     36 H4'         3.8044   -0.1397   -0.4040 H         1 GTP         0.2056
     37 H3'         1.6764   -1.7639    0.2728 H         1 GTP         0.1140
     38 HO3'        2.2232   -1.2979    2.3953 H         1 GTP         0.4287
     39 H2'        -0.0011    0.0027    0.0003 H         1 GTP         0.0809
     40 HO2'       -0.6141    0.5574    2.1082 H         1 GTP         0.4385
     41 H1'         1.7826    1.9024    1.6451 H         1 GTP         0.0794
     42 H8         -0.1415    1.7265   -1.7082 H         1 GTP         0.3821
     43 HN21       -0.0303    6.7197    3.9559 H         1 GTP         0.4411
     44 HN22        0.9765    5.2967    4.1108 H         1 GTP         0.4411
     45 H45         1.1068    3.6990    2.5819 H         1 GTP         0.4819
     46 H46        -1.5877    3.7943   -1.9074 H         1 GTP         0.5182
@<TRIPOS>BOND
     1    1    2 2
     2    1    3 1
     3    1    4 1
     4    1    5 1
     5    4   33 1
     6    5    6 1
     7    6    7 2
     8    6    8 1
     9    6    9 1
    10    9   10 1
    11   10   11 2
    12   10   12 1
    13   10   13 1
    14   13   14 1
    15   14   15 1
    16   14   34 1
    17   14   35 1
    18   15   16 1
    19   15   17 1
    20   15   36 1
    21   16   21 1
    22   17   18 1
    23   17   19 1
    24   17   37 1
    25   18   38 1
    26   19   20 1
    27   19   21 1
    28   19   39 1
    29   20   40 1
    30   21   22 1
    31   21   41 1
    32   22   23 ar
    33   22   32 ar
    34   23   24 ar
    35   23   42 1
    36   24   25 ar
    37   24   46 1
    38   25   26 ar
    39   25   32 ar
    40   26   27 2
    41   26   28 ar
    42   28   29 ar
    43   29   30 1
    44   29   31 ar
    45   30   43 1
    46   30   44 1
    47   31   32 ar
    48   31   45 1
@<TRIPOS>SUBSTRUCTURE
     1 GTP         1 GROUP 0 A     ****
@<TRIPOS>MOLECULE
[[[5-(2-amino-6-oxo-7,8-dihydro-3~{H}-purin-8-ylium-9-yl)-3,4-dihydroxy-tetrahydrofuran-2-yl]methoxy-oxido-phosphoryl]oxy-oxido-phosphoryl] hydrogen phosphate
   46    48     1     0     0
SMALL
USER_CHARGES

@<TRIPOS>ATOM
      1 PG          4.1498    5.7343   -0.6435 P.3       1 GTP         1.5447
      2 O1G         3.1227    6.8354   -0.5018 O.co2     1 GTP        -0.8705
      3 O2G         4.7732    5.0912    0.5753 O.co2     1 GTP        -0.8705
      4 O3G         5.3467    6.2640   -1.6196 O.3       1 GTP        -0.7914
      5 O3B         3.5448    4.5645   -1.6076 O.3       1 GTP        -0.8116
      6 PB          4.2675    3.2329   -2.2161 P.3       1 GTP         1.6738
      7 O1B         5.3502    3.6662   -3.1792 O.co2     1 GTP        -0.8763
      8 O2B         4.5519    2.2668   -1.0877 O.co2     1 GTP        -0.8763
      9 O3A         3.0106    2.6117   -3.0522 O.3       1 GTP        -0.8005
     10 PA          2.9232    1.2546   -3.9579 P.3       1 GTP         1.5754
     11 O1A         1.4961    1.0747   -4.4283 O.co2     1 GTP        -0.8771
     12 O2A         4.0762    1.2511   -4.9378 O.co2     1 GTP        -0.8771
     13 O5'         3.2903    0.1346   -2.8241 O.3       1 GTP        -0.5809
     14 C5'         2.2816   -0.2918   -1.9206 C.3       1 GTP         0.1986
     15 C4'         2.7248    0.0226   -0.4980 C.3       1 GTP         0.0418
     16 O4'         2.4697    1.4219   -0.2462 O.3       1 GTP        -0.3505
     17 C3'         1.9404   -0.7419    0.5596 C.3       1 GTP         0.0909
     18 O3'         2.7418   -0.8086    1.7389 O.3       1 GTP        -0.6187
     19 C2'         0.7477    0.1630    0.7858 C.3       1 GTP         0.0706
     20 O2'         0.1373   -0.0577    2.0407 O.3       1 GTP        -0.6294
     21 C1'         1.3733    1.5427    0.6747 C.3       1 GTP         0.3895
     22 N9          0.4520    2.5240    0.1767 N.pl3     1 GTP        -0.4733
     23 C8          0.2012    2.8401   -1.0899 C.ar      1 GTP         0.2958
     24 N7         -0.7168    3.7990   -1.1981 N.pl3     1 GTP        -0.4933
     25 C5         -1.0645    4.1043    0.0896 C.ar      1 GTP        -0.1494
     26 C6         -2.0336    5.0870    0.5973 C.ar      1 GTP         0.7954
     27 O6         -2.6730    5.7839   -0.1834 O.2       1 GTP        -0.5729
     28 N1         -2.1539    5.1517    1.9868 N.2       1 GTP        -0.7443
     29 C2         -1.4288    4.3650    2.7566 C.ar      1 GTP         0.8831
     30 N2         -1.5126    4.3922    4.1250 N.pl3     1 GTP        -0.9204
     31 N3         -0.5167    3.4388    2.2748 N.pl3     1 GTP        -0.7173
     32 C4         -0.3638    3.3392    0.9318 C.ar      1 GTP         0.2626
     33 HOG3        6.0949    5.6593   -1.8112 H         1 GTP         0.4102
     34 H5'         1.3514    0.2330   -2.1577 H         1 GTP         0.0289
     35 H5''        2.1280   -1.3678   -2.0460 H         1 GTP         0.0289
     36 H4'         3.8044   -0.1397   -0.4040 H         1 GTP         0.2056
     37 H3'         1.6764   -1.7639    0.2728 H         1 GTP         0.1140
     38 HO3'        2.2232   -1.2979    2.3953 H         1 GTP         0.4287
     39 H2'        -0.0011    0.0027    0.0003 H         1 GTP         0.0809
     40 HO2'       -0.6141    0.5574    2.1082 H         1 GTP         0.4385
     41 H1'         1.7826    1.9024    1.6451 H         1 GTP         0.0794
     42 H8          0.6787    2.3803   -1.9373 H         1 GTP         0.3821
     43 HN21       -2.1462    5.0320    4.5446 H         1 GTP         0.4411
     44 HN22       -0.9365    3.7712    4.6440 H         1 GTP         0.4411
     45 H45         0.0318    2.8419    2.8816 H         1 GTP         0.4819
     46 H46        -1.0718    4.2049   -2.0526 H         1 GTP         0.5182
@<TRIPOS>BOND
     1    1    2 2
     2    1    3 1
     3    1    4 1
     4    1    5 1
     5    4   33 1
     6    5    6 1
     7    6    7 2
     8    6    8 1
     9    6    9 1
    10    9   10 1
    11   10   11 2
    12   10   12 1
    13   10   13 1
    14   13   14 1
    15   14   15 1
    16   14   34 1
    17   14   35 1
    18   15   16 1
    19   15   17 1
    20   15   36 1
    21   16   21 1
    22   17   18 1
    23   17   19 1
    24   17   37 1
    25   18   38 1
    26   19   20 1
    27   19   21 1
    28   19   39 1
    29   20   40 1
    30   21   22 1
    31   21   41 1
    32   22   23 ar
    33   22   32 ar
    34   23   24 ar
    35   23   42 1
    36   24   25 ar
    37   24   46 1
    38   25   26 ar
    39   25   32 ar
    40   26   27 2
    41   26   28 ar
    42   28   29 ar
    43   29   30 1
    44   29   31 ar
    45   30   43 1
    46   30   44 1
    47   31   32 ar
    48   31   45 1
@<TRIPOS>SUBSTRUCTURE
     1 GTP         1 GROUP 0 A     ****
@<TRIPOS>MOLECULE
[[[5-(2-amino-6-oxo-7,8-dihydro-3~{H}-purin-8-ylium-9-yl)-3,4-dihydroxy-tetrahydrofuran-2-yl]methoxy-oxido-phosphoryl]oxy-oxido-phosphoryl] hydrogen phosphate
   46    48     1     0     0
SMALL
USER_CHARGES

@<TRIPOS>ATOM
      1 PG          5.7238   -0.9297   -6.6199 P.3       1 GTP         1.5447
      2 O1G         5.8229   -0.0046   -5.4275 O.co2     1 GTP        -0.8705
      3 O2G         6.5154   -2.2175   -6.6724 O.co2     1 GTP        -0.8705
      4 O3G         6.0420   -0.0701   -7.9711 O.3       1 GTP        -0.7914
      5 O3B         4.1517   -1.2632   -6.9043 O.3       1 GTP        -0.8116
      6 PB          3.0816   -2.1054   -6.0036 P.3       1 GTP         1.6738
      7 O1B         1.7177   -2.0028   -6.6492 O.co2     1 GTP        -0.8763
      8 O2B         3.6872   -3.4430   -5.6408 O.co2     1 GTP        -0.8763
      9 O3A         3.1119   -1.1996   -4.6459 O.3       1 GTP        -0.8005
     10 PA          2.7407    0.3769   -4.4297 P.3       1 GTP         1.5754
     11 O1A         3.7274    1.2201   -5.2081 O.co2     1 GTP        -0.8771
     12 O2A         1.2486    0.5523   -4.6100 O.co2     1 GTP        -0.8771
     13 O5'         3.0213    0.5153   -2.8245 O.3       1 GTP        -0.5809
     14 C5'         2.2816   -0.2918   -1.9206 C.3       1 GTP         0.1986
     15 C4'         2.7248    0.0226   -0.4980 C.3       1 GTP         0.0418
     16 O4'         2.4697    1.4219   -0.2462 O.3       1 GTP        -0.3505
     17 C3'         1.9404   -0.7419    0.5596 C.3       1 GTP         0.0909
     18 O3'         2.7418   -0.8086    1.7389 O.3       1 GTP        -0.6187
     19 C2'         0.7477    0.1630    0.7858 C.3       1 GTP         0.0706
     20 O2'         0.1373   -0.0577    2.0407 O.3       1 GTP        -0.6294
     21 C1'         1.3733    1.5427    0.6747 C.3       1 GTP         0.3895
     22 N9          0.4520    2.5240    0.1767 N.pl3     1 GTP        -0.4733
     23 C8         -0.2136    2.5096   -0.9739 C.ar      1 GTP         0.2958
     24 N7         -0.9896    3.5820   -1.1212 N.pl3     1 GTP        -0.4933
     25 C5         -0.7962    4.3186    0.0156 C.ar      1 GTP        -0.1494
     26 C6         -1.3875    5.6031    0.4192 C.ar      1 GTP         0.7954
     27 O6         -2.1869    6.1731   -0.3158 O.2       1 GTP        -0.5729
     28 N1         -0.9745    6.0930    1.6597 N.2       1 GTP        -0.7443
     29 C2         -0.1105    5.4166    2.3900 C.ar      1 GTP         0.8831
     30 N2          0.3241    5.8571    3.6138 N.pl3     1 GTP        -0.9204
     31 N3          0.4444    4.2053    2.0072 N.pl3     1 GTP        -0.7173
     32 C4          0.0746    3.6889    0.8098 C.ar      1 GTP         0.2626
     33 HOG3        6.0171   -0.5331   -8.8356 H         1 GTP         0.4102
     34 H5'         1.2163   -0.0770   -2.0471 H         1 GTP         0.0289
     35 H5''        2.4655   -1.3443   -2.1563 H         1 GTP         0.0289
     36 H4'         3.8044   -0.1397   -0.4040 H         1 GTP         0.2056
     37 H3'         1.6764   -1.7639    0.2728 H         1 GTP         0.1140
     38 HO3'        3.5554   -1.2733    1.4914 H         1 GTP         0.4287
     39 H2'        -0.0011    0.0027    0.0003 H         1 GTP         0.0809
     40 HO2'       -0.6141    0.5574    2.1082 H         1 GTP         0.4385
     41 H1'         1.7826    1.9024    1.6451 H         1 GTP         0.0794
     42 H8         -0.1415    1.7265   -1.7082 H         1 GTP         0.3821
     43 HN21       -0.0303    6.7197    3.9559 H         1 GTP         0.4411
     44 HN22        0.9765    5.2967    4.1108 H         1 GTP         0.4411
     45 H45         1.1068    3.6990    2.5819 H         1 GTP         0.4819
     46 H46        -1.5877    3.7943   -1.9074 H         1 GTP         0.5182
@<TRIPOS>BOND
     1    1    2 2
     2    1    3 1
     3    1    4 1
     4    1    5 1
     5    4   33 1
     6    5    6 1
     7    6    7 2
     8    6    8 1
     9    6    9 1
    10    9   10 1
    11   10   11 2
    12   10   12 1
    13   10   13 1
    14   13   14 1
    15   14   15 1
    16   14   34 1
    17   14   35 1
    18   15   16 1
    19   15   17 1
    20   15   36 1
    21   16   21 1
    22   17   18 1
    23   17   19 1
    24   17   37 1
    25   18   38 1
    26   19   20 1
    27   19   21 1
    28   19   39 1
    29   20   40 1
    30   21   22 1
    31   21   41 1
    32   22   23 ar
    33   22   32 ar
    34   23   24 ar
    35   23   42 1
    36   24   25 ar
    37   24   46 1
    38   25   26 ar
    39   25   32 ar
    40   26   27 2
    41   26   28 ar
    42   28   29 ar
    43   29   30 1
    44   29   31 ar
    45   30   43 1
    46   30   44 1
    47   31   32 ar
    48   31   45 1
@<TRIPOS>SUBSTRUCTURE
     1 GTP         1 GROUP 0 A     ****
@<TRIPOS>MOLECULE
[[[5-(2-amino-6-oxo-7,8-dihydro-3~{H}-purin-8-ylium-9-yl)-3,4-dihydroxy-tetrahydrofuran-2-yl]methoxy-oxido-phosphoryl]oxy-oxido-phosphoryl] hydrogen phosphate
   46    48     1     0     0
SMALL
USER_CHARGES

@<TRIPOS>ATOM
      1 PG          2.8515    5.8235   -2.3808 P.3       1 GTP         1.5447
      2 O1G         1.8292    5.2957   -3.3626 O.co2     1 GTP        -0.8705
      3 O2G         2.4793    6.8789   -1.3632 O.co2     1 GTP        -0.8705
      4 O3G         4.1526    6.3461   -3.2174 O.3       1 GTP        -0.7914
      5 O3B         3.5448    4.5645   -1.6076 O.3       1 GTP        -0.8116
      6 PB          4.2675    3.2329   -2.2161 P.3       1 GTP         1.6738
      7 O1B         5.3502    3.6662   -3.1792 O.co2     1 GTP        -0.8763
      8 O2B         4.5519    2.2668   -1.0877 O.co2     1 GTP        -0.8763
      9 O3A         3.0106    2.6117   -3.0522 O.3       1 GTP        -0.8005
     10 PA          2.9232    1.2546   -3.9579 P.3       1 GTP         1.5754
     11 O1A         1.4961    1.0747   -4.4283 O.co2     1 GTP        -0.8771
     12 O2A         4.0762    1.2511   -4.9378 O.co2     1 GTP        -0.8771
     13 O5'         3.2903    0.1346   -2.8241 O.3       1 GTP        -0.5809
     14 C5'         2.2816   -0.2918   -1.9206 C.3       1 GTP         0.1986
     15 C4'         2.7248    0.0226   -0.4980 C.3       1 GTP         0.0418
     16 O4'         2.4697    1.4219   -0.2462 O.3       1 GTP        -0.3505
     17 C3'         1.9404   -0.7419    0.5596 C.3       1 GTP         0.0909
     18 O3'         2.7418   -0.8086    1.7389 O.3       1 GTP        -0.6187
     19 C2'         0.7477    0.1630    0.7858 C.3       1 GTP         0.0706
     20 O2'         0.1373   -0.0577    2.0407 O.3       1 GTP        -0.6294
     21 C1'         1.3733    1.5427    0.6747 C.3       1 GTP         0.3895
     22 N9          0.4520    2.5240    0.1767 N.pl3     1 GTP        -0.4733
     23 C8         -0.2136    2.5096   -0.9739 C.ar      1 GTP         0.2958
     24 N7         -0.9896    3.5820   -1.1212 N.pl3     1 GTP        -0.4933
     25 C5         -0.7962    4.3186    0.0156 C.ar      1 GTP        -0.1494
     26 C6         -1.3875    5.6031    0.4192 C.ar      1 GTP         0.7954
     27 O6         -2.1869    6.1731   -0.3158 O.2       1 GTP        -0.5729
     28 N1         -0.9745    6.0930    1.6597 N.2       1 GTP        -0.7443
     29 C2         -0.1105    5.4166    2.3900 C.ar      1 GTP         0.8831
     30 N2          0.3241    5.8571    3.6138 N.pl3     1 GTP        -0.9204
     31 N3          0.4444    4.2053    2.0072 N.pl3     1 GTP        -0.7173
     32 C4          0.0746    3.6889    0.8098 C.ar      1 GTP         0.2626
     33 HOG3        4.9093    6.7205   -2.7179 H         1 GTP         0.4102
     34 H5'         1.3514    0.2330   -2.1577 H         1 GTP         0.0289
     35 H5''        2.1280   -1.3678   -2.0460 H         1 GTP         0.0289
     36 H4'         3.8044   -0.1397   -0.4040 H         1 GTP         0.2056
     37 H3'         1.6764   -1.7639    0.2728 H         1 GTP         0.1140
     38 HO3'        2.2232   -1.2979    2.3953 H         1 GTP         0.4287
     39 H2'        -0.0011    0.0027    0.0003 H         1 GTP         0.0809
     40 HO2'       -0.6141    0.5574    2.1082 H         1 GTP         0.4385
     41 H1'         1.7826    1.9024    1.6451 H         1 GTP         0.0794
     42 H8         -0.1415    1.7265   -1.7082 H         1 GTP         0.3821
     43 HN21       -0.0303    6.7197    3.9559 H         1 GTP         0.4411
     44 HN22        0.9765    5.2967    4.1108 H         1 GTP         0.4411
     45 H45         1.1068    3.6990    2.5819 H         1 GTP         0.4819
     46 H46        -1.5877    3.7943   -1.9074 H         1 GTP         0.5182
@<TRIPOS>BOND
     1    1    2 2
     2    1    3 1
     3    1    4 1
     4    1    5 1
     5    4   33 1
     6    5    6 1
     7    6    7 2
     8    6    8 1
     9    6    9 1
    10    9   10 1
    11   10   11 2
    12   10   12 1
    13   10   13 1
    14   13   14 1
    15   14   15 1
    16   14   34 1
    17   14   35 1
    18   15   16 1
    19   15   17 1
    20   15   36 1
    21   16   21 1
    22   17   18 1
    23   17   19 1
    24   17   37 1
    25   18   38 1
    26   19   20 1
    27   19   21 1
    28   19   39 1
    29   20   40 1
    30   21   22 1
    31   21   41 1
    32   22   23 ar
    33   22   32 ar
    34   23   24 ar
    35   23   42 1
    36   24   25 ar
    37   24   46 1
    38   25   26 ar
    39   25   32 ar
    40   26   27 2
    41   26   28 ar
    42   28   29 ar
    43   29   30 1
    44   29   31 ar
    45   30   43 1
    46   30   44 1
    47   31   32 ar
    48   31   45 1
@<TRIPOS>SUBSTRUCTURE
     1 GTP         1 GROUP 0 A     ****
@<TRIPOS>MOLECULE
[[[5-(2-amino-6-oxo-7,8-dihydro-3~{H}-purin-8-ylium-9-yl)-3,4-dihydroxy-tetrahydrofuran-2-yl]methoxy-oxido-phosphoryl]oxy-oxido-phosphoryl] hydrogen phosphate
   46    48     1     0     0
SMALL
USER_CHARGES

@<TRIPOS>ATOM
      1 PG          1.7418    4.8090   -4.7541 P.3       1 GTP         1.5447
      2 O1G         2.7341    4.1975   -3.7903 O.co2     1 GTP        -0.8705
      3 O2G         2.2089    5.6513   -5.9203 O.co2     1 GTP        -0.8705
      4 O3G         0.6498    5.6694   -3.8977 O.3       1 GTP        -0.7914
      5 O3B         0.7510    3.6377   -5.3109 O.3       1 GTP        -0.8116
      6 PB         -0.1502    2.5521   -4.4893 P.3       1 GTP         1.6738
      7 O1B        -1.0336    3.2956   -3.5125 O.co2     1 GTP        -0.8763
      8 O2B        -0.7196    1.5454   -5.4639 O.co2     1 GTP        -0.8763
      9 O3A         1.0397    1.7867   -3.6749 O.3       1 GTP        -0.8005
     10 PA          2.3336    0.9636   -4.2390 P.3       1 GTP         1.5754
     11 O1A         1.8447   -0.2544   -4.9924 O.co2     1 GTP        -0.8771
     12 O2A         3.2918    1.9456   -4.8770 O.co2     1 GTP        -0.8771
     13 O5'         3.0213    0.5153   -2.8245 O.3       1 GTP        -0.5809
     14 C5'         2.2816   -0.2918   -1.9206 C.3       1 GTP         0.1986
     15 C4'         2.7248    0.0226   -0.4980 C.3       1 GTP         0.0418
     16 O4'         2.4697    1.4219   -0.2462 O.3       1 GTP        -0.3505
     17 C3'         1.9404   -0.7419    0.5596 C.3       1 GTP         0.0909
     18 O3'         2.7418   -0.8086    1.7389 O.3       1 GTP        -0.6187
     19 C2'         0.7477    0.1630    0.7858 C.3       1 GTP         0.0706
     20 O2'         0.1373   -0.0577    2.0407 O.3       1 GTP        -0.6294
     21 C1'         1.3733    1.5427    0.6747 C.3       1 GTP         0.3895
     22 N9          0.4520    2.5240    0.1767 N.pl3     1 GTP        -0.4733
     23 C8          0.5427    3.2356   -0.9425 C.ar      1 GTP         0.2958
     24 N7         -0.4919    4.0590   -1.1018 N.pl3     1 GTP        -0.4933
     25 C5         -1.2850    3.8484   -0.0069 C.ar      1 GTP        -0.1494
     26 C6         -2.5644    4.4707    0.3650 C.ar      1 GTP         0.7954
     27 O6         -3.0718    5.3200   -0.3599 O.2       1 GTP        -0.5729
     28 N1         -3.1239    4.0269    1.5647 N.2       1 GTP        -0.7443
     29 C2         -2.5133    3.1079    2.2858 C.ar      1 GTP         0.8831
     30 N2         -3.0239    2.6409    3.4697 N.pl3     1 GTP        -0.9204
     31 N3         -1.3076    2.5223    1.9320 N.pl3     1 GTP        -0.7173
     32 C4         -0.7246    2.9211    0.7753 C.ar      1 GTP         0.2626
     33 HOG3       -0.0661    6.1310   -4.3842 H         1 GTP         0.4102
     34 H5'         1.2163   -0.0770   -2.0471 H         1 GTP         0.0289
     35 H5''        2.4655   -1.3443   -2.1563 H         1 GTP         0.0289
     36 H4'         3.8044   -0.1397   -0.4040 H         1 GTP         0.2056
     37 H3'         1.6764   -1.7639    0.2728 H         1 GTP         0.1140
     38 HO3'        2.2232   -1.2979    2.3953 H         1 GTP         0.4287
     39 H2'        -0.0011    0.0027    0.0003 H         1 GTP         0.0809
     40 HO2'       -0.1563   -0.9855    2.0596 H         1 GTP         0.4385
     41 H1'         1.7826    1.9024    1.6451 H         1 GTP         0.0794
     42 H8          1.3539    3.1622   -1.6455 H         1 GTP         0.3821
     43 HN21       -3.8871    3.0143    3.7893 H         1 GTP         0.4411
     44 HN22       -2.5108    1.9472    3.9621 H         1 GTP         0.4411
     45 H45        -0.8530    1.8168    2.4986 H         1 GTP         0.4819
     46 H46        -0.6466    4.6966   -1.8702 H         1 GTP         0.5182
@<TRIPOS>BOND
     1    1    2 2
     2    1    3 1
     3    1    4 1
     4    1    5 1
     5    4   33 1
     6    5    6 1
     7    6    7 2
     8    6    8 1
     9    6    9 1
    10    9   10 1
    11   10   11 2
    12   10   12 1
    13   10   13 1
    14   13   14 1
    15   14   15 1
    16   14   34 1
    17   14   35 1
    18   15   16 1
    19   15   17 1
    20   15   36 1
    21   16   21 1
    22   17   18 1
    23   17   19 1
    24   17   37 1
    25   18   38 1
    26   19   20 1
    27   19   21 1
    28   19   39 1
    29   20   40 1
    30   21   22 1
    31   21   41 1
    32   22   23 ar
    33   22   32 ar
    34   23   24 ar
    35   23   42 1
    36   24   25 ar
    37   24   46 1
    38   25   26 ar
    39   25   32 ar
    40   26   27 2
    41   26   28 ar
    42   28   29 ar
    43   29   30 1
    44   29   31 ar
    45   30   43 1
    46   30   44 1
    47   31   32 ar
    48   31   45 1
@<TRIPOS>SUBSTRUCTURE
     1 GTP         1 GROUP 0 A     ****
@<TRIPOS>MOLECULE
[[[5-(2-amino-6-oxo-7,8-dihydro-3~{H}-purin-8-ylium-9-yl)-3,4-dihydroxy-tetrahydrofuran-2-yl]methoxy-oxido-phosphoryl]oxy-oxido-phosphoryl] hydrogen phosphate
   46    48     1     0     0
SMALL
USER_CHARGES

@<TRIPOS>ATOM
      1 PG          3.5735    4.3701   -5.2276 P.3       1 GTP         1.5447
      2 O1G         3.0922    5.6989   -4.6890 O.co2     1 GTP        -0.8705
      3 O2G         4.4493    3.4637   -4.3915 O.co2     1 GTP        -0.8705
      4 O3G         4.3131    4.6283   -6.6602 O.3       1 GTP        -0.7914
      5 O3B         2.2891    3.5174   -5.7634 O.3       1 GTP        -0.8116
      6 PB          1.0423    2.8705   -4.9312 P.3       1 GTP         1.6738
      7 O1B         0.3949    3.9588   -4.1041 O.co2     1 GTP        -0.8763
      8 O2B         0.2319    1.9935   -5.8593 O.co2     1 GTP        -0.8763
      9 O3A         1.8750    1.8640   -3.9522 O.3       1 GTP        -0.8005
     10 PA          2.8621    0.6170   -4.3270 P.3       1 GTP         1.5754
     11 O1A         2.0475   -0.4600   -5.0101 O.co2     1 GTP        -0.8771
     12 O2A         4.1194    1.1687   -4.9631 O.co2     1 GTP        -0.8771
     13 O5'         3.2903    0.1346   -2.8241 O.3       1 GTP        -0.5809
     14 C5'         2.2816   -0.2918   -1.9206 C.3       1 GTP         0.1986
     15 C4'         2.7248    0.0226   -0.4980 C.3       1 GTP         0.0418
     16 O4'         2.4697    1.4219   -0.2462 O.3       1 GTP        -0.3505
     17 C3'         1.9404   -0.7419    0.5596 C.3       1 GTP         0.0909
     18 O3'         2.7418   -0.8086    1.7389 O.3       1 GTP        -0.6187
     19 C2'         0.7477    0.1630    0.7858 C.3       1 GTP         0.0706
     20 O2'         0.1373   -0.0577    2.0407 O.3       1 GTP        -0.6294
     21 C1'         1.3733    1.5427    0.6747 C.3       1 GTP         0.3895
     22 N9          0.4520    2.5240    0.1767 N.pl3     1 GTP        -0.4733
     23 C8         -0.2136    2.5096   -0.9739 C.ar      1 GTP         0.2958
     24 N7         -0.9896    3.5820   -1.1212 N.pl3     1 GTP        -0.4933
     25 C5         -0.7962    4.3186    0.0156 C.ar      1 GTP        -0.1494
     26 C6         -1.3875    5.6031    0.4192 C.ar      1 GTP         0.7954
     27 O6         -2.1869    6.1731   -0.3158 O.2       1 GTP        -0.5729
     28 N1         -0.9745    6.0930    1.6597 N.2       1 GTP        -0.7443
     29 C2         -0.1105    5.4166    2.3900 C.ar      1 GTP         0.8831
     30 N2          0.3241    5.8571    3.6138 N.pl3     1 GTP        -0.9204
     31 N3          0.4444    4.2053    2.0072 N.pl3     1 GTP        -0.7173
     32 C4          0.0746    3.6889    0.8098 C.ar      1 GTP         0.2626
     33 HOG3        4.6833    3.8571   -7.1403 H         1 GTP         0.4102
     34 H5'         1.3514    0.2330   -2.1577 H         1 GTP         0.0289
     35 H5''        2.1280   -1.3678   -2.0460 H         1 GTP         0.0289
     36 H4'         3.8044   -0.1397   -0.4040 H         1 GTP         0.2056
     37 H3'         1.6764   -1.7639    0.2728 H         1 GTP         0.1140
     38 HO3'        3.5554   -1.2733    1.4914 H         1 GTP         0.4287
     39 H2'        -0.0011    0.0027    0.0003 H         1 GTP         0.0809
     40 HO2'       -0.1563   -0.9855    2.0596 H         1 GTP         0.4385
     41 H1'         1.7826    1.9024    1.6451 H         1 GTP         0.0794
     42 H8         -0.1415    1.7265   -1.7082 H         1 GTP         0.3821
     43 HN21       -0.0303    6.7197    3.9559 H         1 GTP         0.4411
     44 HN22        0.9765    5.2967    4.1108 H         1 GTP         0.4411
     45 H45         1.1068    3.6990    2.5819 H         1 GTP         0.4819
     46 H46        -1.5877    3.7943   -1.9074 H         1 GTP         0.5182
@<TRIPOS>BOND
     1    1    2 2
     2    1    3 1
     3    1    4 1
     4    1    5 1
     5    4   33 1
     6    5    6 1
     7    6    7 2
     8    6    8 1
     9    6    9 1
    10    9   10 1
    11   10   11 2
    12   10   12 1
    13   10   13 1
    14   13   14 1
    15   14   15 1
    16   14   34 1
    17   14   35 1
    18   15   16 1
    19   15   17 1
    20   15   36 1
    21   16   21 1
    22   17   18 1
    23   17   19 1
    24   17   37 1
    25   18   38 1
    26   19   20 1
    27   19   21 1
    28   19   39 1
    29   20   40 1
    30   21   22 1
    31   21   41 1
    32   22   23 ar
    33   22   32 ar
    34   23   24 ar
    35   23   42 1
    36   24   25 ar
    37   24   46 1
    38   25   26 ar
    39   25   32 ar
    40   26   27 2
    41   26   28 ar
    42   28   29 ar
    43   29   30 1
    44   29   31 ar
    45   30   43 1
    46   30   44 1
    47   31   32 ar
    48   31   45 1
@<TRIPOS>SUBSTRUCTURE
     1 GTP         1 GROUP 0 A     ****
@<TRIPOS>MOLECULE
[[[5-(2-amino-6-oxo-7,8-dihydro-3~{H}-purin-8-ylium-9-yl)-3,4-dihydroxy-tetrahydrofuran-2-yl]methoxy-oxido-phosphoryl]oxy-oxido-phosphoryl] hydrogen phosphate
   46    48     1     0     0
SMALL
USER_CHARGES

@<TRIPOS>ATOM
      1 PG          4.5917    3.8706   -5.6781 P.3       1 GTP         1.5447
      2 O1G         4.6110    5.3192   -5.2436 O.co2     1 GTP        -0.8705
      3 O2G         5.2342    2.7960   -4.8294 O.co2     1 GTP        -0.8705
      4 O3G         5.2044    3.7739   -7.1884 O.3       1 GTP        -0.7914
      5 O3B         3.0536    3.4354   -6.0076 O.3       1 GTP        -0.8116
      6 PB          1.7726    3.2827   -5.0069 P.3       1 GTP         1.6738
      7 O1B         1.5940    4.5780   -4.2469 O.co2     1 GTP        -0.8763
      8 O2B         0.6290    2.6444   -5.7635 O.co2     1 GTP        -0.8763
      9 O3A         2.3599    2.1376   -4.0025 O.3       1 GTP        -0.8005
     10 PA          2.8621    0.6170   -4.3270 P.3       1 GTP         1.5754
     11 O1A         1.6809   -0.1909   -4.8193 O.co2     1 GTP        -0.8771
     12 O2A         4.1462    0.6908   -5.1241 O.co2     1 GTP        -0.8771
     13 O5'         3.2903    0.1346   -2.8241 O.3       1 GTP        -0.5809
     14 C5'         2.2816   -0.2918   -1.9206 C.3       1 GTP         0.1986
     15 C4'         2.7248    0.0226   -0.4980 C.3       1 GTP         0.0418
     16 O4'         2.4697    1.4219   -0.2462 O.3       1 GTP        -0.3505
     17 C3'         1.9404   -0.7419    0.5596 C.3       1 GTP         0.0909
     18 O3'         2.7418   -0.8086    1.7389 O.3       1 GTP        -0.6187
     19 C2'         0.7477    0.1630    0.7858 C.3       1 GTP         0.0706
     20 O2'         0.1373   -0.0577    2.0407 O.3       1 GTP        -0.6294
     21 C1'         1.3733    1.5427    0.6747 C.3       1 GTP         0.3895
     22 N9          0.4520    2.5240    0.1767 N.pl3     1 GTP        -0.4733
     23 C8          0.5427    3.2356   -0.9425 C.ar      1 GTP         0.2958
     24 N7         -0.4919    4.0590   -1.1018 N.pl3     1 GTP        -0.4933
     25 C5         -1.2850    3.8484   -0.0069 C.ar      1 GTP        -0.1494
     26 C6         -2.5644    4.4707    0.3650 C.ar      1 GTP         0.7954
     27 O6         -3.0718    5.3200   -0.3599 O.2       1 GTP        -0.5729
     28 N1         -3.1239    4.0269    1.5647 N.2       1 GTP        -0.7443
     29 C2         -2.5133    3.1079    2.2858 C.ar      1 GTP         0.8831
     30 N2         -3.0239    2.6409    3.4697 N.pl3     1 GTP        -0.9204
     31 N3         -1.3076    2.5223    1.9320 N.pl3     1 GTP        -0.7173
     32 C4         -0.7246    2.9211    0.7753 C.ar      1 GTP         0.2626
     33 HOG3        5.2595    2.8919   -7.6143 H         1 GTP         0.4102
     34 H5'         1.3514    0.2330   -2.1577 H         1 GTP         0.0289
     35 H5''        2.1280   -1.3678   -2.0460 H         1 GTP         0.0289
     36 H4'         3.8044   -0.1397   -0.4040 H         1 GTP         0.2056
     37 H3'         1.6764   -1.7639    0.2728 H         1 GTP         0.1140
     38 HO3'        2.2232   -1.2979    2.3953 H         1 GTP         0.4287
     39 H2'        -0.0011    0.0027    0.0003 H         1 GTP         0.0809
     40 HO2'       -0.1563   -0.9855    2.0596 H         1 GTP         0.4385
     41 H1'         1.7826    1.9024    1.6451 H         1 GTP         0.0794
     42 H8          1.3539    3.1622   -1.6455 H         1 GTP         0.3821
     43 HN21       -3.8871    3.0143    3.7893 H         1 GTP         0.4411
     44 HN22       -2.5108    1.9472    3.9621 H         1 GTP         0.4411
     45 H45        -0.8530    1.8168    2.4986 H         1 GTP         0.4819
     46 H46        -0.6466    4.6966   -1.8702 H         1 GTP         0.5182
@<TRIPOS>BOND
     1    1    2 2
     2    1    3 1
     3    1    4 1
     4    1    5 1
     5    4   33 1
     6    5    6 1
     7    6    7 2
     8    6    8 1
     9    6    9 1
    10    9   10 1
    11   10   11 2
    12   10   12 1
    13   10   13 1
    14   13   14 1
    15   14   15 1
    16   14   34 1
    17   14   35 1
    18   15   16 1
    19   15   17 1
    20   15   36 1
    21   16   21 1
    22   17   18 1
    23   17   19 1
    24   17   37 1
    25   18   38 1
    26   19   20 1
    27   19   21 1
    28   19   39 1
    29   20   40 1
    30   21   22 1
    31   21   41 1
    32   22   23 ar
    33   22   32 ar
    34   23   24 ar
    35   23   42 1
    36   24   25 ar
    37   24   46 1
    38   25   26 ar
    39   25   32 ar
    40   26   27 2
    41   26   28 ar
    42   28   29 ar
    43   29   30 1
    44   29   31 ar
    45   30   43 1
    46   30   44 1
    47   31   32 ar
    48   31   45 1
@<TRIPOS>SUBSTRUCTURE
     1 GTP         1 GROUP 0 A     ****
@<TRIPOS>MOLECULE
[[[5-(2-amino-6-oxo-7,8-dihydro-3~{H}-purin-8-ylium-9-yl)-3,4-dihydroxy-tetrahydrofuran-2-yl]methoxy-oxido-phosphoryl]oxy-oxido-phosphoryl] hydrogen phosphate
   46    48     1     0     0
SMALL
USER_CHARGES

@<TRIPOS>ATOM
      1 PG          4.1498    5.7343   -0.6435 P.3       1 GTP         1.5447
      2 O1G         5.1053    5.1094    0.3484 O.co2     1 GTP        -0.8705
      3 O2G         4.5756    6.9050   -1.5013 O.co2     1 GTP        -0.8705
      4 O3G         2.7776    6.1399    0.1430 O.3       1 GTP        -0.7914
      5 O3B         3.5448    4.5645   -1.6076 O.3       1 GTP        -0.8116
      6 PB          4.2675    3.2329   -2.2161 P.3       1 GTP         1.6738
      7 O1B         5.3502    3.6662   -3.1792 O.co2     1 GTP        -0.8763
      8 O2B         4.5519    2.2668   -1.0877 O.co2     1 GTP        -0.8763
      9 O3A         3.0106    2.6117   -3.0522 O.3       1 GTP        -0.8005
     10 PA          2.9232    1.2546   -3.9579 P.3       1 GTP         1.5754
     11 O1A         1.4961    1.0747   -4.4283 O.co2     1 GTP        -0.8771
     12 O2A         4.0762    1.2511   -4.9378 O.co2     1 GTP        -0.8771
     13 O5'         3.2903    0.1346   -2.8241 O.3       1 GTP        -0.5809
     14 C5'         2.2816   -0.2918   -1.9206 C.3       1 GTP         0.1986
     15 C4'         2.7248    0.0226   -0.4980 C.3       1 GTP         0.0418
     16 O4'         2.4697    1.4219   -0.2462 O.3       1 GTP        -0.3505
     17 C3'         1.9404   -0.7419    0.5596 C.3       1 GTP         0.0909
     18 O3'         2.7418   -0.8086    1.7389 O.3       1 GTP        -0.6187
     19 C2'         0.7477    0.1630    0.7858 C.3       1 GTP         0.0706
     20 O2'         0.1373   -0.0577    2.0407 O.3       1 GTP        -0.6294
     21 C1'         1.3733    1.5427    0.6747 C.3       1 GTP         0.3895
     22 N9          0.4520    2.5240    0.1767 N.pl3     1 GTP        -0.4733
     23 C8         -0.2136    2.5096   -0.9739 C.ar      1 GTP         0.2958
     24 N7         -0.9896    3.5820   -1.1212 N.pl3     1 GTP        -0.4933
     25 C5         -0.7962    4.3186    0.0156 C.ar      1 GTP        -0.1494
     26 C6         -1.3875    5.6031    0.4192 C.ar      1 GTP         0.7954
     27 O6         -2.1869    6.1731   -0.3158 O.2       1 GTP        -0.5729
     28 N1         -0.9745    6.0930    1.6597 N.2       1 GTP        -0.7443
     29 C2         -0.1105    5.4166    2.3900 C.ar      1 GTP         0.8831
     30 N2          0.3241    5.8571    3.6138 N.pl3     1 GTP        -0.9204
     31 N3          0.4444    4.2053    2.0072 N.pl3     1 GTP        -0.7173
     32 C4          0.0746    3.6889    0.8098 C.ar      1 GTP         0.2626
     33 HOG3        2.0533    6.5600   -0.3681 H         1 GTP         0.4102
     34 H5'         1.3514    0.2330   -2.1577 H         1 GTP         0.0289
     35 H5''        2.1280   -1.3678   -2.0460 H         1 GTP         0.0289
     36 H4'         3.8044   -0.1397   -0.4040 H         1 GTP         0.2056
     37 H3'         1.6764   -1.7639    0.2728 H         1 GTP         0.1140
     38 HO3'        2.2232   -1.2979    2.3953 H         1 GTP         0.4287
     39 H2'        -0.0011    0.0027    0.0003 H         1 GTP         0.0809
     40 HO2'       -0.6141    0.5574    2.1082 H         1 GTP         0.4385
     41 H1'         1.7826    1.9024    1.6451 H         1 GTP         0.0794
     42 H8         -0.1415    1.7265   -1.7082 H         1 GTP         0.3821
     43 HN21       -0.0303    6.7197    3.9559 H         1 GTP         0.4411
     44 HN22        0.9765    5.2967    4.1108 H         1 GTP         0.4411
     45 H45         1.1068    3.6990    2.5819 H         1 GTP         0.4819
     46 H46        -1.5877    3.7943   -1.9074 H         1 GTP         0.5182
@<TRIPOS>BOND
     1    1    2 2
     2    1    3 1
     3    1    4 1
     4    1    5 1
     5    4   33 1
     6    5    6 1
     7    6    7 2
     8    6    8 1
     9    6    9 1
    10    9   10 1
    11   10   11 2
    12   10   12 1
    13   10   13 1
    14   13   14 1
    15   14   15 1
    16   14   34 1
    17   14   35 1
    18   15   16 1
    19   15   17 1
    20   15   36 1
    21   16   21 1
    22   17   18 1
    23   17   19 1
    24   17   37 1
    25   18   38 1
    26   19   20 1
    27   19   21 1
    28   19   39 1
    29   20   40 1
    30   21   22 1
    31   21   41 1
    32   22   23 ar
    33   22   32 ar
    34   23   24 ar
    35   23   42 1
    36   24   25 ar
    37   24   46 1
    38   25   26 ar
    39   25   32 ar
    40   26   27 2
    41   26   28 ar
    42   28   29 ar
    43   29   30 1
    44   29   31 ar
    45   30   43 1
    46   30   44 1
    47   31   32 ar
    48   31   45 1
@<TRIPOS>SUBSTRUCTURE
     1 GTP         1 GROUP 0 A     ****
@<TRIPOS>MOLECULE
[[[5-(2-amino-6-oxo-7,8-dihydro-3~{H}-purin-8-ylium-9-yl)-3,4-dihydroxy-tetrahydrofuran-2-yl]methoxy-oxido-phosphoryl]oxy-oxido-phosphoryl] hydrogen phosphate
   46    48     1     0     0
SMALL
USER_CHARGES

@<TRIPOS>ATOM
      1 PG          0.1772   -2.3857   -5.5248 P.3       1 GTP         1.5447
      2 O1G         0.1299   -3.8930   -5.4101 O.co2     1 GTP        -0.8705
      3 O2G         0.0853   -1.5093   -4.2955 O.co2     1 GTP        -0.8705
      4 O3G        -0.9679   -1.9103   -6.5872 O.3       1 GTP        -0.7914
      5 O3B         1.4998   -1.9593   -6.3807 O.3       1 GTP        -0.8116
      6 PB          3.0816   -2.1054   -6.0036 P.3       1 GTP         1.6738
      7 O1B         3.3653   -3.5493   -5.6541 O.co2     1 GTP        -0.8763
      8 O2B         3.9047   -1.3635   -7.0330 O.co2     1 GTP        -0.8763
      9 O3A         3.1119   -1.1996   -4.6459 O.3       1 GTP        -0.8005
     10 PA          2.7407    0.3769   -4.4297 P.3       1 GTP         1.5754
     11 O1A         3.7274    1.2201   -5.2081 O.co2     1 GTP        -0.8771
     12 O2A         1.2486    0.5523   -4.6100 O.co2     1 GTP        -0.8771
     13 O5'         3.0213    0.5153   -2.8245 O.3       1 GTP        -0.5809
     14 C5'         2.2816   -0.2918   -1.9206 C.3       1 GTP         0.1986
     15 C4'         2.7248    0.0226   -0.4980 C.3       1 GTP         0.0418
     16 O4'         2.4697    1.4219   -0.2462 O.3       1 GTP        -0.3505
     17 C3'         1.9404   -0.7419    0.5596 C.3       1 GTP         0.0909
     18 O3'         2.7418   -0.8086    1.7389 O.3       1 GTP        -0.6187
     19 C2'         0.7477    0.1630    0.7858 C.3       1 GTP         0.0706
     20 O2'         0.1373   -0.0577    2.0407 O.3       1 GTP        -0.6294
     21 C1'         1.3733    1.5427    0.6747 C.3       1 GTP         0.3895
     22 N9          0.4520    2.5240    0.1767 N.pl3     1 GTP        -0.4733
     23 C8          0.5427    3.2356   -0.9425 C.ar      1 GTP         0.2958
     24 N7         -0.4919    4.0590   -1.1018 N.pl3     1 GTP        -0.4933
     25 C5         -1.2850    3.8484   -0.0069 C.ar      1 GTP        -0.1494
     26 C6         -2.5644    4.4707    0.3650 C.ar      1 GTP         0.7954
     27 O6         -3.0718    5.3200   -0.3599 O.2       1 GTP        -0.5729
     28 N1         -3.1239    4.0269    1.5647 N.2       1 GTP        -0.7443
     29 C2         -2.5133    3.1079    2.2858 C.ar      1 GTP         0.8831
     30 N2         -3.0239    2.6409    3.4697 N.pl3     1 GTP        -0.9204
     31 N3         -1.3076    2.5223    1.9320 N.pl3     1 GTP        -0.7173
     32 C4         -0.7246    2.9211    0.7753 C.ar      1 GTP         0.2626
     33 HOG3       -1.0643   -0.9517   -6.7720 H         1 GTP         0.4102
     34 H5'         1.2163   -0.0770   -2.0471 H         1 GTP         0.0289
     35 H5''        2.4655   -1.3443   -2.1563 H         1 GTP         0.0289
     36 H4'         3.8044   -0.1397   -0.4040 H         1 GTP         0.2056
     37 H3'         1.6764   -1.7639    0.2728 H         1 GTP         0.1140
     38 HO3'        2.2232   -1.2979    2.3953 H         1 GTP         0.4287
     39 H2'        -0.0011    0.0027    0.0003 H         1 GTP         0.0809
     40 HO2'       -0.1563   -0.9855    2.0596 H         1 GTP         0.4385
     41 H1'         1.7826    1.9024    1.6451 H         1 GTP         0.0794
     42 H8          1.3539    3.1622   -1.6455 H         1 GTP         0.3821
     43 HN21       -3.8871    3.0143    3.7893 H         1 GTP         0.4411
     44 HN22       -2.5108    1.9472    3.9621 H         1 GTP         0.4411
     45 H45        -0.8530    1.8168    2.4986 H         1 GTP         0.4819
     46 H46        -0.6466    4.6966   -1.8702 H         1 GTP         0.5182
@<TRIPOS>BOND
     1    1    2 2
     2    1    3 1
     3    1    4 1
     4    1    5 1
     5    4   33 1
     6    5    6 1
     7    6    7 2
     8    6    8 1
     9    6    9 1
    10    9   10 1
    11   10   11 2
    12   10   12 1
    13   10   13 1
    14   13   14 1
    15   14   15 1
    16   14   34 1
    17   14   35 1
    18   15   16 1
    19   15   17 1
    20   15   36 1
    21   16   21 1
    22   17   18 1
    23   17   19 1
    24   17   37 1
    25   18   38 1
    26   19   20 1
    27   19   21 1
    28   19   39 1
    29   20   40 1
    30   21   22 1
    31   21   41 1
    32   22   23 ar
    33   22   32 ar
    34   23   24 ar
    35   23   42 1
    36   24   25 ar
    37   24   46 1
    38   25   26 ar
    39   25   32 ar
    40   26   27 2
    41   26   28 ar
    42   28   29 ar
    43   29   30 1
    44   29   31 ar
    45   30   43 1
    46   30   44 1
    47   31   32 ar
    48   31   45 1
@<TRIPOS>SUBSTRUCTURE
     1 GTP         1 GROUP 0 A     ****
@<TRIPOS>MOLECULE
[[[5-(2-amino-6-oxo-7,8-dihydro-3~{H}-purin-8-ylium-9-yl)-3,4-dihydroxy-tetrahydrofuran-2-yl]methoxy-oxido-phosphoryl]oxy-oxido-phosphoryl] hydrogen phosphate
   46    48     1     0     0
SMALL
USER_CHARGES

@<TRIPOS>ATOM
      1 PG         -0.6374   -4.9843   -4.2451 P.3       1 GTP         1.5447
      2 O1G        -2.0791   -4.9442   -4.7005 O.co2     1 GTP        -0.8705
      3 O2G         0.4869   -4.6269   -5.1916 O.co2     1 GTP        -0.8705
      4 O3G        -0.3340   -6.4588   -3.6129 O.3       1 GTP        -0.7914
      5 O3B        -0.4855   -4.0965   -2.8840 O.3       1 GTP        -0.8116
      6 PB         -0.6416   -2.4864   -2.6626 P.3       1 GTP         1.6738
      7 O1B        -1.9907   -2.0529   -3.1911 O.co2     1 GTP        -0.8763
      8 O2B        -0.1894   -2.1349   -1.2627 O.co2     1 GTP        -0.8763
      9 O3A         0.5318   -1.9682   -3.6723 O.3       1 GTP        -0.8005
     10 PA          2.1372   -2.2718   -3.6563 P.3       1 GTP         1.5754
     11 O1A         2.3492   -3.7701   -3.6757 O.co2     1 GTP        -0.8771
     12 O2A         2.8102   -1.3732   -4.6709 O.co2     1 GTP        -0.8771
     13 O5'         2.5245   -1.6648   -2.1878 O.3       1 GTP        -0.5809
     14 C5'         2.2816   -0.2918   -1.9206 C.3       1 GTP         0.1986
     15 C4'         2.7248    0.0226   -0.4980 C.3       1 GTP         0.0418
     16 O4'         2.4697    1.4219   -0.2462 O.3       1 GTP        -0.3505
     17 C3'         1.9404   -0.7419    0.5596 C.3       1 GTP         0.0909
     18 O3'         2.7418   -0.8086    1.7389 O.3       1 GTP        -0.6187
     19 C2'         0.7477    0.1630    0.7858 C.3       1 GTP         0.0706
     20 O2'         0.1373   -0.0577    2.0407 O.3       1 GTP        -0.6294
     21 C1'         1.3733    1.5427    0.6747 C.3       1 GTP         0.3895
     22 N9          0.4520    2.5240    0.1767 N.pl3     1 GTP        -0.4733
     23 C8         -0.2136    2.5096   -0.9739 C.ar      1 GTP         0.2958
     24 N7         -0.9896    3.5820   -1.1212 N.pl3     1 GTP        -0.4933
     25 C5         -0.7962    4.3186    0.0156 C.ar      1 GTP        -0.1494
     26 C6         -1.3875    5.6031    0.4192 C.ar      1 GTP         0.7954
     27 O6         -2.1869    6.1731   -0.3158 O.2       1 GTP        -0.5729
     28 N1         -0.9745    6.0930    1.6597 N.2       1 GTP        -0.7443
     29 C2         -0.1105    5.4166    2.3900 C.ar      1 GTP         0.8831
     30 N2          0.3241    5.8571    3.6138 N.pl3     1 GTP        -0.9204
     31 N3          0.4444    4.2053    2.0072 N.pl3     1 GTP        -0.7173
     32 C4          0.0746    3.6889    0.8098 C.ar      1 GTP         0.2626
     33 HOG3        0.5663   -6.6436   -3.2701 H         1 GTP         0.4102
     34 H5'         2.8432    0.3119   -2.6398 H         1 GTP         0.0289
     35 H5''        1.2128   -0.0927   -2.0428 H         1 GTP         0.0289
     36 H4'         3.8044   -0.1397   -0.4040 H         1 GTP         0.2056
     37 H3'         1.6764   -1.7639    0.2728 H         1 GTP         0.1140
     38 HO3'        2.2232   -1.2979    2.3953 H         1 GTP         0.4287
     39 H2'        -0.0011    0.0027    0.0003 H         1 GTP         0.0809
     40 HO2'       -0.6141    0.5574    2.1082 H         1 GTP         0.4385
     41 H1'         1.7826    1.9024    1.6451 H         1 GTP         0.0794
     42 H8         -0.1415    1.7265   -1.7082 H         1 GTP         0.3821
     43 HN21       -0.0303    6.7197    3.9559 H         1 GTP         0.4411
     44 HN22        0.9765    5.2967    4.1108 H         1 GTP         0.4411
     45 H45         1.1068    3.6990    2.5819 H         1 GTP         0.4819
     46 H46        -1.5877    3.7943   -1.9074 H         1 GTP         0.5182
@<TRIPOS>BOND
     1    1    2 2
     2    1    3 1
     3    1    4 1
     4    1    5 1
     5    4   33 1
     6    5    6 1
     7    6    7 2
     8    6    8 1
     9    6    9 1
    10    9   10 1
    11   10   11 2
    12   10   12 1
    13   10   13 1
    14   13   14 1
    15   14   15 1
    16   14   34 1
    17   14   35 1
    18   15   16 1
    19   15   17 1
    20   15   36 1
    21   16   21 1
    22   17   18 1
    23   17   19 1
    24   17   37 1
    25   18   38 1
    26   19   20 1
    27   19   21 1
    28   19   39 1
    29   20   40 1
    30   21   22 1
    31   21   41 1
    32   22   23 ar
    33   22   32 ar
    34   23   24 ar
    35   23   42 1
    36   24   25 ar
    37   24   46 1
    38   25   26 ar
    39   25   32 ar
    40   26   27 2
    41   26   28 ar
    42   28   29 ar
    43   29   30 1
    44   29   31 ar
    45   30   43 1
    46   30   44 1
    47   31   32 ar
    48   31   45 1
@<TRIPOS>SUBSTRUCTURE
     1 GTP         1 GROUP 0 A     ****
@<TRIPOS>MOLECULE
[[[5-(2-amino-6-oxo-7,8-dihydro-3~{H}-purin-8-ylium-9-yl)-3,4-dihydroxy-tetrahydrofuran-2-yl]methoxy-oxido-phosphoryl]oxy-oxido-phosphoryl] hydrogen phosphate
   46    48     1     0     0
SMALL
USER_CHARGES

@<TRIPOS>ATOM
      1 PG          3.9078   -2.8790   -6.9207 P.3       1 GTP         1.5447
      2 O1G         4.2662   -1.9382   -8.0493 O.co2     1 GTP        -0.8705
      3 O2G         4.5952   -2.7788   -5.5772 O.co2     1 GTP        -0.8705
      4 O3G         4.0466   -4.4136   -7.4609 O.3       1 GTP        -0.7914
      5 O3B         2.2921   -2.8433   -6.6922 O.3       1 GTP        -0.8116
      6 PB          1.3386   -1.6326   -6.1530 P.3       1 GTP         1.6738
      7 O1B         1.5787   -0.4087   -7.0085 O.co2     1 GTP        -0.8763
      8 O2B        -0.0545   -2.1709   -5.9143 O.co2     1 GTP        -0.8763
      9 O3A         2.0073   -1.4085   -4.6808 O.3       1 GTP        -0.8005
     10 PA          2.1633   -2.4499   -3.4314 P.3       1 GTP         1.5754
     11 O1A         0.7838   -2.8157   -2.9279 O.co2     1 GTP        -0.8771
     12 O2A         3.1654   -3.5175   -3.8130 O.co2     1 GTP        -0.8771
     13 O5'         2.9216   -1.4836   -2.3516 O.3       1 GTP        -0.5809
     14 C5'         2.2816   -0.2918   -1.9206 C.3       1 GTP         0.1986
     15 C4'         2.7248    0.0226   -0.4980 C.3       1 GTP         0.0418
     16 O4'         2.4697    1.4219   -0.2462 O.3       1 GTP        -0.3505
     17 C3'         1.9404   -0.7419    0.5596 C.3       1 GTP         0.0909
     18 O3'         2.7418   -0.8086    1.7389 O.3       1 GTP        -0.6187
     19 C2'         0.7477    0.1630    0.7858 C.3       1 GTP         0.0706
     20 O2'         0.1373   -0.0577    2.0407 O.3       1 GTP        -0.6294
     21 C1'         1.3733    1.5427    0.6747 C.3       1 GTP         0.3895
     22 N9          0.4520    2.5240    0.1767 N.pl3     1 GTP        -0.4733
     23 C8          0.2012    2.8401   -1.0899 C.ar      1 GTP         0.2958
     24 N7         -0.7168    3.7990   -1.1981 N.pl3     1 GTP        -0.4933
     25 C5         -1.0645    4.1043    0.0896 C.ar      1 GTP        -0.1494
     26 C6         -2.0336    5.0870    0.5973 C.ar      1 GTP         0.7954
     27 O6         -2.6730    5.7839   -0.1834 O.2       1 GTP        -0.5729
     28 N1         -2.1539    5.1517    1.9868 N.2       1 GTP        -0.7443
     29 C2         -1.4288    4.3650    2.7566 C.ar      1 GTP         0.8831
     30 N2         -1.5126    4.3922    4.1250 N.pl3     1 GTP        -0.9204
     31 N3         -0.5167    3.4388    2.2748 N.pl3     1 GTP        -0.7173
     32 C4         -0.3638    3.3392    0.9318 C.ar      1 GTP         0.2626
     33 HOG3        3.8461   -5.1468   -6.8408 H         1 GTP         0.4102
     34 H5'         2.5589    0.5217   -2.5976 H         1 GTP         0.0289
     35 H5''        1.1982   -0.4388   -1.9617 H         1 GTP         0.0289
     36 H4'         3.8044   -0.1397   -0.4040 H         1 GTP         0.2056
     37 H3'         1.6764   -1.7639    0.2728 H         1 GTP         0.1140
     38 HO3'        2.2232   -1.2979    2.3953 H         1 GTP         0.4287
     39 H2'        -0.0011    0.0027    0.0003 H         1 GTP         0.0809
     40 HO2'       -0.1563   -0.9855    2.0596 H         1 GTP         0.4385
     41 H1'         1.7826    1.9024    1.6451 H         1 GTP         0.0794
     42 H8          0.6787    2.3803   -1.9373 H         1 GTP         0.3821
     43 HN21       -2.1462    5.0320    4.5446 H         1 GTP         0.4411
     44 HN22       -0.9365    3.7712    4.6440 H         1 GTP         0.4411
     45 H45         0.0318    2.8419    2.8816 H         1 GTP         0.4819
     46 H46        -1.0718    4.2049   -2.0526 H         1 GTP         0.5182
@<TRIPOS>BOND
     1    1    2 2
     2    1    3 1
     3    1    4 1
     4    1    5 1
     5    4   33 1
     6    5    6 1
     7    6    7 2
     8    6    8 1
     9    6    9 1
    10    9   10 1
    11   10   11 2
    12   10   12 1
    13   10   13 1
    14   13   14 1
    15   14   15 1
    16   14   34 1
    17   14   35 1
    18   15   16 1
    19   15   17 1
    20   15   36 1
    21   16   21 1
    22   17   18 1
    23   17   19 1
    24   17   37 1
    25   18   38 1
    26   19   20 1
    27   19   21 1
    28   19   39 1
    29   20   40 1
    30   21   22 1
    31   21   41 1
    32   22   23 ar
    33   22   32 ar
    34   23   24 ar
    35   23   42 1
    36   24   25 ar
    37   24   46 1
    38   25   26 ar
    39   25   32 ar
    40   26   27 2
    41   26   28 ar
    42   28   29 ar
    43   29   30 1
    44   29   31 ar
    45   30   43 1
    46   30   44 1
    47   31   32 ar
    48   31   45 1
@<TRIPOS>SUBSTRUCTURE
     1 GTP         1 GROUP 0 A     ****
@<TRIPOS>MOLECULE
[[[5-(2-amino-6-oxo-7,8-dihydro-3~{H}-purin-8-ylium-9-yl)-3,4-dihydroxy-tetrahydrofuran-2-yl]methoxy-oxido-phosphoryl]oxy-oxido-phosphoryl] hydrogen phosphate
   46    48     1     0     0
SMALL
USER_CHARGES

@<TRIPOS>ATOM
      1 PG          1.5896   -1.7891   -7.8637 P.3       1 GTP         1.5447
      2 O1G         0.5661   -1.6205   -8.9643 O.co2     1 GTP        -0.8705
      3 O2G         2.9466   -1.1275   -7.9561 O.co2     1 GTP        -0.8705
      4 O3G         1.8081   -3.3854   -7.5988 O.3       1 GTP        -0.7914
      5 O3B         0.9045   -1.3938   -6.4360 O.3       1 GTP        -0.8116
      6 PB          1.4924   -1.5338   -4.9194 P.3       1 GTP         1.6738
      7 O1B         0.5144   -0.8941   -3.9593 O.co2     1 GTP        -0.8763
      8 O2B         1.9956   -2.9452   -4.7137 O.co2     1 GTP        -0.8763
      9 O3A         2.8145   -0.5869   -5.0626 O.3       1 GTP        -0.8005
     10 PA          3.9554   -0.2064   -3.9565 P.3       1 GTP         1.5754
     11 O1A         4.5474   -1.4866   -3.4080 O.co2     1 GTP        -0.8771
     12 O2A         4.8382    0.8825   -4.5263 O.co2     1 GTP        -0.8771
     13 O5'         3.0213    0.5153   -2.8245 O.3       1 GTP        -0.5809
     14 C5'         2.2816   -0.2918   -1.9206 C.3       1 GTP         0.1986
     15 C4'         2.7248    0.0226   -0.4980 C.3       1 GTP         0.0418
     16 O4'         2.4697    1.4219   -0.2462 O.3       1 GTP        -0.3505
     17 C3'         1.9404   -0.7419    0.5596 C.3       1 GTP         0.0909
     18 O3'         2.7418   -0.8086    1.7389 O.3       1 GTP        -0.6187
     19 C2'         0.7477    0.1630    0.7858 C.3       1 GTP         0.0706
     20 O2'         0.1373   -0.0577    2.0407 O.3       1 GTP        -0.6294
     21 C1'         1.3733    1.5427    0.6747 C.3       1 GTP         0.3895
     22 N9          0.4520    2.5240    0.1767 N.pl3     1 GTP        -0.4733
     23 C8          0.2012    2.8401   -1.0899 C.ar      1 GTP         0.2958
     24 N7         -0.7168    3.7990   -1.1981 N.pl3     1 GTP        -0.4933
     25 C5         -1.0645    4.1043    0.0896 C.ar      1 GTP        -0.1494
     26 C6         -2.0336    5.0870    0.5973 C.ar      1 GTP         0.7954
     27 O6         -2.6730    5.7839   -0.1834 O.2       1 GTP        -0.5729
     28 N1         -2.1539    5.1517    1.9868 N.2       1 GTP        -0.7443
     29 C2         -1.4288    4.3650    2.7566 C.ar      1 GTP         0.8831
     30 N2         -1.5126    4.3922    4.1250 N.pl3     1 GTP        -0.9204
     31 N3         -0.5167    3.4388    2.2748 N.pl3     1 GTP        -0.7173
     32 C4         -0.3638    3.3392    0.9318 C.ar      1 GTP         0.2626
     33 HOG3        2.4476   -3.6608   -6.9078 H         1 GTP         0.4102
     34 H5'         1.2163   -0.0770   -2.0471 H         1 GTP         0.0289
     35 H5''        2.4655   -1.3443   -2.1563 H         1 GTP         0.0289
     36 H4'         3.8044   -0.1397   -0.4040 H         1 GTP         0.2056
     37 H3'         1.6764   -1.7639    0.2728 H         1 GTP         0.1140
     38 HO3'        2.2232   -1.2979    2.3953 H         1 GTP         0.4287
     39 H2'        -0.0011    0.0027    0.0003 H         1 GTP         0.0809
     40 HO2'       -0.1563   -0.9855    2.0596 H         1 GTP         0.4385
     41 H1'         1.7826    1.9024    1.6451 H         1 GTP         0.0794
     42 H8          0.6787    2.3803   -1.9373 H         1 GTP         0.3821
     43 HN21       -2.1462    5.0320    4.5446 H         1 GTP         0.4411
     44 HN22       -0.9365    3.7712    4.6440 H         1 GTP         0.4411
     45 H45         0.0318    2.8419    2.8816 H         1 GTP         0.4819
     46 H46        -1.0718    4.2049   -2.0526 H         1 GTP         0.5182
@<TRIPOS>BOND
     1    1    2 2
     2    1    3 1
     3    1    4 1
     4    1    5 1
     5    4   33 1
     6    5    6 1
     7    6    7 2
     8    6    8 1
     9    6    9 1
    10    9   10 1
    11   10   11 2
    12   10   12 1
    13   10   13 1
    14   13   14 1
    15   14   15 1
    16   14   34 1
    17   14   35 1
    18   15   16 1
    19   15   17 1
    20   15   36 1
    21   16   21 1
    22   17   18 1
    23   17   19 1
    24   17   37 1
    25   18   38 1
    26   19   20 1
    27   19   21 1
    28   19   39 1
    29   20   40 1
    30   21   22 1
    31   21   41 1
    32   22   23 ar
    33   22   32 ar
    34   23   24 ar
    35   23   42 1
    36   24   25 ar
    37   24   46 1
    38   25   26 ar
    39   25   32 ar
    40   26   27 2
    41   26   28 ar
    42   28   29 ar
    43   29   30 1
    44   29   31 ar
    45   30   43 1
    46   30   44 1
    47   31   32 ar
    48   31   45 1
@<TRIPOS>SUBSTRUCTURE
     1 GTP         1 GROUP 0 A     ****
@<TRIPOS>MOLECULE
[[[5-(2-amino-6-oxo-7,8-dihydro-3~{H}-purin-8-ylium-9-yl)-3,4-dihydroxy-tetrahydrofuran-2-yl]methoxy-oxido-phosphoryl]oxy-oxido-phosphoryl] hydrogen phosphate
   46    48     1     0     0
SMALL
USER_CHARGES

@<TRIPOS>ATOM
      1 PG          0.4212   -0.0652   -7.2516 P.3       1 GTP         1.5447
      2 O1G         0.1197   -0.4489   -8.6831 O.co2     1 GTP        -0.8705
      3 O2G        -0.5958    0.6800   -6.4160 O.co2     1 GTP        -0.8705
      4 O3G         1.8258    0.7667   -7.2224 O.3       1 GTP        -0.7914
      5 O3B         0.9045   -1.3938   -6.4360 O.3       1 GTP        -0.8116
      6 PB          1.4924   -1.5338   -4.9194 P.3       1 GTP         1.6738
      7 O1B         0.5144   -0.8941   -3.9593 O.co2     1 GTP        -0.8763
      8 O2B         1.9956   -2.9452   -4.7137 O.co2     1 GTP        -0.8763
      9 O3A         2.8145   -0.5869   -5.0626 O.3       1 GTP        -0.8005
     10 PA          3.9554   -0.2064   -3.9565 P.3       1 GTP         1.5754
     11 O1A         4.5474   -1.4866   -3.4080 O.co2     1 GTP        -0.8771
     12 O2A         4.8382    0.8825   -4.5263 O.co2     1 GTP        -0.8771
     13 O5'         3.0213    0.5153   -2.8245 O.3       1 GTP        -0.5809
     14 C5'         2.2816   -0.2918   -1.9206 C.3       1 GTP         0.1986
     15 C4'         2.7248    0.0226   -0.4980 C.3       1 GTP         0.0418
     16 O4'         2.4697    1.4219   -0.2462 O.3       1 GTP        -0.3505
     17 C3'         1.9404   -0.7419    0.5596 C.3       1 GTP         0.0909
     18 O3'         2.7418   -0.8086    1.7389 O.3       1 GTP        -0.6187
     19 C2'         0.7477    0.1630    0.7858 C.3       1 GTP         0.0706
     20 O2'         0.1373   -0.0577    2.0407 O.3       1 GTP        -0.6294
     21 C1'         1.3733    1.5427    0.6747 C.3       1 GTP         0.3895
     22 N9          0.4520    2.5240    0.1767 N.pl3     1 GTP        -0.4733
     23 C8          0.2012    2.8401   -1.0899 C.ar      1 GTP         0.2958
     24 N7         -0.7168    3.7990   -1.1981 N.pl3     1 GTP        -0.4933
     25 C5         -1.0645    4.1043    0.0896 C.ar      1 GTP        -0.1494
     26 C6         -2.0336    5.0870    0.5973 C.ar      1 GTP         0.7954
     27 O6         -2.6730    5.7839   -0.1834 O.2       1 GTP        -0.5729
     28 N1         -2.1539    5.1517    1.9868 N.2       1 GTP        -0.7443
     29 C2         -1.4288    4.3650    2.7566 C.ar      1 GTP         0.8831
     30 N2         -1.5126    4.3922    4.1250 N.pl3     1 GTP        -0.9204
     31 N3         -0.5167    3.4388    2.2748 N.pl3     1 GTP        -0.7173
     32 C4         -0.3638    3.3392    0.9318 C.ar      1 GTP         0.2626
     33 HOG3        2.1602    1.0882   -6.3580 H         1 GTP         0.4102
     34 H5'         1.2163   -0.0770   -2.0471 H         1 GTP         0.0289
     35 H5''        2.4655   -1.3443   -2.1563 H         1 GTP         0.0289
     36 H4'         3.8044   -0.1397   -0.4040 H         1 GTP         0.2056
     37 H3'         1.6764   -1.7639    0.2728 H         1 GTP         0.1140
     38 HO3'        2.2232   -1.2979    2.3953 H         1 GTP         0.4287
     39 H2'        -0.0011    0.0027    0.0003 H         1 GTP         0.0809
     40 HO2'       -0.6141    0.5574    2.1082 H         1 GTP         0.4385
     41 H1'         1.7826    1.9024    1.6451 H         1 GTP         0.0794
     42 H8          0.6787    2.3803   -1.9373 H         1 GTP         0.3821
     43 HN21       -2.1462    5.0320    4.5446 H         1 GTP         0.4411
     44 HN22       -0.9365    3.7712    4.6440 H         1 GTP         0.4411
     45 H45         0.0318    2.8419    2.8816 H         1 GTP         0.4819
     46 H46        -1.0718    4.2049   -2.0526 H         1 GTP         0.5182
@<TRIPOS>BOND
     1    1    2 2
     2    1    3 1
     3    1    4 1
     4    1    5 1
     5    4   33 1
     6    5    6 1
     7    6    7 2
     8    6    8 1
     9    6    9 1
    10    9   10 1
    11   10   11 2
    12   10   12 1
    13   10   13 1
    14   13   14 1
    15   14   15 1
    16   14   34 1
    17   14   35 1
    18   15   16 1
    19   15   17 1
    20   15   36 1
    21   16   21 1
    22   17   18 1
    23   17   19 1
    24   17   37 1
    25   18   38 1
    26   19   20 1
    27   19   21 1
    28   19   39 1
    29   20   40 1
    30   21   22 1
    31   21   41 1
    32   22   23 ar
    33   22   32 ar
    34   23   24 ar
    35   23   42 1
    36   24   25 ar
    37   24   46 1
    38   25   26 ar
    39   25   32 ar
    40   26   27 2
    41   26   28 ar
    42   28   29 ar
    43   29   30 1
    44   29   31 ar
    45   30   43 1
    46   30   44 1
    47   31   32 ar
    48   31   45 1
@<TRIPOS>SUBSTRUCTURE
     1 GTP         1 GROUP 0 A     ****
@<TRIPOS>MOLECULE
[[[5-(2-amino-6-oxo-7,8-dihydro-3~{H}-purin-8-ylium-9-yl)-3,4-dihydroxy-tetrahydrofuran-2-yl]methoxy-oxido-phosphoryl]oxy-oxido-phosphoryl] hydrogen phosphate
   46    48     1     0     0
SMALL
USER_CHARGES

@<TRIPOS>ATOM
      1 PG          2.8417    2.4772   -7.2871 P.3       1 GTP         1.5447
      2 O1G         1.6599    3.2380   -7.8456 O.co2     1 GTP        -0.8705
      3 O2G         3.3923    2.7948   -5.9147 O.co2     1 GTP        -0.8705
      4 O3G         4.0644    2.5532   -8.3665 O.3       1 GTP        -0.7914
      5 O3B         2.5333    0.8770   -7.3760 O.3       1 GTP        -0.8116
      6 PB          1.4222   -0.0196   -6.5842 P.3       1 GTP         1.6738
      7 O1B         0.0573    0.5929   -6.8063 O.co2     1 GTP        -0.8763
      8 O2B         1.6864   -1.4841   -6.8547 O.co2     1 GTP        -0.8763
      9 O3A         1.9033    0.2622   -5.0499 O.3       1 GTP        -0.8005
     10 PA          3.3343   -0.0514   -4.3264 P.3       1 GTP         1.5754
     11 O1A         3.5418   -1.5500   -4.2876 O.co2     1 GTP        -0.8771
     12 O2A         4.3842    0.8688   -4.9100 O.co2     1 GTP        -0.8771
     13 O5'         3.0213    0.5153   -2.8245 O.3       1 GTP        -0.5809
     14 C5'         2.2816   -0.2918   -1.9206 C.3       1 GTP         0.1986
     15 C4'         2.7248    0.0226   -0.4980 C.3       1 GTP         0.0418
     16 O4'         2.4697    1.4219   -0.2462 O.3       1 GTP        -0.3505
     17 C3'         1.9404   -0.7419    0.5596 C.3       1 GTP         0.0909
     18 O3'         2.7418   -0.8086    1.7389 O.3       1 GTP        -0.6187
     19 C2'         0.7477    0.1630    0.7858 C.3       1 GTP         0.0706
     20 O2'         0.1373   -0.0577    2.0407 O.3       1 GTP        -0.6294
     21 C1'         1.3733    1.5427    0.6747 C.3       1 GTP         0.3895
     22 N9          0.4520    2.5240    0.1767 N.pl3     1 GTP        -0.4733
     23 C8          0.2012    2.8401   -1.0899 C.ar      1 GTP         0.2958
     24 N7         -0.7168    3.7990   -1.1981 N.pl3     1 GTP        -0.4933
     25 C5         -1.0645    4.1043    0.0896 C.ar      1 GTP        -0.1494
     26 C6         -2.0336    5.0870    0.5973 C.ar      1 GTP         0.7954
     27 O6         -2.6730    5.7839   -0.1834 O.2       1 GTP        -0.5729
     28 N1         -2.1539    5.1517    1.9868 N.2       1 GTP        -0.7443
     29 C2         -1.4288    4.3650    2.7566 C.ar      1 GTP         0.8831
     30 N2         -1.5126    4.3922    4.1250 N.pl3     1 GTP        -0.9204
     31 N3         -0.5167    3.4388    2.2748 N.pl3     1 GTP        -0.7173
     32 C4         -0.3638    3.3392    0.9318 C.ar      1 GTP         0.2626
     33 HOG3        4.9086    2.1038   -8.1482 H         1 GTP         0.4102
     34 H5'         1.2163   -0.0770   -2.0471 H         1 GTP         0.0289
     35 H5''        2.4655   -1.3443   -2.1563 H         1 GTP         0.0289
     36 H4'         3.8044   -0.1397   -0.4040 H         1 GTP         0.2056
     37 H3'         1.6764   -1.7639    0.2728 H         1 GTP         0.1140
     38 HO3'        3.5554   -1.2733    1.4914 H         1 GTP         0.4287
     39 H2'        -0.0011    0.0027    0.0003 H         1 GTP         0.0809
     40 HO2'       -0.6141    0.5574    2.1082 H         1 GTP         0.4385
     41 H1'         1.7826    1.9024    1.6451 H         1 GTP         0.0794
     42 H8          0.6787    2.3803   -1.9373 H         1 GTP         0.3821
     43 HN21       -2.1462    5.0320    4.5446 H         1 GTP         0.4411
     44 HN22       -0.9365    3.7712    4.6440 H         1 GTP         0.4411
     45 H45         0.0318    2.8419    2.8816 H         1 GTP         0.4819
     46 H46        -1.0718    4.2049   -2.0526 H         1 GTP         0.5182
@<TRIPOS>BOND
     1    1    2 2
     2    1    3 1
     3    1    4 1
     4    1    5 1
     5    4   33 1
     6    5    6 1
     7    6    7 2
     8    6    8 1
     9    6    9 1
    10    9   10 1
    11   10   11 2
    12   10   12 1
    13   10   13 1
    14   13   14 1
    15   14   15 1
    16   14   34 1
    17   14   35 1
    18   15   16 1
    19   15   17 1
    20   15   36 1
    21   16   21 1
    22   17   18 1
    23   17   19 1
    24   17   37 1
    25   18   38 1
    26   19   20 1
    27   19   21 1
    28   19   39 1
    29   20   40 1
    30   21   22 1
    31   21   41 1
    32   22   23 ar
    33   22   32 ar
    34   23   24 ar
    35   23   42 1
    36   24   25 ar
    37   24   46 1
    38   25   26 ar
    39   25   32 ar
    40   26   27 2
    41   26   28 ar
    42   28   29 ar
    43   29   30 1
    44   29   31 ar
    45   30   43 1
    46   30   44 1
    47   31   32 ar
    48   31   45 1
@<TRIPOS>SUBSTRUCTURE
     1 GTP         1 GROUP 0 A     ****
@<TRIPOS>MOLECULE
[[[5-(2-amino-6-oxo-7,8-dihydro-3~{H}-purin-8-ylium-9-yl)-3,4-dihydroxy-tetrahydrofuran-2-yl]methoxy-oxido-phosphoryl]oxy-oxido-phosphoryl] hydrogen phosphate
   46    48     1     0     0
SMALL
USER_CHARGES

@<TRIPOS>ATOM
      1 PG         -5.7684   -4.4614   -1.8162 P.3       1 GTP         1.5447
      2 O1G        -7.1108   -3.8653   -1.4554 O.co2     1 GTP        -0.8705
      3 O2G        -4.8385   -3.7567   -2.7786 O.co2     1 GTP        -0.8705
      4 O3G        -6.0042   -5.9875   -2.3466 O.3       1 GTP        -0.7914
      5 O3B        -4.9519   -4.8005   -0.4443 O.3       1 GTP        -0.8116
      6 PB         -3.5352   -5.5853   -0.2372 P.3       1 GTP         1.6738
      7 O1B        -3.7137   -7.0271   -0.6575 O.co2     1 GTP        -0.8763
      8 O2B        -2.4140   -4.7329   -0.7883 O.co2     1 GTP        -0.8763
      9 O3A        -3.4246   -5.5011    1.3893 O.3       1 GTP        -0.8005
     10 PA         -2.2652   -6.0681    2.3913 P.3       1 GTP         1.5754
     11 O1A        -2.5853   -5.6288    3.8037 O.co2     1 GTP        -0.8771
     12 O2A        -2.0109   -7.5233    2.0634 O.co2     1 GTP        -0.8771
     13 O5'        -0.9724   -5.2440    1.8220 O.3       1 GTP        -0.5809
     14 C5'        -0.7840   -3.8935    2.2172 C.3       1 GTP         0.1986
     15 C4'        -0.0724   -3.1466    1.1027 C.3       1 GTP         0.0418
     16 O4'        -0.8674   -3.1929   -0.0945 O.3       1 GTP        -0.3505
     17 C3'         0.1338   -1.6715    1.4027 C.3       1 GTP         0.0909
     18 O3'         1.2893   -1.4445    2.1808 O.3       1 GTP        -0.6187
     19 C2'         0.2158   -1.0724    0.0128 C.3       1 GTP         0.0706
     20 O2'         1.5141   -1.2448   -0.5513 O.3       1 GTP        -0.6294
     21 C1'        -0.7897   -1.9176   -0.7583 C.3       1 GTP         0.3895
     22 N9         -2.1040   -1.3333   -0.7704 N.pl3     1 GTP        -0.4733
     23 C8         -3.0774   -1.4939    0.1205 C.ar      1 GTP         0.2958
     24 N7         -4.1709   -0.8031   -0.1972 N.pl3     1 GTP        -0.4933
     25 C5         -3.8606   -0.1662   -1.3678 C.ar      1 GTP        -0.1494
     26 C6         -4.6738    0.7391   -2.1934 C.ar      1 GTP         0.7954
     27 O6         -5.8186    1.0214   -1.8562 O.2       1 GTP        -0.5729
     28 N1         -4.0520    1.2260   -3.3448 N.2       1 GTP        -0.7443
     29 C2         -2.8155    0.8734   -3.6351 C.ar      1 GTP         0.8831
     30 N2         -2.1637    1.3257   -4.7536 N.pl3     1 GTP        -0.9204
     31 N3         -2.0511    0.0205   -2.8541 N.pl3     1 GTP        -0.7173
     32 C4         -2.6117   -0.4790   -1.7258 C.ar      1 GTP         0.2626
     33 HOG3       -5.2223   -6.5123   -2.6214 H         1 GTP         0.4102
     34 H5'        -1.7618   -3.4448    2.4164 H         1 GTP         0.0289
     35 H5''       -0.1874   -3.8744    3.1341 H         1 GTP         0.0289
     36 H4'         0.8874   -3.6466    0.8805 H         1 GTP         0.2056
     37 H3'        -0.7376   -1.2333    1.9867 H         1 GTP         0.1140
     38 HO3'        1.3408   -0.4870    2.3219 H         1 GTP         0.4287
     39 H2'        -0.0384   -0.0310    0.0096 H         1 GTP         0.0809
     40 HO2'        2.1463   -0.7958    0.0370 H         1 GTP         0.4385
     41 H1'        -0.4769   -2.1002   -1.8093 H         1 GTP         0.0794
     42 H8         -3.0010   -2.1083    1.0004 H         1 GTP         0.3821
     43 HN21       -2.6485    1.9422   -5.3633 H         1 GTP         0.4411
     44 HN22       -1.2319    1.0195   -4.9110 H         1 GTP         0.4411
     45 H45        -1.1018   -0.2391   -3.0927 H         1 GTP         0.4819
     46 H46        -5.0365   -0.7653    0.3226 H         1 GTP         0.5182
@<TRIPOS>BOND
     1    1    2 2
     2    1    3 1
     3    1    4 1
     4    1    5 1
     5    4   33 1
     6    5    6 1
     7    6    7 2
     8    6    8 1
     9    6    9 1
    10    9   10 1
    11   10   11 2
    12   10   12 1
    13   10   13 1
    14   13   14 1
    15   14   15 1
    16   14   34 1
    17   14   35 1
    18   15   16 1
    19   15   17 1
    20   15   36 1
    21   16   21 1
    22   17   18 1
    23   17   19 1
    24   17   37 1
    25   18   38 1
    26   19   20 1
    27   19   21 1
    28   19   39 1
    29   20   40 1
    30   21   22 1
    31   21   41 1
    32   22   23 ar
    33   22   32 ar
    34   23   24 ar
    35   23   42 1
    36   24   25 ar
    37   24   46 1
    38   25   26 ar
    39   25   32 ar
    40   26   27 2
    41   26   28 ar
    42   28   29 ar
    43   29   30 1
    44   29   31 ar
    45   30   43 1
    46   30   44 1
    47   31   32 ar
    48   31   45 1
@<TRIPOS>SUBSTRUCTURE
     1 GTP         1 GROUP 0 A     ****
@<TRIPOS>MOLECULE
[[[5-(2-amino-6-oxo-7,8-dihydro-3~{H}-purin-8-ylium-9-yl)-3,4-dihydroxy-tetrahydrofuran-2-yl]methoxy-oxido-phosphoryl]oxy-oxido-phosphoryl] hydrogen phosphate
   46    48     1     0     0
SMALL
USER_CHARGES

@<TRIPOS>ATOM
      1 PG         -6.0214   -4.2249    2.0331 P.3       1 GTP         1.5447
      2 O1G        -6.6761   -5.4030    1.3468 O.co2     1 GTP        -0.8705
      3 O2G        -6.7580   -2.9143    2.1989 O.co2     1 GTP        -0.8705
      4 O3G        -4.5921   -3.9274    1.3021 O.3       1 GTP        -0.7914
      5 O3B        -5.4591   -4.7034    3.4887 O.3       1 GTP        -0.8116
      6 PB         -4.4764   -5.9495    3.8722 P.3       1 GTP         1.6738
      7 O1B        -4.1484   -5.8723    5.3466 O.co2     1 GTP        -0.8763
      8 O2B        -5.0182   -7.2155    3.2468 O.co2     1 GTP        -0.8763
      9 O3A        -3.1638   -5.5263    2.9987 O.3       1 GTP        -0.8005
     10 PA         -1.7207   -6.2770    2.8455 P.3       1 GTP         1.5754
     11 O1A        -1.0265   -6.2759    4.1903 O.co2     1 GTP        -0.8771
     12 O2A        -1.9224   -7.5608    2.0704 O.co2     1 GTP        -0.8771
     13 O5'        -0.9724   -5.2440    1.8220 O.3       1 GTP        -0.5809
     14 C5'        -0.7840   -3.8935    2.2172 C.3       1 GTP         0.1986
     15 C4'        -0.0724   -3.1466    1.1027 C.3       1 GTP         0.0418
     16 O4'        -0.8674   -3.1929   -0.0945 O.3       1 GTP        -0.3505
     17 C3'         0.1338   -1.6715    1.4027 C.3       1 GTP         0.0909
     18 O3'         1.2893   -1.4445    2.1808 O.3       1 GTP        -0.6187
     19 C2'         0.2158   -1.0724    0.0128 C.3       1 GTP         0.0706
     20 O2'         1.5141   -1.2448   -0.5513 O.3       1 GTP        -0.6294
     21 C1'        -0.7897   -1.9176   -0.7583 C.3       1 GTP         0.3895
     22 N9         -2.1040   -1.3333   -0.7704 N.pl3     1 GTP        -0.4733
     23 C8         -3.0774   -1.4939    0.1205 C.ar      1 GTP         0.2958
     24 N7         -4.1709   -0.8031   -0.1972 N.pl3     1 GTP        -0.4933
     25 C5         -3.8606   -0.1662   -1.3678 C.ar      1 GTP        -0.1494
     26 C6         -4.6738    0.7391   -2.1934 C.ar      1 GTP         0.7954
     27 O6         -5.8186    1.0214   -1.8562 O.2       1 GTP        -0.5729
     28 N1         -4.0520    1.2260   -3.3448 N.2       1 GTP        -0.7443
     29 C2         -2.8155    0.8734   -3.6351 C.ar      1 GTP         0.8831
     30 N2         -2.1637    1.3257   -4.7536 N.pl3     1 GTP        -0.9204
     31 N3         -2.0511    0.0205   -2.8541 N.pl3     1 GTP        -0.7173
     32 C4         -2.6117   -0.4790   -1.7258 C.ar      1 GTP         0.2626
     33 HOG3       -4.0426   -3.1863    1.6354 H         1 GTP         0.4102
     34 H5'        -1.7618   -3.4448    2.4164 H         1 GTP         0.0289
     35 H5''       -0.1874   -3.8744    3.1341 H         1 GTP         0.0289
     36 H4'         0.8874   -3.6466    0.8805 H         1 GTP         0.2056
     37 H3'        -0.7376   -1.2333    1.9867 H         1 GTP         0.1140
     38 HO3'        1.3408   -0.4870    2.3219 H         1 GTP         0.4287
     39 H2'        -0.0384   -0.0310    0.0096 H         1 GTP         0.0809
     40 HO2'        2.1463   -0.7958    0.0370 H         1 GTP         0.4385
     41 H1'        -0.4769   -2.1002   -1.8093 H         1 GTP         0.0794
     42 H8         -3.0010   -2.1083    1.0004 H         1 GTP         0.3821
     43 HN21       -2.6485    1.9422   -5.3633 H         1 GTP         0.4411
     44 HN22       -1.2319    1.0195   -4.9110 H         1 GTP         0.4411
     45 H45        -1.1018   -0.2391   -3.0927 H         1 GTP         0.4819
     46 H46        -5.0365   -0.7653    0.3226 H         1 GTP         0.5182
@<TRIPOS>BOND
     1    1    2 2
     2    1    3 1
     3    1    4 1
     4    1    5 1
     5    4   33 1
     6    5    6 1
     7    6    7 2
     8    6    8 1
     9    6    9 1
    10    9   10 1
    11   10   11 2
    12   10   12 1
    13   10   13 1
    14   13   14 1
    15   14   15 1
    16   14   34 1
    17   14   35 1
    18   15   16 1
    19   15   17 1
    20   15   36 1
    21   16   21 1
    22   17   18 1
    23   17   19 1
    24   17   37 1
    25   18   38 1
    26   19   20 1
    27   19   21 1
    28   19   39 1
    29   20   40 1
    30   21   22 1
    31   21   41 1
    32   22   23 ar
    33   22   32 ar
    34   23   24 ar
    35   23   42 1
    36   24   25 ar
    37   24   46 1
    38   25   26 ar
    39   25   32 ar
    40   26   27 2
    41   26   28 ar
    42   28   29 ar
    43   29   30 1
    44   29   31 ar
    45   30   43 1
    46   30   44 1
    47   31   32 ar
    48   31   45 1
@<TRIPOS>SUBSTRUCTURE
     1 GTP         1 GROUP 0 A     ****
@<TRIPOS>MOLECULE
[[[5-(2-amino-6-oxo-7,8-dihydro-3~{H}-purin-8-ylium-9-yl)-3,4-dihydroxy-tetrahydrofuran-2-yl]methoxy-oxido-phosphoryl]oxy-oxido-phosphoryl] hydrogen phosphate
   46    48     1     0     0
SMALL
USER_CHARGES

@<TRIPOS>ATOM
      1 PG          1.2094   -3.0244   -5.6502 P.3       1 GTP         1.5447
      2 O1G         1.6741   -4.4635   -5.6308 O.co2     1 GTP        -0.8705
      3 O2G         0.8775   -2.2974   -4.3660 O.co2     1 GTP        -0.8705
      4 O3G        -0.0694   -2.9058   -6.6584 O.3       1 GTP        -0.7914
      5 O3B         2.2784   -2.1324   -6.5019 O.3       1 GTP        -0.8116
      6 PB          3.8313   -1.7576   -6.1646 P.3       1 GTP         1.6738
      7 O1B         4.5955   -3.0383   -5.9132 O.co2     1 GTP        -0.8763
      8 O2B         4.3175   -0.7279   -7.1600 O.co2     1 GTP        -0.8763
      9 O3A         3.6096   -0.9687   -4.7528 O.3       1 GTP        -0.8005
     10 PA          2.7407    0.3769   -4.4297 P.3       1 GTP         1.5754
     11 O1A         3.3568    1.5435   -5.1712 O.co2     1 GTP        -0.8771
     12 O2A         1.2702    0.0493   -4.5704 O.co2     1 GTP        -0.8771
     13 O5'         3.0213    0.5153   -2.8245 O.3       1 GTP        -0.5809
     14 C5'         2.2816   -0.2918   -1.9206 C.3       1 GTP         0.1986
     15 C4'         2.7248    0.0226   -0.4980 C.3       1 GTP         0.0418
     16 O4'         2.4697    1.4219   -0.2462 O.3       1 GTP        -0.3505
     17 C3'         1.9404   -0.7419    0.5596 C.3       1 GTP         0.0909
     18 O3'         2.7418   -0.8086    1.7389 O.3       1 GTP        -0.6187
     19 C2'         0.7477    0.1630    0.7858 C.3       1 GTP         0.0706
     20 O2'         0.1373   -0.0577    2.0407 O.3       1 GTP        -0.6294
     21 C1'         1.3733    1.5427    0.6747 C.3       1 GTP         0.3895
     22 N9          0.4520    2.5240    0.1767 N.pl3     1 GTP        -0.4733
     23 C8         -0.2136    2.5096   -0.9739 C.ar      1 GTP         0.2958
     24 N7         -0.9896    3.5820   -1.1212 N.pl3     1 GTP        -0.4933
     25 C5         -0.7962    4.3186    0.0156 C.ar      1 GTP        -0.1494
     26 C6         -1.3875    5.6031    0.4192 C.ar      1 GTP         0.7954
     27 O6         -2.1869    6.1731   -0.3158 O.2       1 GTP        -0.5729
     28 N1         -0.9745    6.0930    1.6597 N.2       1 GTP        -0.7443
     29 C2         -0.1105    5.4166    2.3900 C.ar      1 GTP         0.8831
     30 N2          0.3241    5.8571    3.6138 N.pl3     1 GTP        -0.9204
     31 N3          0.4444    4.2053    2.0072 N.pl3     1 GTP        -0.7173
     32 C4          0.0746    3.6889    0.8098 C.ar      1 GTP         0.2626
     33 HOG3       -0.4883   -2.0271   -6.7799 H         1 GTP         0.4102
     34 H5'         1.2163   -0.0770   -2.0471 H         1 GTP         0.0289
     35 H5''        2.4655   -1.3443   -2.1563 H         1 GTP         0.0289
     36 H4'         3.8044   -0.1397   -0.4040 H         1 GTP         0.2056
     37 H3'         1.6764   -1.7639    0.2728 H         1 GTP         0.1140
     38 HO3'        2.2232   -1.2979    2.3953 H         1 GTP         0.4287
     39 H2'        -0.0011    0.0027    0.0003 H         1 GTP         0.0809
     40 HO2'       -0.1563   -0.9855    2.0596 H         1 GTP         0.4385
     41 H1'         1.7826    1.9024    1.6451 H         1 GTP         0.0794
     42 H8         -0.1415    1.7265   -1.7082 H         1 GTP         0.3821
     43 HN21       -0.0303    6.7197    3.9559 H         1 GTP         0.4411
     44 HN22        0.9765    5.2967    4.1108 H         1 GTP         0.4411
     45 H45         1.1068    3.6990    2.5819 H         1 GTP         0.4819
     46 H46        -1.5877    3.7943   -1.9074 H         1 GTP         0.5182
@<TRIPOS>BOND
     1    1    2 2
     2    1    3 1
     3    1    4 1
     4    1    5 1
     5    4   33 1
     6    5    6 1
     7    6    7 2
     8    6    8 1
     9    6    9 1
    10    9   10 1
    11   10   11 2
    12   10   12 1
    13   10   13 1
    14   13   14 1
    15   14   15 1
    16   14   34 1
    17   14   35 1
    18   15   16 1
    19   15   17 1
    20   15   36 1
    21   16   21 1
    22   17   18 1
    23   17   19 1
    24   17   37 1
    25   18   38 1
    26   19   20 1
    27   19   21 1
    28   19   39 1
    29   20   40 1
    30   21   22 1
    31   21   41 1
    32   22   23 ar
    33   22   32 ar
    34   23   24 ar
    35   23   42 1
    36   24   25 ar
    37   24   46 1
    38   25   26 ar
    39   25   32 ar
    40   26   27 2
    41   26   28 ar
    42   28   29 ar
    43   29   30 1
    44   29   31 ar
    45   30   43 1
    46   30   44 1
    47   31   32 ar
    48   31   45 1
@<TRIPOS>SUBSTRUCTURE
     1 GTP         1 GROUP 0 A     ****
@<TRIPOS>MOLECULE
[[[5-(2-amino-6-oxo-7,8-dihydro-3~{H}-purin-8-ylium-9-yl)-3,4-dihydroxy-tetrahydrofuran-2-yl]methoxy-oxido-phosphoryl]oxy-oxido-phosphoryl] hydrogen phosphate
   46    48     1     0     0
SMALL
USER_CHARGES

@<TRIPOS>ATOM
      1 PG          6.0131    1.1244   -2.5261 P.3       1 GTP         1.5447
      2 O1G         7.2229    0.2168   -2.5183 O.co2     1 GTP        -0.8705
      3 O2G         6.1040    2.5362   -3.0611 O.co2     1 GTP        -0.8705
      4 O3G         5.3977    1.1813   -1.0148 O.3       1 GTP        -0.7914
      5 O3B         4.7778    0.3566   -3.2666 O.3       1 GTP        -0.8116
      6 PB          4.6092   -0.0895   -4.8281 P.3       1 GTP         1.6738
      7 O1B         4.5365    1.1560   -5.6830 O.co2     1 GTP        -0.8763
      8 O2B         5.5877   -1.2021   -5.1316 O.co2     1 GTP        -0.8763
      9 O3A         3.1328   -0.7809   -4.7450 O.3       1 GTP        -0.8005
     10 PA          2.6196   -2.0516   -3.8552 P.3       1 GTP         1.5754
     11 O1A         1.1298   -2.2200   -4.0616 O.co2     1 GTP        -0.8771
     12 O2A         3.5739   -3.2069   -4.0652 O.co2     1 GTP        -0.8771
     13 O5'         2.9216   -1.4836   -2.3516 O.3       1 GTP        -0.5809
     14 C5'         2.2816   -0.2918   -1.9206 C.3       1 GTP         0.1986
     15 C4'         2.7248    0.0226   -0.4980 C.3       1 GTP         0.0418
     16 O4'         2.4697    1.4219   -0.2462 O.3       1 GTP        -0.3505
     17 C3'         1.9404   -0.7419    0.5596 C.3       1 GTP         0.0909
     18 O3'         2.7418   -0.8086    1.7389 O.3       1 GTP        -0.6187
     19 C2'         0.7477    0.1630    0.7858 C.3       1 GTP         0.0706
     20 O2'         0.1373   -0.0577    2.0407 O.3       1 GTP        -0.6294
     21 C1'         1.3733    1.5427    0.6747 C.3       1 GTP         0.3895
     22 N9          0.4520    2.5240    0.1767 N.pl3     1 GTP        -0.4733
     23 C8         -0.2136    2.5096   -0.9739 C.ar      1 GTP         0.2958
     24 N7         -0.9896    3.5820   -1.1212 N.pl3     1 GTP        -0.4933
     25 C5         -0.7962    4.3186    0.0156 C.ar      1 GTP        -0.1494
     26 C6         -1.3875    5.6031    0.4192 C.ar      1 GTP         0.7954
     27 O6         -2.1869    6.1731   -0.3158 O.2       1 GTP        -0.5729
     28 N1         -0.9745    6.0930    1.6597 N.2       1 GTP        -0.7443
     29 C2         -0.1105    5.4166    2.3900 C.ar      1 GTP         0.8831
     30 N2          0.3241    5.8571    3.6138 N.pl3     1 GTP        -0.9204
     31 N3          0.4444    4.2053    2.0072 N.pl3     1 GTP        -0.7173
     32 C4          0.0746    3.6889    0.8098 C.ar      1 GTP         0.2626
     33 HOG3        4.6029    1.7335   -0.8549 H         1 GTP         0.4102
     34 H5'         2.5589    0.5217   -2.5976 H         1 GTP         0.0289
     35 H5''        1.1982   -0.4388   -1.9617 H         1 GTP         0.0289
     36 H4'         3.8044   -0.1397   -0.4040 H         1 GTP         0.2056
     37 H3'         1.6764   -1.7639    0.2728 H         1 GTP         0.1140
     38 HO3'        2.2232   -1.2979    2.3953 H         1 GTP         0.4287
     39 H2'        -0.0011    0.0027    0.0003 H         1 GTP         0.0809
     40 HO2'       -0.6141    0.5574    2.1082 H         1 GTP         0.4385
     41 H1'         1.7826    1.9024    1.6451 H         1 GTP         0.0794
     42 H8         -0.1415    1.7265   -1.7082 H         1 GTP         0.3821
     43 HN21       -0.0303    6.7197    3.9559 H         1 GTP         0.4411
     44 HN22        0.9765    5.2967    4.1108 H         1 GTP         0.4411
     45 H45         1.1068    3.6990    2.5819 H         1 GTP         0.4819
     46 H46        -1.5877    3.7943   -1.9074 H         1 GTP         0.5182
@<TRIPOS>BOND
     1    1    2 2
     2    1    3 1
     3    1    4 1
     4    1    5 1
     5    4   33 1
     6    5    6 1
     7    6    7 2
     8    6    8 1
     9    6    9 1
    10    9   10 1
    11   10   11 2
    12   10   12 1
    13   10   13 1
    14   13   14 1
    15   14   15 1
    16   14   34 1
    17   14   35 1
    18   15   16 1
    19   15   17 1
    20   15   36 1
    21   16   21 1
    22   17   18 1
    23   17   19 1
    24   17   37 1
    25   18   38 1
    26   19   20 1
    27   19   21 1
    28   19   39 1
    29   20   40 1
    30   21   22 1
    31   21   41 1
    32   22   23 ar
    33   22   32 ar
    34   23   24 ar
    35   23   42 1
    36   24   25 ar
    37   24   46 1
    38   25   26 ar
    39   25   32 ar
    40   26   27 2
    41   26   28 ar
    42   28   29 ar
    43   29   30 1
    44   29   31 ar
    45   30   43 1
    46   30   44 1
    47   31   32 ar
    48   31   45 1
@<TRIPOS>SUBSTRUCTURE
     1 GTP         1 GROUP 0 A     ****
@<TRIPOS>MOLECULE
[[[5-(2-amino-6-oxo-7,8-dihydro-3~{H}-purin-8-ylium-9-yl)-3,4-dihydroxy-tetrahydrofuran-2-yl]methoxy-oxido-phosphoryl]oxy-oxido-phosphoryl] hydrogen phosphate
   46    48     1     0     0
SMALL
USER_CHARGES

@<TRIPOS>ATOM
      1 PG         -5.2613   -3.1172    3.7661 P.3       1 GTP         1.5447
      2 O1G        -4.7202   -1.9689    2.9438 O.co2     1 GTP        -0.8705
      3 O2G        -6.5329   -2.9654    4.5709 O.co2     1 GTP        -0.8705
      4 O3G        -4.0787   -3.6459    4.7599 O.3       1 GTP        -0.7914
      5 O3B        -5.3920   -4.4367    2.8145 O.3       1 GTP        -0.8116
      6 PB         -4.2762   -5.1548    1.8632 P.3       1 GTP         1.6738
      7 O1B        -4.8669   -6.4278    1.2992 O.co2     1 GTP        -0.8763
      8 O2B        -3.6449   -4.1110    0.9691 O.co2     1 GTP        -0.8763
      9 O3A        -3.1638   -5.5263    2.9987 O.3       1 GTP        -0.8005
     10 PA         -1.7207   -6.2770    2.8455 P.3       1 GTP         1.5754
     11 O1A        -1.0265   -6.2759    4.1903 O.co2     1 GTP        -0.8771
     12 O2A        -1.9224   -7.5608    2.0704 O.co2     1 GTP        -0.8771
     13 O5'        -0.9724   -5.2440    1.8220 O.3       1 GTP        -0.5809
     14 C5'        -0.7840   -3.8935    2.2172 C.3       1 GTP         0.1986
     15 C4'        -0.0724   -3.1466    1.1027 C.3       1 GTP         0.0418
     16 O4'        -0.8674   -3.1929   -0.0945 O.3       1 GTP        -0.3505
     17 C3'         0.1338   -1.6715    1.4027 C.3       1 GTP         0.0909
     18 O3'         1.2893   -1.4445    2.1808 O.3       1 GTP        -0.6187
     19 C2'         0.2158   -1.0724    0.0128 C.3       1 GTP         0.0706
     20 O2'         1.5141   -1.2448   -0.5513 O.3       1 GTP        -0.6294
     21 C1'        -0.7897   -1.9176   -0.7583 C.3       1 GTP         0.3895
     22 N9         -2.1040   -1.3333   -0.7704 N.pl3     1 GTP        -0.4733
     23 C8         -3.0774   -1.4939    0.1205 C.ar      1 GTP         0.2958
     24 N7         -4.1709   -0.8031   -0.1972 N.pl3     1 GTP        -0.4933
     25 C5         -3.8606   -0.1662   -1.3678 C.ar      1 GTP        -0.1494
     26 C6         -4.6738    0.7391   -2.1934 C.ar      1 GTP         0.7954
     27 O6         -5.8186    1.0214   -1.8562 O.2       1 GTP        -0.5729
     28 N1         -4.0520    1.2260   -3.3448 N.2       1 GTP        -0.7443
     29 C2         -2.8155    0.8734   -3.6351 C.ar      1 GTP         0.8831
     30 N2         -2.1637    1.3257   -4.7536 N.pl3     1 GTP        -0.9204
     31 N3         -2.0511    0.0205   -2.8541 N.pl3     1 GTP        -0.7173
     32 C4         -2.6117   -0.4790   -1.7258 C.ar      1 GTP         0.2626
     33 HOG3       -4.2753   -4.3943    5.3629 H         1 GTP         0.4102
     34 H5'        -1.7618   -3.4448    2.4164 H         1 GTP         0.0289
     35 H5''       -0.1874   -3.8744    3.1341 H         1 GTP         0.0289
     36 H4'         0.8874   -3.6466    0.8805 H         1 GTP         0.2056
     37 H3'        -0.7376   -1.2333    1.9867 H         1 GTP         0.1140
     38 HO3'        1.1626   -1.9325    3.0084 H         1 GTP         0.4287
     39 H2'        -0.0384   -0.0310    0.0096 H         1 GTP         0.0809
     40 HO2'        1.4998   -0.8412   -1.4369 H         1 GTP         0.4385
     41 H1'        -0.4769   -2.1002   -1.8093 H         1 GTP         0.0794
     42 H8         -3.0010   -2.1083    1.0004 H         1 GTP         0.3821
     43 HN21       -2.6485    1.9422   -5.3633 H         1 GTP         0.4411
     44 HN22       -1.2319    1.0195   -4.9110 H         1 GTP         0.4411
     45 H45        -1.1018   -0.2391   -3.0927 H         1 GTP         0.4819
     46 H46        -5.0365   -0.7653    0.3226 H         1 GTP         0.5182
@<TRIPOS>BOND
     1    1    2 2
     2    1    3 1
     3    1    4 1
     4    1    5 1
     5    4   33 1
     6    5    6 1
     7    6    7 2
     8    6    8 1
     9    6    9 1
    10    9   10 1
    11   10   11 2
    12   10   12 1
    13   10   13 1
    14   13   14 1
    15   14   15 1
    16   14   34 1
    17   14   35 1
    18   15   16 1
    19   15   17 1
    20   15   36 1
    21   16   21 1
    22   17   18 1
    23   17   19 1
    24   17   37 1
    25   18   38 1
    26   19   20 1
    27   19   21 1
    28   19   39 1
    29   20   40 1
    30   21   22 1
    31   21   41 1
    32   22   23 ar
    33   22   32 ar
    34   23   24 ar
    35   23   42 1
    36   24   25 ar
    37   24   46 1
    38   25   26 ar
    39   25   32 ar
    40   26   27 2
    41   26   28 ar
    42   28   29 ar
    43   29   30 1
    44   29   31 ar
    45   30   43 1
    46   30   44 1
    47   31   32 ar
    48   31   45 1
@<TRIPOS>SUBSTRUCTURE
     1 GTP         1 GROUP 0 A     ****
@<TRIPOS>MOLECULE
[[[5-(2-amino-6-oxo-7,8-dihydro-3~{H}-purin-8-ylium-9-yl)-3,4-dihydroxy-tetrahydrofuran-2-yl]methoxy-oxido-phosphoryl]oxy-oxido-phosphoryl] hydrogen phosphate
   46    48     1     0     0
SMALL
USER_CHARGES

@<TRIPOS>ATOM
      1 PG          1.9081    1.5477   -7.6144 P.3       1 GTP         1.5447
      2 O1G         3.0979    0.6199   -7.5098 O.co2     1 GTP        -0.8705
      3 O2G         0.7504    1.2266   -8.5333 O.co2     1 GTP        -0.8705
      4 O3G         2.4493    3.0473   -7.9671 O.3       1 GTP        -0.7914
      5 O3B         1.3293    1.8403   -6.1167 O.3       1 GTP        -0.8116
      6 PB          0.6060    0.8286   -5.0589 P.3       1 GTP         1.6738
      7 O1B         0.3855    1.5656   -3.7567 O.co2     1 GTP        -0.8763
      8 O2B        -0.5222    0.1057   -5.7604 O.co2     1 GTP        -0.8763
      9 O3A         1.8086   -0.2594   -4.8729 O.3       1 GTP        -0.8005
     10 PA          3.3343   -0.0514   -4.3264 P.3       1 GTP         1.5754
     11 O1A         4.0106   -1.4028   -4.2454 O.co2     1 GTP        -0.8771
     12 O2A         3.9675    1.0961   -5.0826 O.co2     1 GTP        -0.8771
     13 O5'         3.0213    0.5153   -2.8245 O.3       1 GTP        -0.5809
     14 C5'         2.2816   -0.2918   -1.9206 C.3       1 GTP         0.1986
     15 C4'         2.7248    0.0226   -0.4980 C.3       1 GTP         0.0418
     16 O4'         2.4697    1.4219   -0.2462 O.3       1 GTP        -0.3505
     17 C3'         1.9404   -0.7419    0.5596 C.3       1 GTP         0.0909
     18 O3'         2.7418   -0.8086    1.7389 O.3       1 GTP        -0.6187
     19 C2'         0.7477    0.1630    0.7858 C.3       1 GTP         0.0706
     20 O2'         0.1373   -0.0577    2.0407 O.3       1 GTP        -0.6294
     21 C1'         1.3733    1.5427    0.6747 C.3       1 GTP         0.3895
     22 N9          0.4520    2.5240    0.1767 N.pl3     1 GTP        -0.4733
     23 C8         -0.2136    2.5096   -0.9739 C.ar      1 GTP         0.2958
     24 N7         -0.9896    3.5820   -1.1212 N.pl3     1 GTP        -0.4933
     25 C5         -0.7962    4.3186    0.0156 C.ar      1 GTP        -0.1494
     26 C6         -1.3875    5.6031    0.4192 C.ar      1 GTP         0.7954
     27 O6         -2.1869    6.1731   -0.3158 O.2       1 GTP        -0.5729
     28 N1         -0.9745    6.0930    1.6597 N.2       1 GTP        -0.7443
     29 C2         -0.1105    5.4166    2.3900 C.ar      1 GTP         0.8831
     30 N2          0.3241    5.8571    3.6138 N.pl3     1 GTP        -0.9204
     31 N3          0.4444    4.2053    2.0072 N.pl3     1 GTP        -0.7173
     32 C4          0.0746    3.6889    0.8098 C.ar      1 GTP         0.2626
     33 HOG3        1.7925    3.7688   -8.0684 H         1 GTP         0.4102
     34 H5'         1.2163   -0.0770   -2.0471 H         1 GTP         0.0289
     35 H5''        2.4655   -1.3443   -2.1563 H         1 GTP         0.0289
     36 H4'         3.8044   -0.1397   -0.4040 H         1 GTP         0.2056
     37 H3'         1.6764   -1.7639    0.2728 H         1 GTP         0.1140
     38 HO3'        3.5554   -1.2733    1.4914 H         1 GTP         0.4287
     39 H2'        -0.0011    0.0027    0.0003 H         1 GTP         0.0809
     40 HO2'       -0.1563   -0.9855    2.0596 H         1 GTP         0.4385
     41 H1'         1.7826    1.9024    1.6451 H         1 GTP         0.0794
     42 H8         -0.1415    1.7265   -1.7082 H         1 GTP         0.3821
     43 HN21       -0.0303    6.7197    3.9559 H         1 GTP         0.4411
     44 HN22        0.9765    5.2967    4.1108 H         1 GTP         0.4411
     45 H45         1.1068    3.6990    2.5819 H         1 GTP         0.4819
     46 H46        -1.5877    3.7943   -1.9074 H         1 GTP         0.5182
@<TRIPOS>BOND
     1    1    2 2
     2    1    3 1
     3    1    4 1
     4    1    5 1
     5    4   33 1
     6    5    6 1
     7    6    7 2
     8    6    8 1
     9    6    9 1
    10    9   10 1
    11   10   11 2
    12   10   12 1
    13   10   13 1
    14   13   14 1
    15   14   15 1
    16   14   34 1
    17   14   35 1
    18   15   16 1
    19   15   17 1
    20   15   36 1
    21   16   21 1
    22   17   18 1
    23   17   19 1
    24   17   37 1
    25   18   38 1
    26   19   20 1
    27   19   21 1
    28   19   39 1
    29   20   40 1
    30   21   22 1
    31   21   41 1
    32   22   23 ar
    33   22   32 ar
    34   23   24 ar
    35   23   42 1
    36   24   25 ar
    37   24   46 1
    38   25   26 ar
    39   25   32 ar
    40   26   27 2
    41   26   28 ar
    42   28   29 ar
    43   29   30 1
    44   29   31 ar
    45   30   43 1
    46   30   44 1
    47   31   32 ar
    48   31   45 1
@<TRIPOS>SUBSTRUCTURE
     1 GTP         1 GROUP 0 A     ****
@<TRIPOS>MOLECULE
[[[5-(2-amino-6-oxo-7,8-dihydro-3~{H}-purin-8-ylium-9-yl)-3,4-dihydroxy-tetrahydrofuran-2-yl]methoxy-oxido-phosphoryl]oxy-oxido-phosphoryl] hydrogen phosphate
   46    48     1     0     0
SMALL
USER_CHARGES

@<TRIPOS>ATOM
      1 PG          5.0339   -3.1727   -1.2713 P.3       1 GTP         1.5447
      2 O1G         4.4902   -4.5556   -0.9894 O.co2     1 GTP        -0.8705
      3 O2G         6.4974   -2.9631   -1.5905 O.co2     1 GTP        -0.8705
      4 O3G         4.6288   -2.1931   -0.0294 O.3       1 GTP        -0.7914
      5 O3B         4.1325   -2.4755   -2.4396 O.3       1 GTP        -0.8116
      6 PB          3.9753   -2.8714   -4.0157 P.3       1 GTP         1.6738
      7 O1B         5.3022   -2.6479   -4.7064 O.co2     1 GTP        -0.8763
      8 O2B         3.2390   -4.1882   -4.1225 O.co2     1 GTP        -0.8763
      9 O3A         2.9205   -1.7124   -4.4729 O.3       1 GTP        -0.8005
     10 PA          3.0675   -0.0857   -4.4293 P.3       1 GTP         1.5754
     11 O1A         4.3144    0.3107   -5.1899 O.co2     1 GTP        -0.8771
     12 O2A         1.7243    0.5309   -4.7535 O.co2     1 GTP        -0.8771
     13 O5'         3.2903    0.1346   -2.8241 O.3       1 GTP        -0.5809
     14 C5'         2.2816   -0.2918   -1.9206 C.3       1 GTP         0.1986
     15 C4'         2.7248    0.0226   -0.4980 C.3       1 GTP         0.0418
     16 O4'         2.4697    1.4219   -0.2462 O.3       1 GTP        -0.3505
     17 C3'         1.9404   -0.7419    0.5596 C.3       1 GTP         0.0909
     18 O3'         2.7418   -0.8086    1.7389 O.3       1 GTP        -0.6187
     19 C2'         0.7477    0.1630    0.7858 C.3       1 GTP         0.0706
     20 O2'         0.1373   -0.0577    2.0407 O.3       1 GTP        -0.6294
     21 C1'         1.3733    1.5427    0.6747 C.3       1 GTP         0.3895
     22 N9          0.4520    2.5240    0.1767 N.pl3     1 GTP        -0.4733
     23 C8          0.2012    2.8401   -1.0899 C.ar      1 GTP         0.2958
     24 N7         -0.7168    3.7990   -1.1981 N.pl3     1 GTP        -0.4933
     25 C5         -1.0645    4.1043    0.0896 C.ar      1 GTP        -0.1494
     26 C6         -2.0336    5.0870    0.5973 C.ar      1 GTP         0.7954
     27 O6         -2.6730    5.7839   -0.1834 O.2       1 GTP        -0.5729
     28 N1         -2.1539    5.1517    1.9868 N.2       1 GTP        -0.7443
     29 C2         -1.4288    4.3650    2.7566 C.ar      1 GTP         0.8831
     30 N2         -1.5126    4.3922    4.1250 N.pl3     1 GTP        -0.9204
     31 N3         -0.5167    3.4388    2.2748 N.pl3     1 GTP        -0.7173
     32 C4         -0.3638    3.3392    0.9318 C.ar      1 GTP         0.2626
     33 HOG3        4.9117   -1.2545   -0.0637 H         1 GTP         0.4102
     34 H5'         1.3514    0.2330   -2.1577 H         1 GTP         0.0289
     35 H5''        2.1280   -1.3678   -2.0460 H         1 GTP         0.0289
     36 H4'         3.8044   -0.1397   -0.4040 H         1 GTP         0.2056
     37 H3'         1.6764   -1.7639    0.2728 H         1 GTP         0.1140
     38 HO3'        2.2232   -1.2979    2.3953 H         1 GTP         0.4287
     39 H2'        -0.0011    0.0027    0.0003 H         1 GTP         0.0809
     40 HO2'       -0.6141    0.5574    2.1082 H         1 GTP         0.4385
     41 H1'         1.7826    1.9024    1.6451 H         1 GTP         0.0794
     42 H8          0.6787    2.3803   -1.9373 H         1 GTP         0.3821
     43 HN21       -2.1462    5.0320    4.5446 H         1 GTP         0.4411
     44 HN22       -0.9365    3.7712    4.6440 H         1 GTP         0.4411
     45 H45         0.0318    2.8419    2.8816 H         1 GTP         0.4819
     46 H46        -1.0718    4.2049   -2.0526 H         1 GTP         0.5182
@<TRIPOS>BOND
     1    1    2 2
     2    1    3 1
     3    1    4 1
     4    1    5 1
     5    4   33 1
     6    5    6 1
     7    6    7 2
     8    6    8 1
     9    6    9 1
    10    9   10 1
    11   10   11 2
    12   10   12 1
    13   10   13 1
    14   13   14 1
    15   14   15 1
    16   14   34 1
    17   14   35 1
    18   15   16 1
    19   15   17 1
    20   15   36 1
    21   16   21 1
    22   17   18 1
    23   17   19 1
    24   17   37 1
    25   18   38 1
    26   19   20 1
    27   19   21 1
    28   19   39 1
    29   20   40 1
    30   21   22 1
    31   21   41 1
    32   22   23 ar
    33   22   32 ar
    34   23   24 ar
    35   23   42 1
    36   24   25 ar
    37   24   46 1
    38   25   26 ar
    39   25   32 ar
    40   26   27 2
    41   26   28 ar
    42   28   29 ar
    43   29   30 1
    44   29   31 ar
    45   30   43 1
    46   30   44 1
    47   31   32 ar
    48   31   45 1
@<TRIPOS>SUBSTRUCTURE
     1 GTP         1 GROUP 0 A     ****
@<TRIPOS>MOLECULE
[[[5-(2-amino-6-oxo-7,8-dihydro-3~{H}-purin-8-ylium-9-yl)-3,4-dihydroxy-tetrahydrofuran-2-yl]methoxy-oxido-phosphoryl]oxy-oxido-phosphoryl] hydrogen phosphate
   46    48     1     0     0
SMALL
USER_CHARGES

@<TRIPOS>ATOM
      1 PG          2.9530    4.0790   -1.9775 P.3       1 GTP         1.5447
      2 O1G         2.9368    3.6071   -0.5406 O.co2     1 GTP        -0.8705
      3 O2G         4.1431    4.8263   -2.5368 O.co2     1 GTP        -0.8705
      4 O3G         1.6098    4.9675   -2.2468 O.3       1 GTP        -0.7914
      5 O3B         2.6138    2.8168   -2.9550 O.3       1 GTP        -0.8116
      6 PB          2.3529    2.7824   -4.5663 P.3       1 GTP         1.6738
      7 O1B         1.0807    3.5426   -4.8678 O.co2     1 GTP        -0.8763
      8 O2B         3.6487    3.0916   -5.2825 O.co2     1 GTP        -0.8763
      9 O3A         2.0898    1.1823   -4.7548 O.3       1 GTP        -0.8005
     10 PA          3.0675   -0.0857   -4.4293 P.3       1 GTP         1.5754
     11 O1A         2.3024   -1.3670   -4.6805 O.co2     1 GTP        -0.8771
     12 O2A         4.4130    0.1616   -5.0759 O.co2     1 GTP        -0.8771
     13 O5'         3.2903    0.1346   -2.8241 O.3       1 GTP        -0.5809
     14 C5'         2.2816   -0.2918   -1.9206 C.3       1 GTP         0.1986
     15 C4'         2.7248    0.0226   -0.4980 C.3       1 GTP         0.0418
     16 O4'         2.4697    1.4219   -0.2462 O.3       1 GTP        -0.3505
     17 C3'         1.9404   -0.7419    0.5596 C.3       1 GTP         0.0909
     18 O3'         2.7418   -0.8086    1.7389 O.3       1 GTP        -0.6187
     19 C2'         0.7477    0.1630    0.7858 C.3       1 GTP         0.0706
     20 O2'         0.1373   -0.0577    2.0407 O.3       1 GTP        -0.6294
     21 C1'         1.3733    1.5427    0.6747 C.3       1 GTP         0.3895
     22 N9          0.4520    2.5240    0.1767 N.pl3     1 GTP        -0.4733
     23 C8         -0.2136    2.5096   -0.9739 C.ar      1 GTP         0.2958
     24 N7         -0.9896    3.5820   -1.1212 N.pl3     1 GTP        -0.4933
     25 C5         -0.7962    4.3186    0.0156 C.ar      1 GTP        -0.1494
     26 C6         -1.3875    5.6031    0.4192 C.ar      1 GTP         0.7954
     27 O6         -2.1869    6.1731   -0.3158 O.2       1 GTP        -0.5729
     28 N1         -0.9745    6.0930    1.6597 N.2       1 GTP        -0.7443
     29 C2         -0.1105    5.4166    2.3900 C.ar      1 GTP         0.8831
     30 N2          0.3241    5.8571    3.6138 N.pl3     1 GTP        -0.9204
     31 N3          0.4444    4.2053    2.0072 N.pl3     1 GTP        -0.7173
     32 C4          0.0746    3.6889    0.8098 C.ar      1 GTP         0.2626
     33 HOG3        1.4732    5.3482   -3.1405 H         1 GTP         0.4102
     34 H5'         1.3514    0.2330   -2.1577 H         1 GTP         0.0289
     35 H5''        2.1280   -1.3678   -2.0460 H         1 GTP         0.0289
     36 H4'         3.8044   -0.1397   -0.4040 H         1 GTP         0.2056
     37 H3'         1.6764   -1.7639    0.2728 H         1 GTP         0.1140
     38 HO3'        3.5554   -1.2733    1.4914 H         1 GTP         0.4287
     39 H2'        -0.0011    0.0027    0.0003 H         1 GTP         0.0809
     40 HO2'       -0.1563   -0.9855    2.0596 H         1 GTP         0.4385
     41 H1'         1.7826    1.9024    1.6451 H         1 GTP         0.0794
     42 H8         -0.1415    1.7265   -1.7082 H         1 GTP         0.3821
     43 HN21       -0.0303    6.7197    3.9559 H         1 GTP         0.4411
     44 HN22        0.9765    5.2967    4.1108 H         1 GTP         0.4411
     45 H45         1.1068    3.6990    2.5819 H         1 GTP         0.4819
     46 H46        -1.5877    3.7943   -1.9074 H         1 GTP         0.5182
@<TRIPOS>BOND
     1    1    2 2
     2    1    3 1
     3    1    4 1
     4    1    5 1
     5    4   33 1
     6    5    6 1
     7    6    7 2
     8    6    8 1
     9    6    9 1
    10    9   10 1
    11   10   11 2
    12   10   12 1
    13   10   13 1
    14   13   14 1
    15   14   15 1
    16   14   34 1
    17   14   35 1
    18   15   16 1
    19   15   17 1
    20   15   36 1
    21   16   21 1
    22   17   18 1
    23   17   19 1
    24   17   37 1
    25   18   38 1
    26   19   20 1
    27   19   21 1
    28   19   39 1
    29   20   40 1
    30   21   22 1
    31   21   41 1
    32   22   23 ar
    33   22   32 ar
    34   23   24 ar
    35   23   42 1
    36   24   25 ar
    37   24   46 1
    38   25   26 ar
    39   25   32 ar
    40   26   27 2
    41   26   28 ar
    42   28   29 ar
    43   29   30 1
    44   29   31 ar
    45   30   43 1
    46   30   44 1
    47   31   32 ar
    48   31   45 1
@<TRIPOS>SUBSTRUCTURE
     1 GTP         1 GROUP 0 A     ****
@<TRIPOS>MOLECULE
[[[5-(2-amino-6-oxo-7,8-dihydro-3~{H}-purin-8-ylium-9-yl)-3,4-dihydroxy-tetrahydrofuran-2-yl]methoxy-oxido-phosphoryl]oxy-oxido-phosphoryl] hydrogen phosphate
   46    48     1     0     0
SMALL
USER_CHARGES

@<TRIPOS>ATOM
      1 PG          3.6502    5.6145   -4.1647 P.3       1 GTP         1.5447
      2 O1G         4.5325    5.6395   -5.3929 O.co2     1 GTP        -0.8705
      3 O2G         2.7051    6.7563   -3.8633 O.co2     1 GTP        -0.8705
      4 O3G         4.5915    5.3611   -2.8549 O.3       1 GTP        -0.7914
      5 O3B         2.8124    4.2140   -4.1409 O.3       1 GTP        -0.8116
      6 PB          1.8383    3.5974   -2.9848 P.3       1 GTP         1.6738
      7 O1B         2.6735    3.2852   -1.7631 O.co2     1 GTP        -0.8763
      8 O2B         0.5861    4.4407   -2.8935 O.co2     1 GTP        -0.8763
      9 O3A         1.4070    2.2056   -3.7207 O.3       1 GTP        -0.8005
     10 PA          2.3336    0.9636   -4.2390 P.3       1 GTP         1.5754
     11 O1A         1.4299   -0.1360   -4.7532 O.co2     1 GTP        -0.8771
     12 O2A         3.4541    1.5181   -5.0914 O.co2     1 GTP        -0.8771
     13 O5'         3.0213    0.5153   -2.8245 O.3       1 GTP        -0.5809
     14 C5'         2.2816   -0.2918   -1.9206 C.3       1 GTP         0.1986
     15 C4'         2.7248    0.0226   -0.4980 C.3       1 GTP         0.0418
     16 O4'         2.4697    1.4219   -0.2462 O.3       1 GTP        -0.3505
     17 C3'         1.9404   -0.7419    0.5596 C.3       1 GTP         0.0909
     18 O3'         2.7418   -0.8086    1.7389 O.3       1 GTP        -0.6187
     19 C2'         0.7477    0.1630    0.7858 C.3       1 GTP         0.0706
     20 O2'         0.1373   -0.0577    2.0407 O.3       1 GTP        -0.6294
     21 C1'         1.3733    1.5427    0.6747 C.3       1 GTP         0.3895
     22 N9          0.4520    2.5240    0.1767 N.pl3     1 GTP        -0.4733
     23 C8         -0.2136    2.5096   -0.9739 C.ar      1 GTP         0.2958
     24 N7         -0.9896    3.5820   -1.1212 N.pl3     1 GTP        -0.4933
     25 C5         -0.7962    4.3186    0.0156 C.ar      1 GTP        -0.1494
     26 C6         -1.3875    5.6031    0.4192 C.ar      1 GTP         0.7954
     27 O6         -2.1869    6.1731   -0.3158 O.2       1 GTP        -0.5729
     28 N1         -0.9745    6.0930    1.6597 N.2       1 GTP        -0.7443
     29 C2         -0.1105    5.4166    2.3900 C.ar      1 GTP         0.8831
     30 N2          0.3241    5.8571    3.6138 N.pl3     1 GTP        -0.9204
     31 N3          0.4444    4.2053    2.0072 N.pl3     1 GTP        -0.7173
     32 C4          0.0746    3.6889    0.8098 C.ar      1 GTP         0.2626
     33 HOG3        4.1633    5.3185   -1.9734 H         1 GTP         0.4102
     34 H5'         1.2163   -0.0770   -2.0471 H         1 GTP         0.0289
     35 H5''        2.4655   -1.3443   -2.1563 H         1 GTP         0.0289
     36 H4'         3.8044   -0.1397   -0.4040 H         1 GTP         0.2056
     37 H3'         1.6764   -1.7639    0.2728 H         1 GTP         0.1140
     38 HO3'        3.5554   -1.2733    1.4914 H         1 GTP         0.4287
     39 H2'        -0.0011    0.0027    0.0003 H         1 GTP         0.0809
     40 HO2'       -0.1563   -0.9855    2.0596 H         1 GTP         0.4385
     41 H1'         1.7826    1.9024    1.6451 H         1 GTP         0.0794
     42 H8         -0.1415    1.7265   -1.7082 H         1 GTP         0.3821
     43 HN21       -0.0303    6.7197    3.9559 H         1 GTP         0.4411
     44 HN22        0.9765    5.2967    4.1108 H         1 GTP         0.4411
     45 H45         1.1068    3.6990    2.5819 H         1 GTP         0.4819
     46 H46        -1.5877    3.7943   -1.9074 H         1 GTP         0.5182
@<TRIPOS>BOND
     1    1    2 2
     2    1    3 1
     3    1    4 1
     4    1    5 1
     5    4   33 1
     6    5    6 1
     7    6    7 2
     8    6    8 1
     9    6    9 1
    10    9   10 1
    11   10   11 2
    12   10   12 1
    13   10   13 1
    14   13   14 1
    15   14   15 1
    16   14   34 1
    17   14   35 1
    18   15   16 1
    19   15   17 1
    20   15   36 1
    21   16   21 1
    22   17   18 1
    23   17   19 1
    24   17   37 1
    25   18   38 1
    26   19   20 1
    27   19   21 1
    28   19   39 1
    29   20   40 1
    30   21   22 1
    31   21   41 1
    32   22   23 ar
    33   22   32 ar
    34   23   24 ar
    35   23   42 1
    36   24   25 ar
    37   24   46 1
    38   25   26 ar
    39   25   32 ar
    40   26   27 2
    41   26   28 ar
    42   28   29 ar
    43   29   30 1
    44   29   31 ar
    45   30   43 1
    46   30   44 1
    47   31   32 ar
    48   31   45 1
@<TRIPOS>SUBSTRUCTURE
     1 GTP         1 GROUP 0 A     ****
@<TRIPOS>MOLECULE
[[[5-(2-amino-6-oxo-7,8-dihydro-3~{H}-purin-8-ylium-9-yl)-3,4-dihydroxy-tetrahydrofuran-2-yl]methoxy-oxido-phosphoryl]oxy-oxido-phosphoryl] hydrogen phosphate
   46    48     1     0     0
SMALL
USER_CHARGES

@<TRIPOS>ATOM
      1 PG          5.6601    1.8328   -0.0153 P.3       1 GTP         1.5447
      2 O1G         5.5730    3.0265    0.9093 O.co2     1 GTP        -0.8705
      3 O2G         5.6038    0.4226    0.5288 O.co2     1 GTP        -0.8705
      4 O3G         7.0042    1.9822   -0.9301 O.3       1 GTP        -0.7914
      5 O3B         4.5413    1.9903   -1.1931 O.3       1 GTP        -0.8116
      6 PB          4.2675    3.2329   -2.2161 P.3       1 GTP         1.6738
      7 O1B         3.8001    4.4271   -1.4143 O.co2     1 GTP        -0.8763
      8 O2B         5.4215    3.3348   -3.1885 O.co2     1 GTP        -0.8763
      9 O3A         3.0106    2.6117   -3.0522 O.3       1 GTP        -0.8005
     10 PA          2.9232    1.2546   -3.9579 P.3       1 GTP         1.5754
     11 O1A         1.4961    1.0747   -4.4283 O.co2     1 GTP        -0.8771
     12 O2A         4.0762    1.2511   -4.9378 O.co2     1 GTP        -0.8771
     13 O5'         3.2903    0.1346   -2.8241 O.3       1 GTP        -0.5809
     14 C5'         2.2816   -0.2918   -1.9206 C.3       1 GTP         0.1986
     15 C4'         2.7248    0.0226   -0.4980 C.3       1 GTP         0.0418
     16 O4'         2.4697    1.4219   -0.2462 O.3       1 GTP        -0.3505
     17 C3'         1.9404   -0.7419    0.5596 C.3       1 GTP         0.0909
     18 O3'         2.7418   -0.8086    1.7389 O.3       1 GTP        -0.6187
     19 C2'         0.7477    0.1630    0.7858 C.3       1 GTP         0.0706
     20 O2'         0.1373   -0.0577    2.0407 O.3       1 GTP        -0.6294
     21 C1'         1.3733    1.5427    0.6747 C.3       1 GTP         0.3895
     22 N9          0.4520    2.5240    0.1767 N.pl3     1 GTP        -0.4733
     23 C8          0.2012    2.8401   -1.0899 C.ar      1 GTP         0.2958
     24 N7         -0.7168    3.7990   -1.1981 N.pl3     1 GTP        -0.4933
     25 C5         -1.0645    4.1043    0.0896 C.ar      1 GTP        -0.1494
     26 C6         -2.0336    5.0870    0.5973 C.ar      1 GTP         0.7954
     27 O6         -2.6730    5.7839   -0.1834 O.2       1 GTP        -0.5729
     28 N1         -2.1539    5.1517    1.9868 N.2       1 GTP        -0.7443
     29 C2         -1.4288    4.3650    2.7566 C.ar      1 GTP         0.8831
     30 N2         -1.5126    4.3922    4.1250 N.pl3     1 GTP        -0.9204
     31 N3         -0.5167    3.4388    2.2748 N.pl3     1 GTP        -0.7173
     32 C4         -0.3638    3.3392    0.9318 C.ar      1 GTP         0.2626
     33 HOG3        7.2030    1.2804   -1.5860 H         1 GTP         0.4102
     34 H5'         1.3514    0.2330   -2.1577 H         1 GTP         0.0289
     35 H5''        2.1280   -1.3678   -2.0460 H         1 GTP         0.0289
     36 H4'         3.8044   -0.1397   -0.4040 H         1 GTP         0.2056
     37 H3'         1.6764   -1.7639    0.2728 H         1 GTP         0.1140
     38 HO3'        2.2232   -1.2979    2.3953 H         1 GTP         0.4287
     39 H2'        -0.0011    0.0027    0.0003 H         1 GTP         0.0809
     40 HO2'       -0.6141    0.5574    2.1082 H         1 GTP         0.4385
     41 H1'         1.7826    1.9024    1.6451 H         1 GTP         0.0794
     42 H8          0.6787    2.3803   -1.9373 H         1 GTP         0.3821
     43 HN21       -2.1462    5.0320    4.5446 H         1 GTP         0.4411
     44 HN22       -0.9365    3.7712    4.6440 H         1 GTP         0.4411
     45 H45         0.0318    2.8419    2.8816 H         1 GTP         0.4819
     46 H46        -1.0718    4.2049   -2.0526 H         1 GTP         0.5182
@<TRIPOS>BOND
     1    1    2 2
     2    1    3 1
     3    1    4 1
     4    1    5 1
     5    4   33 1
     6    5    6 1
     7    6    7 2
     8    6    8 1
     9    6    9 1
    10    9   10 1
    11   10   11 2
    12   10   12 1
    13   10   13 1
    14   13   14 1
    15   14   15 1
    16   14   34 1
    17   14   35 1
    18   15   16 1
    19   15   17 1
    20   15   36 1
    21   16   21 1
    22   17   18 1
    23   17   19 1
    24   17   37 1
    25   18   38 1
    26   19   20 1
    27   19   21 1
    28   19   39 1
    29   20   40 1
    30   21   22 1
    31   21   41 1
    32   22   23 ar
    33   22   32 ar
    34   23   24 ar
    35   23   42 1
    36   24   25 ar
    37   24   46 1
    38   25   26 ar
    39   25   32 ar
    40   26   27 2
    41   26   28 ar
    42   28   29 ar
    43   29   30 1
    44   29   31 ar
    45   30   43 1
    46   30   44 1
    47   31   32 ar
    48   31   45 1
@<TRIPOS>SUBSTRUCTURE
     1 GTP         1 GROUP 0 A     ****
@<TRIPOS>MOLECULE
[[[5-(2-amino-6-oxo-7,8-dihydro-3~{H}-purin-8-ylium-9-yl)-3,4-dihydroxy-tetrahydrofuran-2-yl]methoxy-oxido-phosphoryl]oxy-oxido-phosphoryl] hydrogen phosphate
   46    48     1     0     0
SMALL
USER_CHARGES

@<TRIPOS>ATOM
      1 PG          4.4191    3.3735   -0.6736 P.3       1 GTP         1.5447
      2 O1G         4.3691    2.4166    0.4965 O.co2     1 GTP        -0.8705
      3 O2G         5.7393    3.8980   -1.1929 O.co2     1 GTP        -0.8705
      4 O3G         3.4490    4.6452   -0.3455 O.3       1 GTP        -0.7914
      5 O3B         3.5771    2.7356   -1.9178 O.3       1 GTP        -0.8116
      6 PB          3.1773    3.3946   -3.3571 P.3       1 GTP         1.6738
      7 O1B         2.2260    4.5454   -3.1158 O.co2     1 GTP        -0.8763
      8 O2B         4.4301    3.5636   -4.1873 O.co2     1 GTP        -0.8763
      9 O3A         2.3599    2.1376   -4.0025 O.3       1 GTP        -0.8005
     10 PA          2.8621    0.6170   -4.3270 P.3       1 GTP         1.5754
     11 O1A         1.6809   -0.1909   -4.8193 O.co2     1 GTP        -0.8771
     12 O2A         4.1462    0.6908   -5.1241 O.co2     1 GTP        -0.8771
     13 O5'         3.2903    0.1346   -2.8241 O.3       1 GTP        -0.5809
     14 C5'         2.2816   -0.2918   -1.9206 C.3       1 GTP         0.1986
     15 C4'         2.7248    0.0226   -0.4980 C.3       1 GTP         0.0418
     16 O4'         2.4697    1.4219   -0.2462 O.3       1 GTP        -0.3505
     17 C3'         1.9404   -0.7419    0.5596 C.3       1 GTP         0.0909
     18 O3'         2.7418   -0.8086    1.7389 O.3       1 GTP        -0.6187
     19 C2'         0.7477    0.1630    0.7858 C.3       1 GTP         0.0706
     20 O2'         0.1373   -0.0577    2.0407 O.3       1 GTP        -0.6294
     21 C1'         1.3733    1.5427    0.6747 C.3       1 GTP         0.3895
     22 N9          0.4520    2.5240    0.1767 N.pl3     1 GTP        -0.4733
     23 C8          0.2012    2.8401   -1.0899 C.ar      1 GTP         0.2958
     24 N7         -0.7168    3.7990   -1.1981 N.pl3     1 GTP        -0.4933
     25 C5         -1.0645    4.1043    0.0896 C.ar      1 GTP        -0.1494
     26 C6         -2.0336    5.0870    0.5973 C.ar      1 GTP         0.7954
     27 O6         -2.6730    5.7839   -0.1834 O.2       1 GTP        -0.5729
     28 N1         -2.1539    5.1517    1.9868 N.2       1 GTP        -0.7443
     29 C2         -1.4288    4.3650    2.7566 C.ar      1 GTP         0.8831
     30 N2         -1.5126    4.3922    4.1250 N.pl3     1 GTP        -0.9204
     31 N3         -0.5167    3.4388    2.2748 N.pl3     1 GTP        -0.7173
     32 C4         -0.3638    3.3392    0.9318 C.ar      1 GTP         0.2626
     33 HOG3        3.3734    5.3594   -1.0137 H         1 GTP         0.4102
     34 H5'         1.3514    0.2330   -2.1577 H         1 GTP         0.0289
     35 H5''        2.1280   -1.3678   -2.0460 H         1 GTP         0.0289
     36 H4'         3.8044   -0.1397   -0.4040 H         1 GTP         0.2056
     37 H3'         1.6764   -1.7639    0.2728 H         1 GTP         0.1140
     38 HO3'        2.2232   -1.2979    2.3953 H         1 GTP         0.4287
     39 H2'        -0.0011    0.0027    0.0003 H         1 GTP         0.0809
     40 HO2'       -0.6141    0.5574    2.1082 H         1 GTP         0.4385
     41 H1'         1.7826    1.9024    1.6451 H         1 GTP         0.0794
     42 H8          0.6787    2.3803   -1.9373 H         1 GTP         0.3821
     43 HN21       -2.1462    5.0320    4.5446 H         1 GTP         0.4411
     44 HN22       -0.9365    3.7712    4.6440 H         1 GTP         0.4411
     45 H45         0.0318    2.8419    2.8816 H         1 GTP         0.4819
     46 H46        -1.0718    4.2049   -2.0526 H         1 GTP         0.5182
@<TRIPOS>BOND
     1    1    2 2
     2    1    3 1
     3    1    4 1
     4    1    5 1
     5    4   33 1
     6    5    6 1
     7    6    7 2
     8    6    8 1
     9    6    9 1
    10    9   10 1
    11   10   11 2
    12   10   12 1
    13   10   13 1
    14   13   14 1
    15   14   15 1
    16   14   34 1
    17   14   35 1
    18   15   16 1
    19   15   17 1
    20   15   36 1
    21   16   21 1
    22   17   18 1
    23   17   19 1
    24   17   37 1
    25   18   38 1
    26   19   20 1
    27   19   21 1
    28   19   39 1
    29   20   40 1
    30   21   22 1
    31   21   41 1
    32   22   23 ar
    33   22   32 ar
    34   23   24 ar
    35   23   42 1
    36   24   25 ar
    37   24   46 1
    38   25   26 ar
    39   25   32 ar
    40   26   27 2
    41   26   28 ar
    42   28   29 ar
    43   29   30 1
    44   29   31 ar
    45   30   43 1
    46   30   44 1
    47   31   32 ar
    48   31   45 1
@<TRIPOS>SUBSTRUCTURE
     1 GTP         1 GROUP 0 A     ****
@<TRIPOS>MOLECULE
[[[5-(2-amino-6-oxo-7,8-dihydro-3~{H}-purin-8-ylium-9-yl)-3,4-dihydroxy-tetrahydrofuran-2-yl]methoxy-oxido-phosphoryl]oxy-oxido-phosphoryl] hydrogen phosphate
   46    48     1     0     0
SMALL
USER_CHARGES

@<TRIPOS>ATOM
      1 PG         -0.5710    3.0953   -4.5269 P.3       1 GTP         1.5447
      2 O1G        -0.8725    4.5585   -4.2910 O.co2     1 GTP        -0.8705
      3 O2G        -1.6753    2.1192   -4.8667 O.co2     1 GTP        -0.8705
      4 O3G         0.2505    2.5207   -3.2382 O.3       1 GTP        -0.7914
      5 O3B         0.6090    2.9701   -5.6474 O.3       1 GTP        -0.8116
      6 PB          1.4216    1.6531   -6.1679 P.3       1 GTP         1.6738
      7 O1B         0.4209    0.6149   -6.6242 O.co2     1 GTP        -0.8763
      8 O2B         2.5629    2.0966   -7.0557 O.co2     1 GTP        -0.8763
      9 O3A         2.0898    1.1823   -4.7548 O.3       1 GTP        -0.8005
     10 PA          3.0675   -0.0857   -4.4293 P.3       1 GTP         1.5754
     11 O1A         2.3024   -1.3670   -4.6805 O.co2     1 GTP        -0.8771
     12 O2A         4.4130    0.1616   -5.0759 O.co2     1 GTP        -0.8771
     13 O5'         3.2903    0.1346   -2.8241 O.3       1 GTP        -0.5809
     14 C5'         2.2816   -0.2918   -1.9206 C.3       1 GTP         0.1986
     15 C4'         2.7248    0.0226   -0.4980 C.3       1 GTP         0.0418
     16 O4'         2.4697    1.4219   -0.2462 O.3       1 GTP        -0.3505
     17 C3'         1.9404   -0.7419    0.5596 C.3       1 GTP         0.0909
     18 O3'         2.7418   -0.8086    1.7389 O.3       1 GTP        -0.6187
     19 C2'         0.7477    0.1630    0.7858 C.3       1 GTP         0.0706
     20 O2'         0.1373   -0.0577    2.0407 O.3       1 GTP        -0.6294
     21 C1'         1.3733    1.5427    0.6747 C.3       1 GTP         0.3895
     22 N9          0.4520    2.5240    0.1767 N.pl3     1 GTP        -0.4733
     23 C8          0.5427    3.2356   -0.9425 C.ar      1 GTP         0.2958
     24 N7         -0.4919    4.0590   -1.1018 N.pl3     1 GTP        -0.4933
     25 C5         -1.2850    3.8484   -0.0069 C.ar      1 GTP        -0.1494
     26 C6         -2.5644    4.4707    0.3650 C.ar      1 GTP         0.7954
     27 O6         -3.0718    5.3200   -0.3599 O.2       1 GTP        -0.5729
     28 N1         -3.1239    4.0269    1.5647 N.2       1 GTP        -0.7443
     29 C2         -2.5133    3.1079    2.2858 C.ar      1 GTP         0.8831
     30 N2         -3.0239    2.6409    3.4697 N.pl3     1 GTP        -0.9204
     31 N3         -1.3076    2.5223    1.9320 N.pl3     1 GTP        -0.7173
     32 C4         -0.7246    2.9211    0.7753 C.ar      1 GTP         0.2626
     33 HOG3        0.5213    1.5779   -3.2397 H         1 GTP         0.4102
     34 H5'         1.3514    0.2330   -2.1577 H         1 GTP         0.0289
     35 H5''        2.1280   -1.3678   -2.0460 H         1 GTP         0.0289
     36 H4'         3.8044   -0.1397   -0.4040 H         1 GTP         0.2056
     37 H3'         1.6764   -1.7639    0.2728 H         1 GTP         0.1140
     38 HO3'        3.5554   -1.2733    1.4914 H         1 GTP         0.4287
     39 H2'        -0.0011    0.0027    0.0003 H         1 GTP         0.0809
     40 HO2'       -0.1563   -0.9855    2.0596 H         1 GTP         0.4385
     41 H1'         1.7826    1.9024    1.6451 H         1 GTP         0.0794
     42 H8          1.3539    3.1622   -1.6455 H         1 GTP         0.3821
     43 HN21       -3.8871    3.0143    3.7893 H         1 GTP         0.4411
     44 HN22       -2.5108    1.9472    3.9621 H         1 GTP         0.4411
     45 H45        -0.8530    1.8168    2.4986 H         1 GTP         0.4819
     46 H46        -0.6466    4.6966   -1.8702 H         1 GTP         0.5182
@<TRIPOS>BOND
     1    1    2 2
     2    1    3 1
     3    1    4 1
     4    1    5 1
     5    4   33 1
     6    5    6 1
     7    6    7 2
     8    6    8 1
     9    6    9 1
    10    9   10 1
    11   10   11 2
    12   10   12 1
    13   10   13 1
    14   13   14 1
    15   14   15 1
    16   14   34 1
    17   14   35 1
    18   15   16 1
    19   15   17 1
    20   15   36 1
    21   16   21 1
    22   17   18 1
    23   17   19 1
    24   17   37 1
    25   18   38 1
    26   19   20 1
    27   19   21 1
    28   19   39 1
    29   20   40 1
    30   21   22 1
    31   21   41 1
    32   22   23 ar
    33   22   32 ar
    34   23   24 ar
    35   23   42 1
    36   24   25 ar
    37   24   46 1
    38   25   26 ar
    39   25   32 ar
    40   26   27 2
    41   26   28 ar
    42   28   29 ar
    43   29   30 1
    44   29   31 ar
    45   30   43 1
    46   30   44 1
    47   31   32 ar
    48   31   45 1
@<TRIPOS>SUBSTRUCTURE
     1 GTP         1 GROUP 0 A     ****
@<TRIPOS>MOLECULE
[[[5-(2-amino-6-oxo-7,8-dihydro-3~{H}-purin-8-ylium-9-yl)-3,4-dihydroxy-tetrahydrofuran-2-yl]methoxy-oxido-phosphoryl]oxy-oxido-phosphoryl] hydrogen phosphate
   46    48     1     0     0
SMALL
USER_CHARGES

@<TRIPOS>ATOM
      1 PG          6.4493    0.4999   -0.6709 P.3       1 GTP         1.5447
      2 O1G         7.2459   -0.6315   -0.0602 O.co2     1 GTP        -0.8705
      3 O2G         7.1262    1.7804   -1.1064 O.co2     1 GTP        -0.8705
      4 O3G         5.2261    0.8786    0.3421 O.3       1 GTP        -0.7914
      5 O3B         5.5680   -0.0822   -1.9151 O.3       1 GTP        -0.8116
      6 PB          6.0567   -0.6811   -3.3532 P.3       1 GTP         1.6738
      7 O1B         6.7062    0.4311   -4.1460 O.co2     1 GTP        -0.8763
      8 O2B         6.7552   -2.0031   -3.1253 O.co2     1 GTP        -0.8763
      9 O3A         4.5995   -1.0324   -3.9995 O.3       1 GTP        -0.8005
     10 PA          3.3343   -0.0514   -4.3264 P.3       1 GTP         1.5754
     11 O1A         3.8090    1.0728   -5.2215 O.co2     1 GTP        -0.8771
     12 O2A         2.1448   -0.9056   -4.7073 O.co2     1 GTP        -0.8771
     13 O5'         3.0213    0.5153   -2.8245 O.3       1 GTP        -0.5809
     14 C5'         2.2816   -0.2918   -1.9206 C.3       1 GTP         0.1986
     15 C4'         2.7248    0.0226   -0.4980 C.3       1 GTP         0.0418
     16 O4'         2.4697    1.4219   -0.2462 O.3       1 GTP        -0.3505
     17 C3'         1.9404   -0.7419    0.5596 C.3       1 GTP         0.0909
     18 O3'         2.7418   -0.8086    1.7389 O.3       1 GTP        -0.6187
     19 C2'         0.7477    0.1630    0.7858 C.3       1 GTP         0.0706
     20 O2'         0.1373   -0.0577    2.0407 O.3       1 GTP        -0.6294
     21 C1'         1.3733    1.5427    0.6747 C.3       1 GTP         0.3895
     22 N9          0.4520    2.5240    0.1767 N.pl3     1 GTP        -0.4733
     23 C8          0.2012    2.8401   -1.0899 C.ar      1 GTP         0.2958
     24 N7         -0.7168    3.7990   -1.1981 N.pl3     1 GTP        -0.4933
     25 C5         -1.0645    4.1043    0.0896 C.ar      1 GTP        -0.1494
     26 C6         -2.0336    5.0870    0.5973 C.ar      1 GTP         0.7954
     27 O6         -2.6730    5.7839   -0.1834 O.2       1 GTP        -0.5729
     28 N1         -2.1539    5.1517    1.9868 N.2       1 GTP        -0.7443
     29 C2         -1.4288    4.3650    2.7566 C.ar      1 GTP         0.8831
     30 N2         -1.5126    4.3922    4.1250 N.pl3     1 GTP        -0.9204
     31 N3         -0.5167    3.4388    2.2748 N.pl3     1 GTP        -0.7173
     32 C4         -0.3638    3.3392    0.9318 C.ar      1 GTP         0.2626
     33 HOG3        4.6136    1.6005    0.0851 H         1 GTP         0.4102
     34 H5'         1.2163   -0.0770   -2.0471 H         1 GTP         0.0289
     35 H5''        2.4655   -1.3443   -2.1563 H         1 GTP         0.0289
     36 H4'         3.8044   -0.1397   -0.4040 H         1 GTP         0.2056
     37 H3'         1.6764   -1.7639    0.2728 H         1 GTP         0.1140
     38 HO3'        2.2232   -1.2979    2.3953 H         1 GTP         0.4287
     39 H2'        -0.0011    0.0027    0.0003 H         1 GTP         0.0809
     40 HO2'       -0.6141    0.5574    2.1082 H         1 GTP         0.4385
     41 H1'         1.7826    1.9024    1.6451 H         1 GTP         0.0794
     42 H8          0.6787    2.3803   -1.9373 H         1 GTP         0.3821
     43 HN21       -2.1462    5.0320    4.5446 H         1 GTP         0.4411
     44 HN22       -0.9365    3.7712    4.6440 H         1 GTP         0.4411
     45 H45         0.0318    2.8419    2.8816 H         1 GTP         0.4819
     46 H46        -1.0718    4.2049   -2.0526 H         1 GTP         0.5182
@<TRIPOS>BOND
     1    1    2 2
     2    1    3 1
     3    1    4 1
     4    1    5 1
     5    4   33 1
     6    5    6 1
     7    6    7 2
     8    6    8 1
     9    6    9 1
    10    9   10 1
    11   10   11 2
    12   10   12 1
    13   10   13 1
    14   13   14 1
    15   14   15 1
    16   14   34 1
    17   14   35 1
    18   15   16 1
    19   15   17 1
    20   15   36 1
    21   16   21 1
    22   17   18 1
    23   17   19 1
    24   17   37 1
    25   18   38 1
    26   19   20 1
    27   19   21 1
    28   19   39 1
    29   20   40 1
    30   21   22 1
    31   21   41 1
    32   22   23 ar
    33   22   32 ar
    34   23   24 ar
    35   23   42 1
    36   24   25 ar
    37   24   46 1
    38   25   26 ar
    39   25   32 ar
    40   26   27 2
    41   26   28 ar
    42   28   29 ar
    43   29   30 1
    44   29   31 ar
    45   30   43 1
    46   30   44 1
    47   31   32 ar
    48   31   45 1
@<TRIPOS>SUBSTRUCTURE
     1 GTP         1 GROUP 0 A     ****
@<TRIPOS>MOLECULE
[[[5-(2-amino-6-oxo-7,8-dihydro-3~{H}-purin-8-ylium-9-yl)-3,4-dihydroxy-tetrahydrofuran-2-yl]methoxy-oxido-phosphoryl]oxy-oxido-phosphoryl] hydrogen phosphate
   46    48     1     0     0
SMALL
USER_CHARGES

@<TRIPOS>ATOM
      1 PG          5.6601    1.8328   -0.0153 P.3       1 GTP         1.5447
      2 O1G         5.3864    0.5613    0.7567 O.co2     1 GTP        -0.8705
      3 O2G         7.0281    2.1088   -0.5985 O.co2     1 GTP        -0.8705
      4 O3G         5.2248    3.1054    0.9103 O.3       1 GTP        -0.7914
      5 O3B         4.5413    1.9903   -1.1931 O.3       1 GTP        -0.8116
      6 PB          4.2675    3.2329   -2.2161 P.3       1 GTP         1.6738
      7 O1B         3.8001    4.4271   -1.4143 O.co2     1 GTP        -0.8763
      8 O2B         5.4215    3.3348   -3.1885 O.co2     1 GTP        -0.8763
      9 O3A         3.0106    2.6117   -3.0522 O.3       1 GTP        -0.8005
     10 PA          2.9232    1.2546   -3.9579 P.3       1 GTP         1.5754
     11 O1A         1.4961    1.0747   -4.4283 O.co2     1 GTP        -0.8771
     12 O2A         4.0762    1.2511   -4.9378 O.co2     1 GTP        -0.8771
     13 O5'         3.2903    0.1346   -2.8241 O.3       1 GTP        -0.5809
     14 C5'         2.2816   -0.2918   -1.9206 C.3       1 GTP         0.1986
     15 C4'         2.7248    0.0226   -0.4980 C.3       1 GTP         0.0418
     16 O4'         2.4697    1.4219   -0.2462 O.3       1 GTP        -0.3505
     17 C3'         1.9404   -0.7419    0.5596 C.3       1 GTP         0.0909
     18 O3'         2.7418   -0.8086    1.7389 O.3       1 GTP        -0.6187
     19 C2'         0.7477    0.1630    0.7858 C.3       1 GTP         0.0706
     20 O2'         0.1373   -0.0577    2.0407 O.3       1 GTP        -0.6294
     21 C1'         1.3733    1.5427    0.6747 C.3       1 GTP         0.3895
     22 N9          0.4520    2.5240    0.1767 N.pl3     1 GTP        -0.4733
     23 C8         -0.2136    2.5096   -0.9739 C.ar      1 GTP         0.2958
     24 N7         -0.9896    3.5820   -1.1212 N.pl3     1 GTP        -0.4933
     25 C5         -0.7962    4.3186    0.0156 C.ar      1 GTP        -0.1494
     26 C6         -1.3875    5.6031    0.4192 C.ar      1 GTP         0.7954
     27 O6         -2.1869    6.1731   -0.3158 O.2       1 GTP        -0.5729
     28 N1         -0.9745    6.0930    1.6597 N.2       1 GTP        -0.7443
     29 C2         -0.1105    5.4166    2.3900 C.ar      1 GTP         0.8831
     30 N2          0.3241    5.8571    3.6138 N.pl3     1 GTP        -0.9204
     31 N3          0.4444    4.2053    2.0072 N.pl3     1 GTP        -0.7173
     32 C4          0.0746    3.6889    0.8098 C.ar      1 GTP         0.2626
     33 HOG3        5.3420    4.0090    0.5468 H         1 GTP         0.4102
     34 H5'         1.3514    0.2330   -2.1577 H         1 GTP         0.0289
     35 H5''        2.1280   -1.3678   -2.0460 H         1 GTP         0.0289
     36 H4'         3.8044   -0.1397   -0.4040 H         1 GTP         0.2056
     37 H3'         1.6764   -1.7639    0.2728 H         1 GTP         0.1140
     38 HO3'        2.2232   -1.2979    2.3953 H         1 GTP         0.4287
     39 H2'        -0.0011    0.0027    0.0003 H         1 GTP         0.0809
     40 HO2'       -0.1563   -0.9855    2.0596 H         1 GTP         0.4385
     41 H1'         1.7826    1.9024    1.6451 H         1 GTP         0.0794
     42 H8         -0.1415    1.7265   -1.7082 H         1 GTP         0.3821
     43 HN21       -0.0303    6.7197    3.9559 H         1 GTP         0.4411
     44 HN22        0.9765    5.2967    4.1108 H         1 GTP         0.4411
     45 H45         1.1068    3.6990    2.5819 H         1 GTP         0.4819
     46 H46        -1.5877    3.7943   -1.9074 H         1 GTP         0.5182
@<TRIPOS>BOND
     1    1    2 2
     2    1    3 1
     3    1    4 1
     4    1    5 1
     5    4   33 1
     6    5    6 1
     7    6    7 2
     8    6    8 1
     9    6    9 1
    10    9   10 1
    11   10   11 2
    12   10   12 1
    13   10   13 1
    14   13   14 1
    15   14   15 1
    16   14   34 1
    17   14   35 1
    18   15   16 1
    19   15   17 1
    20   15   36 1
    21   16   21 1
    22   17   18 1
    23   17   19 1
    24   17   37 1
    25   18   38 1
    26   19   20 1
    27   19   21 1
    28   19   39 1
    29   20   40 1
    30   21   22 1
    31   21   41 1
    32   22   23 ar
    33   22   32 ar
    34   23   24 ar
    35   23   42 1
    36   24   25 ar
    37   24   46 1
    38   25   26 ar
    39   25   32 ar
    40   26   27 2
    41   26   28 ar
    42   28   29 ar
    43   29   30 1
    44   29   31 ar
    45   30   43 1
    46   30   44 1
    47   31   32 ar
    48   31   45 1
@<TRIPOS>SUBSTRUCTURE
     1 GTP         1 GROUP 0 A     ****
@<TRIPOS>MOLECULE
[[[5-(2-amino-6-oxo-7,8-dihydro-3~{H}-purin-8-ylium-9-yl)-3,4-dihydroxy-tetrahydrofuran-2-yl]methoxy-oxido-phosphoryl]oxy-oxido-phosphoryl] hydrogen phosphate
   46    48     1     0     0
SMALL
USER_CHARGES

@<TRIPOS>ATOM
      1 PG          1.5661   -4.4016   -4.2028 P.3       1 GTP         1.5447
      2 O1G         0.6612   -4.7956   -5.3489 O.co2     1 GTP        -0.8705
      3 O2G         2.6564   -5.3313   -3.7184 O.co2     1 GTP        -0.8705
      4 O3G         0.6359   -3.9845   -2.9274 O.3       1 GTP        -0.7914
      5 O3B         2.2194   -2.9401   -4.5201 O.3       1 GTP        -0.8116
      6 PB          1.4924   -1.5338   -4.9194 P.3       1 GTP         1.6738
      7 O1B         0.8368   -1.6941   -6.2728 O.co2     1 GTP        -0.8763
      8 O2B         0.7234   -1.0190   -3.7231 O.co2     1 GTP        -0.8763
      9 O3A         2.8145   -0.5869   -5.0626 O.3       1 GTP        -0.8005
     10 PA          3.9554   -0.2064   -3.9565 P.3       1 GTP         1.5754
     11 O1A         4.5474   -1.4866   -3.4080 O.co2     1 GTP        -0.8771
     12 O2A         4.8382    0.8825   -4.5263 O.co2     1 GTP        -0.8771
     13 O5'         3.0213    0.5153   -2.8245 O.3       1 GTP        -0.5809
     14 C5'         2.2816   -0.2918   -1.9206 C.3       1 GTP         0.1986
     15 C4'         2.7248    0.0226   -0.4980 C.3       1 GTP         0.0418
     16 O4'         2.4697    1.4219   -0.2462 O.3       1 GTP        -0.3505
     17 C3'         1.9404   -0.7419    0.5596 C.3       1 GTP         0.0909
     18 O3'         2.7418   -0.8086    1.7389 O.3       1 GTP        -0.6187
     19 C2'         0.7477    0.1630    0.7858 C.3       1 GTP         0.0706
     20 O2'         0.1373   -0.0577    2.0407 O.3       1 GTP        -0.6294
     21 C1'         1.3733    1.5427    0.6747 C.3       1 GTP         0.3895
     22 N9          0.4520    2.5240    0.1767 N.pl3     1 GTP        -0.4733
     23 C8          0.2012    2.8401   -1.0899 C.ar      1 GTP         0.2958
     24 N7         -0.7168    3.7990   -1.1981 N.pl3     1 GTP        -0.4933
     25 C5         -1.0645    4.1043    0.0896 C.ar      1 GTP        -0.1494
     26 C6         -2.0336    5.0870    0.5973 C.ar      1 GTP         0.7954
     27 O6         -2.6730    5.7839   -0.1834 O.2       1 GTP        -0.5729
     28 N1         -2.1539    5.1517    1.9868 N.2       1 GTP        -0.7443
     29 C2         -1.4288    4.3650    2.7566 C.ar      1 GTP         0.8831
     30 N2         -1.5126    4.3922    4.1250 N.pl3     1 GTP        -0.9204
     31 N3         -0.5167    3.4388    2.2748 N.pl3     1 GTP        -0.7173
     32 C4         -0.3638    3.3392    0.9318 C.ar      1 GTP         0.2626
     33 HOG3        1.0789   -3.7020   -2.0990 H         1 GTP         0.4102
     34 H5'         1.2163   -0.0770   -2.0471 H         1 GTP         0.0289
     35 H5''        2.4655   -1.3443   -2.1563 H         1 GTP         0.0289
     36 H4'         3.8044   -0.1397   -0.4040 H         1 GTP         0.2056
     37 H3'         1.6764   -1.7639    0.2728 H         1 GTP         0.1140
     38 HO3'        2.2232   -1.2979    2.3953 H         1 GTP         0.4287
     39 H2'        -0.0011    0.0027    0.0003 H         1 GTP         0.0809
     40 HO2'       -0.6141    0.5574    2.1082 H         1 GTP         0.4385
     41 H1'         1.7826    1.9024    1.6451 H         1 GTP         0.0794
     42 H8          0.6787    2.3803   -1.9373 H         1 GTP         0.3821
     43 HN21       -2.1462    5.0320    4.5446 H         1 GTP         0.4411
     44 HN22       -0.9365    3.7712    4.6440 H         1 GTP         0.4411
     45 H45         0.0318    2.8419    2.8816 H         1 GTP         0.4819
     46 H46        -1.0718    4.2049   -2.0526 H         1 GTP         0.5182
@<TRIPOS>BOND
     1    1    2 2
     2    1    3 1
     3    1    4 1
     4    1    5 1
     5    4   33 1
     6    5    6 1
     7    6    7 2
     8    6    8 1
     9    6    9 1
    10    9   10 1
    11   10   11 2
    12   10   12 1
    13   10   13 1
    14   13   14 1
    15   14   15 1
    16   14   34 1
    17   14   35 1
    18   15   16 1
    19   15   17 1
    20   15   36 1
    21   16   21 1
    22   17   18 1
    23   17   19 1
    24   17   37 1
    25   18   38 1
    26   19   20 1
    27   19   21 1
    28   19   39 1
    29   20   40 1
    30   21   22 1
    31   21   41 1
    32   22   23 ar
    33   22   32 ar
    34   23   24 ar
    35   23   42 1
    36   24   25 ar
    37   24   46 1
    38   25   26 ar
    39   25   32 ar
    40   26   27 2
    41   26   28 ar
    42   28   29 ar
    43   29   30 1
    44   29   31 ar
    45   30   43 1
    46   30   44 1
    47   31   32 ar
    48   31   45 1
@<TRIPOS>SUBSTRUCTURE
     1 GTP         1 GROUP 0 A     ****
