@<TRIPOS>MOLECULE
[[[5-(2-amino-6-oxo-1~{H}-purin-9-yl)-3,4-dihydroxy-tetrahydrofuran-2-yl]methoxy-hydroxy-phosphoryl]oxy-hydroxy-phosphoryl] phosphate
   46    48     1     0     0
SMALL
USER_CHARGES

@<TRIPOS>ATOM
      1 PG         -2.1501    2.2837   -3.2841 P.3       1 GTP         1.3594
      2 O1G        -1.4921    0.9234   -3.0774 O.co2     1 GTP        -0.8909
      3 O2G        -2.7312    2.4958   -4.6780 O.co2     1 GTP        -0.8909
      4 O3G        -3.0750    2.7107   -2.1490 O.co2     1 GTP        -0.8909
      5 O3B        -0.9002    3.3542   -3.1968 O.3       1 GTP        -0.7106
      6 PB          0.1452    3.6609   -2.0015 P.3       1 GTP         1.8242
      7 O1B         0.9819    2.4895   -1.5791 O.2       1 GTP        -0.9138
      8 O2B         0.9775    4.9336   -2.5496 O.3       1 GTP        -0.7900
      9 O3A        -0.7948    4.2874   -0.8470 O.3       1 GTP        -0.8086
     10 PA         -0.4418    4.8275    0.6351 P.3       1 GTP         1.7888
     11 O1A         0.5363    5.9662    0.6563 O.2       1 GTP        -0.8200
     12 O2A        -1.8895    5.1640    1.2739 O.3       1 GTP        -0.8185
     13 O5'         0.0170    3.5129    1.4592 O.3       1 GTP        -0.5679
     14 C5'        -0.8811    2.4285    1.6206 C.3       1 GTP         0.1794
     15 C4'        -0.1994    1.3333    2.4288 C.3       1 GTP         0.1313
     16 O4'        -1.1285    0.2356    2.5840 O.3       1 GTP        -0.3993
     17 C3'         1.0324    0.7610    1.7344 C.3       1 GTP         0.0846
     18 O3'         1.9175    0.2377    2.7247 O.3       1 GTP        -0.5819
     19 C2'         0.4468   -0.3802    0.9263 C.3       1 GTP         0.0567
     20 O2'         1.3993   -1.3703    0.5961 O.3       1 GTP        -0.5837
     21 C1'        -0.6159   -0.9100    1.8769 C.3       1 GTP         0.2547
     22 N9         -1.7127   -1.6108    1.2130 N.pl3     1 GTP        -0.2013
     23 C8         -1.7695   -2.9586    0.9546 C.ar      1 GTP         0.4384
     24 N7         -2.8846   -3.3047    0.3416 N.2       1 GTP        -0.6072
     25 C5         -3.5626   -2.1296    0.2052 C.ar      1 GTP         0.1855
     26 C6         -4.8477   -1.8989   -0.3942 C.ar      1 GTP         0.6502
     27 O6         -5.5373   -2.7819   -0.8881 O.2       1 GTP        -0.6193
     28 N1         -5.1895   -0.5407   -0.3318 N.pl3     1 GTP        -0.5097
     29 C2         -4.3899    0.4774    0.2398 C.ar      1 GTP         0.6454
     30 N2         -4.9233    1.7390    0.1898 N.pl3     1 GTP        -0.8839
     31 N3         -3.2159    0.2369    0.7822 N.2       1 GTP        -0.6390
     32 C4         -2.8678   -1.0679    0.7322 C.ar      1 GTP         0.0961
     33 HOB2        1.6246    5.3693   -1.9549 H         1 GTP         0.4357
     34 HOA2       -1.9407    5.4416    2.2132 H         1 GTP         0.4835
     35 H5'        -1.7776    2.7841    2.1389 H         1 GTP         0.0448
     36 H5''       -1.1659    2.0533    0.6322 H         1 GTP         0.0448
     37 H4'         0.0402    1.7079    3.4342 H         1 GTP         0.1246
     38 H3'         1.5907    1.4859    1.1353 H         1 GTP         0.0764
     39 HO3'        2.6839   -0.1150    2.2479 H         1 GTP         0.4062
     40 H2'        -0.0017    0.0018    0.0005 H         1 GTP         0.0706
     41 HO2'        2.0953   -0.9375    0.0709 H         1 GTP         0.4064
     42 H1'        -0.1998   -1.6319    2.6178 H         1 GTP         0.1053
     43 H8         -0.9713   -3.6323    1.2352 H         1 GTP         0.0995
     44 HN1        -6.0831   -0.2651   -0.7290 H         1 GTP         0.3262
     45 HN21       -4.3984    2.4878    0.5788 H         1 GTP         0.4043
     46 HN22       -5.8145    1.8572   -0.2335 H         1 GTP         0.4043
@<TRIPOS>BOND
     1    1    2 2
     2    1    3 1
     3    1    4 1
     4    1    5 1
     5    5    6 1
     6    6    7 2
     7    6    8 1
     8    6    9 1
     9    8   33 1
    10    9   10 1
    11   10   11 2
    12   10   12 1
    13   10   13 1
    14   12   34 1
    15   13   14 1
    16   14   15 1
    17   14   35 1
    18   14   36 1
    19   15   16 1
    20   15   17 1
    21   15   37 1
    22   16   21 1
    23   17   18 1
    24   17   19 1
    25   17   38 1
    26   18   39 1
    27   19   20 1
    28   19   21 1
    29   19   40 1
    30   20   41 1
    31   21   22 1
    32   21   42 1
    33   22   23 ar
    34   22   32 ar
    35   23   24 ar
    36   23   43 1
    37   24   25 ar
    38   25   26 ar
    39   25   32 ar
    40   26   27 2
    41   26   28 ar
    42   28   29 ar
    43   28   44 1
    44   29   30 1
    45   29   31 ar
    46   30   45 1
    47   30   46 1
    48   31   32 ar
@<TRIPOS>SUBSTRUCTURE
     1 GTP         1 GROUP 0 A     ****
@<TRIPOS>MOLECULE
[[[5-(2-amino-6-oxo-1~{H}-purin-9-yl)-3,4-dihydroxy-tetrahydrofuran-2-yl]methoxy-hydroxy-phosphoryl]oxy-hydroxy-phosphoryl] phosphate
   46    48     1     0     0
SMALL
USER_CHARGES

@<TRIPOS>ATOM
      1 PG         -2.1501    2.2837   -3.2841 P.3       1 GTP         1.3594
      2 O1G        -1.4921    0.9234   -3.0774 O.co2     1 GTP        -0.8909
      3 O2G        -2.7312    2.4958   -4.6780 O.co2     1 GTP        -0.8909
      4 O3G        -3.0750    2.7107   -2.1490 O.co2     1 GTP        -0.8909
      5 O3B        -0.9002    3.3542   -3.1968 O.3       1 GTP        -0.7106
      6 PB          0.1452    3.6609   -2.0015 P.3       1 GTP         1.8242
      7 O1B         0.9819    2.4895   -1.5791 O.2       1 GTP        -0.9138
      8 O2B         0.9775    4.9336   -2.5496 O.3       1 GTP        -0.7900
      9 O3A        -0.7948    4.2874   -0.8470 O.3       1 GTP        -0.8086
     10 PA         -0.4418    4.8275    0.6351 P.3       1 GTP         1.7888
     11 O1A         0.5363    5.9662    0.6563 O.2       1 GTP        -0.8200
     12 O2A        -1.8895    5.1640    1.2739 O.3       1 GTP        -0.8185
     13 O5'         0.0170    3.5129    1.4592 O.3       1 GTP        -0.5679
     14 C5'        -0.8811    2.4285    1.6206 C.3       1 GTP         0.1794
     15 C4'        -0.1994    1.3333    2.4288 C.3       1 GTP         0.1313
     16 O4'        -1.1285    0.2356    2.5840 O.3       1 GTP        -0.3993
     17 C3'         1.0324    0.7610    1.7344 C.3       1 GTP         0.0846
     18 O3'         1.9175    0.2377    2.7247 O.3       1 GTP        -0.5819
     19 C2'         0.4468   -0.3802    0.9263 C.3       1 GTP         0.0567
     20 O2'         1.3993   -1.3703    0.5961 O.3       1 GTP        -0.5837
     21 C1'        -0.6159   -0.9100    1.8769 C.3       1 GTP         0.2547
     22 N9         -1.7127   -1.6108    1.2130 N.pl3     1 GTP        -0.2013
     23 C8         -2.8667   -1.0365    0.7385 C.ar      1 GTP         0.4384
     24 N7         -3.6757   -1.9196    0.1868 N.2       1 GTP        -0.6072
     25 C5         -3.0088   -3.1018    0.3164 C.ar      1 GTP         0.1855
     26 C6         -3.4148   -4.4130   -0.1079 C.ar      1 GTP         0.6502
     27 O6         -4.4753   -4.6480   -0.6732 O.2       1 GTP        -0.6193
     28 N1         -2.4377   -5.3653    0.2144 N.pl3     1 GTP        -0.5097
     29 C2         -1.2132   -5.0902    0.8680 C.ar      1 GTP         0.6454
     30 N2         -0.4066   -6.1772    1.0834 N.pl3     1 GTP        -0.8839
     31 N3         -0.8672   -3.8786    1.2457 N.2       1 GTP        -0.6390
     32 C4         -1.7966   -2.9451    0.9439 C.ar      1 GTP         0.0961
     33 HOB2        1.6246    5.3693   -1.9549 H         1 GTP         0.4357
     34 HOA2       -1.9407    5.4416    2.2132 H         1 GTP         0.4835
     35 H5'        -1.7776    2.7841    2.1389 H         1 GTP         0.0448
     36 H5''       -1.1659    2.0533    0.6322 H         1 GTP         0.0448
     37 H4'         0.0402    1.7079    3.4342 H         1 GTP         0.1246
     38 H3'         1.5907    1.4859    1.1353 H         1 GTP         0.0764
     39 HO3'        2.6839   -0.1150    2.2479 H         1 GTP         0.4062
     40 H2'        -0.0017    0.0018    0.0005 H         1 GTP         0.0706
     41 HO2'        2.0953   -0.9375    0.0709 H         1 GTP         0.4064
     42 H1'        -0.1998   -1.6319    2.6178 H         1 GTP         0.1053
     43 H8         -3.0589    0.0244    0.8247 H         1 GTP         0.0995
     44 HN1        -2.6238   -6.3307   -0.0420 H         1 GTP         0.3262
     45 HN21        0.4646   -6.0341    1.5394 H         1 GTP         0.4043
     46 HN22       -0.7235   -7.0673    0.7753 H         1 GTP         0.4043
@<TRIPOS>BOND
     1    1    2 2
     2    1    3 1
     3    1    4 1
     4    1    5 1
     5    5    6 1
     6    6    7 2
     7    6    8 1
     8    6    9 1
     9    8   33 1
    10    9   10 1
    11   10   11 2
    12   10   12 1
    13   10   13 1
    14   12   34 1
    15   13   14 1
    16   14   15 1
    17   14   35 1
    18   14   36 1
    19   15   16 1
    20   15   17 1
    21   15   37 1
    22   16   21 1
    23   17   18 1
    24   17   19 1
    25   17   38 1
    26   18   39 1
    27   19   20 1
    28   19   21 1
    29   19   40 1
    30   20   41 1
    31   21   22 1
    32   21   42 1
    33   22   23 ar
    34   22   32 ar
    35   23   24 ar
    36   23   43 1
    37   24   25 ar
    38   25   26 ar
    39   25   32 ar
    40   26   27 2
    41   26   28 ar
    42   28   29 ar
    43   28   44 1
    44   29   30 1
    45   29   31 ar
    46   30   45 1
    47   30   46 1
    48   31   32 ar
@<TRIPOS>SUBSTRUCTURE
     1 GTP         1 GROUP 0 A     ****
@<TRIPOS>MOLECULE
[[[5-(2-amino-6-oxo-1~{H}-purin-9-yl)-3,4-dihydroxy-tetrahydrofuran-2-yl]methoxy-hydroxy-phosphoryl]oxy-hydroxy-phosphoryl] phosphate
   46    48     1     0     0
SMALL
USER_CHARGES

@<TRIPOS>ATOM
      1 PG          0.7456    5.3931    4.6783 P.3       1 GTP         1.3594
      2 O1G         1.7903    6.3091    4.0493 O.co2     1 GTP        -0.8909
      3 O2G         1.2503    3.9898    4.9974 O.co2     1 GTP        -0.8909
      4 O3G        -0.0586    6.0393    5.8017 O.co2     1 GTP        -0.8909
      5 O3B        -0.3640    5.1645    3.4815 O.3       1 GTP        -0.7106
      6 PB         -1.2827    6.2250    2.6774 P.3       1 GTP         1.8242
      7 O1B        -2.2175    7.0268    3.5341 O.2       1 GTP        -0.9138
      8 O2B        -0.2064    7.0940    1.8410 O.3       1 GTP        -0.7900
      9 O3A        -1.9938    5.3110    1.5513 O.3       1 GTP        -0.8086
     10 PA         -2.9684    4.0281    1.6828 P.3       1 GTP         1.7888
     11 O1A        -4.2427    4.2995    2.4285 O.2       1 GTP        -0.8200
     12 O2A        -3.1675    3.5413    0.1529 O.3       1 GTP        -0.8185
     13 O5'        -2.0396    2.8622    2.3120 O.3       1 GTP        -0.5679
     14 C5'        -0.8811    2.4285    1.6206 C.3       1 GTP         0.1794
     15 C4'        -0.1994    1.3333    2.4288 C.3       1 GTP         0.1313
     16 O4'        -1.1285    0.2356    2.5840 O.3       1 GTP        -0.3993
     17 C3'         1.0324    0.7610    1.7344 C.3       1 GTP         0.0846
     18 O3'         1.9175    0.2377    2.7247 O.3       1 GTP        -0.5819
     19 C2'         0.4468   -0.3802    0.9263 C.3       1 GTP         0.0567
     20 O2'         1.3993   -1.3703    0.5961 O.3       1 GTP        -0.5837
     21 C1'        -0.6159   -0.9100    1.8769 C.3       1 GTP         0.2547
     22 N9         -1.7127   -1.6108    1.2130 N.pl3     1 GTP        -0.2013
     23 C8         -2.8667   -1.0365    0.7385 C.ar      1 GTP         0.4384
     24 N7         -3.6757   -1.9196    0.1868 N.2       1 GTP        -0.6072
     25 C5         -3.0088   -3.1018    0.3164 C.ar      1 GTP         0.1855
     26 C6         -3.4148   -4.4130   -0.1079 C.ar      1 GTP         0.6502
     27 O6         -4.4753   -4.6480   -0.6732 O.2       1 GTP        -0.6193
     28 N1         -2.4377   -5.3653    0.2144 N.pl3     1 GTP        -0.5097
     29 C2         -1.2132   -5.0902    0.8680 C.ar      1 GTP         0.6454
     30 N2         -0.4066   -6.1772    1.0834 N.pl3     1 GTP        -0.8839
     31 N3         -0.8672   -3.8786    1.2457 N.2       1 GTP        -0.6390
     32 C4         -1.7966   -2.9451    0.9439 C.ar      1 GTP         0.0961
     33 HOB2        0.4265    7.6626    2.3291 H         1 GTP         0.4357
     34 HOA2       -3.6694    2.7168   -0.0211 H         1 GTP         0.4835
     35 H5'        -1.1760    2.0498    0.6365 H         1 GTP         0.0448
     36 H5''       -0.2072    3.2811    1.4873 H         1 GTP         0.0448
     37 H4'         0.0402    1.7079    3.4342 H         1 GTP         0.1246
     38 H3'         1.5907    1.4859    1.1353 H         1 GTP         0.0764
     39 HO3'        2.6839   -0.1150    2.2479 H         1 GTP         0.4062
     40 H2'        -0.0017    0.0018    0.0005 H         1 GTP         0.0706
     41 HO2'        2.0953   -0.9375    0.0709 H         1 GTP         0.4064
     42 H1'        -0.1998   -1.6319    2.6178 H         1 GTP         0.1053
     43 H8         -3.0589    0.0244    0.8247 H         1 GTP         0.0995
     44 HN1        -2.6238   -6.3307   -0.0420 H         1 GTP         0.3262
     45 HN21        0.4646   -6.0341    1.5394 H         1 GTP         0.4043
     46 HN22       -0.7235   -7.0673    0.7753 H         1 GTP         0.4043
@<TRIPOS>BOND
     1    1    2 2
     2    1    3 1
     3    1    4 1
     4    1    5 1
     5    5    6 1
     6    6    7 2
     7    6    8 1
     8    6    9 1
     9    8   33 1
    10    9   10 1
    11   10   11 2
    12   10   12 1
    13   10   13 1
    14   12   34 1
    15   13   14 1
    16   14   15 1
    17   14   35 1
    18   14   36 1
    19   15   16 1
    20   15   17 1
    21   15   37 1
    22   16   21 1
    23   17   18 1
    24   17   19 1
    25   17   38 1
    26   18   39 1
    27   19   20 1
    28   19   21 1
    29   19   40 1
    30   20   41 1
    31   21   22 1
    32   21   42 1
    33   22   23 ar
    34   22   32 ar
    35   23   24 ar
    36   23   43 1
    37   24   25 ar
    38   25   26 ar
    39   25   32 ar
    40   26   27 2
    41   26   28 ar
    42   28   29 ar
    43   28   44 1
    44   29   30 1
    45   29   31 ar
    46   30   45 1
    47   30   46 1
    48   31   32 ar
@<TRIPOS>SUBSTRUCTURE
     1 GTP         1 GROUP 0 A     ****
@<TRIPOS>MOLECULE
[[[5-(2-amino-6-oxo-1~{H}-purin-9-yl)-3,4-dihydroxy-tetrahydrofuran-2-yl]methoxy-hydroxy-phosphoryl]oxy-hydroxy-phosphoryl] phosphate
   46    48     1     0     0
SMALL
USER_CHARGES

@<TRIPOS>ATOM
      1 PG         -2.7725    2.4772   -3.1520 P.3       1 GTP         1.3594
      2 O1G        -2.0938    2.9732   -4.4245 O.co2     1 GTP        -0.8909
      3 O2G        -4.1304    1.8210   -3.3784 O.co2     1 GTP        -0.8909
      4 O3G        -1.8529    1.7040   -2.2125 O.co2     1 GTP        -0.8909
      5 O3B        -3.1201    3.8546   -2.3166 O.3       1 GTP        -0.7106
      6 PB         -2.1508    5.0197   -1.7523 P.3       1 GTP         1.8242
      7 O1B        -1.3463    5.7329   -2.7986 O.2       1 GTP        -0.9138
      8 O2B        -3.1525    5.9603   -0.9008 O.3       1 GTP        -0.7900
      9 O3A        -1.2866    4.2581   -0.6199 O.3       1 GTP        -0.8086
     10 PA         -0.4418    4.8275    0.6351 P.3       1 GTP         1.7888
     11 O1A         0.6706    5.7604    0.2532 O.2       1 GTP        -0.8200
     12 O2A        -1.5721    5.4755    1.5941 O.3       1 GTP        -0.8185
     13 O5'         0.0170    3.5129    1.4592 O.3       1 GTP        -0.5679
     14 C5'        -0.8811    2.4285    1.6206 C.3       1 GTP         0.1794
     15 C4'        -0.1994    1.3333    2.4288 C.3       1 GTP         0.1313
     16 O4'        -1.1285    0.2356    2.5840 O.3       1 GTP        -0.3993
     17 C3'         1.0324    0.7610    1.7344 C.3       1 GTP         0.0846
     18 O3'         1.9175    0.2377    2.7247 O.3       1 GTP        -0.5819
     19 C2'         0.4468   -0.3802    0.9263 C.3       1 GTP         0.0567
     20 O2'         1.3993   -1.3703    0.5961 O.3       1 GTP        -0.5837
     21 C1'        -0.6159   -0.9100    1.8769 C.3       1 GTP         0.2547
     22 N9         -1.7127   -1.6108    1.2130 N.pl3     1 GTP        -0.2013
     23 C8         -1.7695   -2.9586    0.9546 C.ar      1 GTP         0.4384
     24 N7         -2.8846   -3.3047    0.3416 N.2       1 GTP        -0.6072
     25 C5         -3.5626   -2.1296    0.2052 C.ar      1 GTP         0.1855
     26 C6         -4.8477   -1.8989   -0.3942 C.ar      1 GTP         0.6502
     27 O6         -5.5373   -2.7819   -0.8881 O.2       1 GTP        -0.6193
     28 N1         -5.1895   -0.5407   -0.3318 N.pl3     1 GTP        -0.5097
     29 C2         -4.3899    0.4774    0.2398 C.ar      1 GTP         0.6454
     30 N2         -4.9233    1.7390    0.1898 N.pl3     1 GTP        -0.8839
     31 N3         -3.2159    0.2369    0.7822 N.2       1 GTP        -0.6390
     32 C4         -2.8678   -1.0679    0.7322 C.ar      1 GTP         0.0961
     33 HOB2       -2.7783    6.7011   -0.3780 H         1 GTP         0.4357
     34 HOA2       -1.3068    5.8247    2.4714 H         1 GTP         0.4835
     35 H5'        -1.7776    2.7841    2.1389 H         1 GTP         0.0448
     36 H5''       -1.1659    2.0533    0.6322 H         1 GTP         0.0448
     37 H4'         0.0402    1.7079    3.4342 H         1 GTP         0.1246
     38 H3'         1.5907    1.4859    1.1353 H         1 GTP         0.0764
     39 HO3'        2.6839   -0.1150    2.2479 H         1 GTP         0.4062
     40 H2'        -0.0017    0.0018    0.0005 H         1 GTP         0.0706
     41 HO2'        2.0953   -0.9375    0.0709 H         1 GTP         0.4064
     42 H1'        -0.1998   -1.6319    2.6178 H         1 GTP         0.1053
     43 H8         -0.9713   -3.6323    1.2352 H         1 GTP         0.0995
     44 HN1        -6.0831   -0.2651   -0.7290 H         1 GTP         0.3262
     45 HN21       -4.3984    2.4878    0.5788 H         1 GTP         0.4043
     46 HN22       -5.8145    1.8572   -0.2335 H         1 GTP         0.4043
@<TRIPOS>BOND
     1    1    2 2
     2    1    3 1
     3    1    4 1
     4    1    5 1
     5    5    6 1
     6    6    7 2
     7    6    8 1
     8    6    9 1
     9    8   33 1
    10    9   10 1
    11   10   11 2
    12   10   12 1
    13   10   13 1
    14   12   34 1
    15   13   14 1
    16   14   15 1
    17   14   35 1
    18   14   36 1
    19   15   16 1
    20   15   17 1
    21   15   37 1
    22   16   21 1
    23   17   18 1
    24   17   19 1
    25   17   38 1
    26   18   39 1
    27   19   20 1
    28   19   21 1
    29   19   40 1
    30   20   41 1
    31   21   22 1
    32   21   42 1
    33   22   23 ar
    34   22   32 ar
    35   23   24 ar
    36   23   43 1
    37   24   25 ar
    38   25   26 ar
    39   25   32 ar
    40   26   27 2
    41   26   28 ar
    42   28   29 ar
    43   28   44 1
    44   29   30 1
    45   29   31 ar
    46   30   45 1
    47   30   46 1
    48   31   32 ar
@<TRIPOS>SUBSTRUCTURE
     1 GTP         1 GROUP 0 A     ****
@<TRIPOS>MOLECULE
[[[5-(2-amino-6-oxo-1~{H}-purin-9-yl)-3,4-dihydroxy-tetrahydrofuran-2-yl]methoxy-hydroxy-phosphoryl]oxy-hydroxy-phosphoryl] phosphate
   46    48     1     0     0
SMALL
USER_CHARGES

@<TRIPOS>ATOM
      1 PG          0.8151    7.1304    0.7827 P.3       1 GTP         1.3594
      2 O1G         1.9117    6.5405    1.6632 O.co2     1 GTP        -0.8909
      3 O2G         1.1022    8.5419    0.2817 O.co2     1 GTP        -0.8909
      4 O3G         0.2942    6.1796   -0.2900 O.co2     1 GTP        -0.8909
      5 O3B        -0.4667    7.3131    1.8022 O.3       1 GTP        -0.7106
      6 PB         -1.2827    6.2250    2.6774 P.3       1 GTP         1.8242
      7 O1B        -0.4572    5.4758    3.6813 O.2       1 GTP        -0.9138
      8 O2B        -2.5027    7.0839    3.2994 O.3       1 GTP        -0.7900
      9 O3A        -1.9938    5.3110    1.5513 O.3       1 GTP        -0.8086
     10 PA         -2.9684    4.0281    1.6828 P.3       1 GTP         1.7888
     11 O1A        -4.2427    4.2995    2.4285 O.2       1 GTP        -0.8200
     12 O2A        -3.1675    3.5413    0.1529 O.3       1 GTP        -0.8185
     13 O5'        -2.0396    2.8622    2.3120 O.3       1 GTP        -0.5679
     14 C5'        -0.8811    2.4285    1.6206 C.3       1 GTP         0.1794
     15 C4'        -0.1994    1.3333    2.4288 C.3       1 GTP         0.1313
     16 O4'        -1.1285    0.2356    2.5840 O.3       1 GTP        -0.3993
     17 C3'         1.0324    0.7610    1.7344 C.3       1 GTP         0.0846
     18 O3'         1.9175    0.2377    2.7247 O.3       1 GTP        -0.5819
     19 C2'         0.4468   -0.3802    0.9263 C.3       1 GTP         0.0567
     20 O2'         1.3993   -1.3703    0.5961 O.3       1 GTP        -0.5837
     21 C1'        -0.6159   -0.9100    1.8769 C.3       1 GTP         0.2547
     22 N9         -1.7127   -1.6108    1.2130 N.pl3     1 GTP        -0.2013
     23 C8         -2.8667   -1.0365    0.7385 C.ar      1 GTP         0.4384
     24 N7         -3.6757   -1.9196    0.1868 N.2       1 GTP        -0.6072
     25 C5         -3.0088   -3.1018    0.3164 C.ar      1 GTP         0.1855
     26 C6         -3.4148   -4.4130   -0.1079 C.ar      1 GTP         0.6502
     27 O6         -4.4753   -4.6480   -0.6732 O.2       1 GTP        -0.6193
     28 N1         -2.4377   -5.3653    0.2144 N.pl3     1 GTP        -0.5097
     29 C2         -1.2132   -5.0902    0.8680 C.ar      1 GTP         0.6454
     30 N2         -0.4066   -6.1772    1.0834 N.pl3     1 GTP        -0.8839
     31 N3         -0.8672   -3.8786    1.2457 N.2       1 GTP        -0.6390
     32 C4         -1.7966   -2.9451    0.9439 C.ar      1 GTP         0.0961
     33 HOB2       -3.2009    6.6178    3.8068 H         1 GTP         0.4357
     34 HOA2       -3.6694    2.7168   -0.0211 H         1 GTP         0.4835
     35 H5'        -1.1760    2.0498    0.6365 H         1 GTP         0.0448
     36 H5''       -0.2072    3.2811    1.4873 H         1 GTP         0.0448
     37 H4'         0.0402    1.7079    3.4342 H         1 GTP         0.1246
     38 H3'         1.5907    1.4859    1.1353 H         1 GTP         0.0764
     39 HO3'        2.6839   -0.1150    2.2479 H         1 GTP         0.4062
     40 H2'        -0.0017    0.0018    0.0005 H         1 GTP         0.0706
     41 HO2'        2.0953   -0.9375    0.0709 H         1 GTP         0.4064
     42 H1'        -0.1998   -1.6319    2.6178 H         1 GTP         0.1053
     43 H8         -3.0589    0.0244    0.8247 H         1 GTP         0.0995
     44 HN1        -2.6238   -6.3307   -0.0420 H         1 GTP         0.3262
     45 HN21        0.4646   -6.0341    1.5394 H         1 GTP         0.4043
     46 HN22       -0.7235   -7.0673    0.7753 H         1 GTP         0.4043
@<TRIPOS>BOND
     1    1    2 2
     2    1    3 1
     3    1    4 1
     4    1    5 1
     5    5    6 1
     6    6    7 2
     7    6    8 1
     8    6    9 1
     9    8   33 1
    10    9   10 1
    11   10   11 2
    12   10   12 1
    13   10   13 1
    14   12   34 1
    15   13   14 1
    16   14   15 1
    17   14   35 1
    18   14   36 1
    19   15   16 1
    20   15   17 1
    21   15   37 1
    22   16   21 1
    23   17   18 1
    24   17   19 1
    25   17   38 1
    26   18   39 1
    27   19   20 1
    28   19   21 1
    29   19   40 1
    30   20   41 1
    31   21   22 1
    32   21   42 1
    33   22   23 ar
    34   22   32 ar
    35   23   24 ar
    36   23   43 1
    37   24   25 ar
    38   25   26 ar
    39   25   32 ar
    40   26   27 2
    41   26   28 ar
    42   28   29 ar
    43   28   44 1
    44   29   30 1
    45   29   31 ar
    46   30   45 1
    47   30   46 1
    48   31   32 ar
@<TRIPOS>SUBSTRUCTURE
     1 GTP         1 GROUP 0 A     ****
@<TRIPOS>MOLECULE
[[[5-(2-amino-6-oxo-1~{H}-purin-9-yl)-3,4-dihydroxy-tetrahydrofuran-2-yl]methoxy-hydroxy-phosphoryl]oxy-hydroxy-phosphoryl] phosphate
   46    48     1     0     0
SMALL
USER_CHARGES

@<TRIPOS>ATOM
      1 PG          1.9021    6.4146    3.0531 P.3       1 GTP         1.3594
      2 O1G         2.6441    5.2497    3.7000 O.co2     1 GTP        -0.8909
      3 O2G         2.5770    7.7698    3.2370 O.co2     1 GTP        -0.8909
      4 O3G         1.4258    6.1407    1.6303 O.co2     1 GTP        -0.8909
      5 O3B         0.5053    6.5344    3.9193 O.3       1 GTP        -0.7106
      6 PB         -0.6841    5.4647    4.1573 P.3       1 GTP         1.8242
      7 O1B        -0.2602    4.1871    4.8197 O.2       1 GTP        -0.9138
      8 O2B        -1.7976    6.3159    4.9626 O.3       1 GTP        -0.7900
      9 O3A        -1.3235    5.2967    2.6835 O.3       1 GTP        -0.8086
     10 PA         -2.5519    4.3888    2.1545 P.3       1 GTP         1.7888
     11 O1A        -3.8664    4.6910    2.8135 O.2       1 GTP        -0.8200
     12 O2A        -2.5288    4.6111    0.5522 O.3       1 GTP        -0.8185
     13 O5'        -2.0396    2.8622    2.3120 O.3       1 GTP        -0.5679
     14 C5'        -0.8811    2.4285    1.6206 C.3       1 GTP         0.1794
     15 C4'        -0.1994    1.3333    2.4288 C.3       1 GTP         0.1313
     16 O4'        -1.1285    0.2356    2.5840 O.3       1 GTP        -0.3993
     17 C3'         1.0324    0.7610    1.7344 C.3       1 GTP         0.0846
     18 O3'         1.9175    0.2377    2.7247 O.3       1 GTP        -0.5819
     19 C2'         0.4468   -0.3802    0.9263 C.3       1 GTP         0.0567
     20 O2'         1.3993   -1.3703    0.5961 O.3       1 GTP        -0.5837
     21 C1'        -0.6159   -0.9100    1.8769 C.3       1 GTP         0.2547
     22 N9         -1.7127   -1.6108    1.2130 N.pl3     1 GTP        -0.2013
     23 C8         -1.7695   -2.9586    0.9546 C.ar      1 GTP         0.4384
     24 N7         -2.8846   -3.3047    0.3416 N.2       1 GTP        -0.6072
     25 C5         -3.5626   -2.1296    0.2052 C.ar      1 GTP         0.1855
     26 C6         -4.8477   -1.8989   -0.3942 C.ar      1 GTP         0.6502
     27 O6         -5.5373   -2.7819   -0.8881 O.2       1 GTP        -0.6193
     28 N1         -5.1895   -0.5407   -0.3318 N.pl3     1 GTP        -0.5097
     29 C2         -4.3899    0.4774    0.2398 C.ar      1 GTP         0.6454
     30 N2         -4.9233    1.7390    0.1898 N.pl3     1 GTP        -0.8839
     31 N3         -3.2159    0.2369    0.7822 N.2       1 GTP        -0.6390
     32 C4         -2.8678   -1.0679    0.7322 C.ar      1 GTP         0.0961
     33 HOB2       -2.6676    5.9029    5.1488 H         1 GTP         0.4357
     34 HOA2       -2.7205    5.5039    0.1942 H         1 GTP         0.4835
     35 H5'        -1.1760    2.0498    0.6365 H         1 GTP         0.0448
     36 H5''       -0.2072    3.2811    1.4873 H         1 GTP         0.0448
     37 H4'         0.0402    1.7079    3.4342 H         1 GTP         0.1246
     38 H3'         1.5907    1.4859    1.1353 H         1 GTP         0.0764
     39 HO3'        2.6839   -0.1150    2.2479 H         1 GTP         0.4062
     40 H2'        -0.0017    0.0018    0.0005 H         1 GTP         0.0706
     41 HO2'        2.0953   -0.9375    0.0709 H         1 GTP         0.4064
     42 H1'        -0.1998   -1.6319    2.6178 H         1 GTP         0.1053
     43 H8         -0.9713   -3.6323    1.2352 H         1 GTP         0.0995
     44 HN1        -6.0831   -0.2651   -0.7290 H         1 GTP         0.3262
     45 HN21       -4.3984    2.4878    0.5788 H         1 GTP         0.4043
     46 HN22       -5.8145    1.8572   -0.2335 H         1 GTP         0.4043
@<TRIPOS>BOND
     1    1    2 2
     2    1    3 1
     3    1    4 1
     4    1    5 1
     5    5    6 1
     6    6    7 2
     7    6    8 1
     8    6    9 1
     9    8   33 1
    10    9   10 1
    11   10   11 2
    12   10   12 1
    13   10   13 1
    14   12   34 1
    15   13   14 1
    16   14   15 1
    17   14   35 1
    18   14   36 1
    19   15   16 1
    20   15   17 1
    21   15   37 1
    22   16   21 1
    23   17   18 1
    24   17   19 1
    25   17   38 1
    26   18   39 1
    27   19   20 1
    28   19   21 1
    29   19   40 1
    30   20   41 1
    31   21   22 1
    32   21   42 1
    33   22   23 ar
    34   22   32 ar
    35   23   24 ar
    36   23   43 1
    37   24   25 ar
    38   25   26 ar
    39   25   32 ar
    40   26   27 2
    41   26   28 ar
    42   28   29 ar
    43   28   44 1
    44   29   30 1
    45   29   31 ar
    46   30   45 1
    47   30   46 1
    48   31   32 ar
@<TRIPOS>SUBSTRUCTURE
     1 GTP         1 GROUP 0 A     ****
@<TRIPOS>MOLECULE
[[[5-(2-amino-6-oxo-1~{H}-purin-9-yl)-3,4-dihydroxy-tetrahydrofuran-2-yl]methoxy-hydroxy-phosphoryl]oxy-hydroxy-phosphoryl] phosphate
   46    48     1     0     0
SMALL
USER_CHARGES

@<TRIPOS>ATOM
      1 PG          1.8884    1.3878   -3.2574 P.3       1 GTP         1.3594
      2 O1G         2.8882    2.3042   -3.9550 O.co2     1 GTP        -0.8909
      3 O2G         1.5846    0.0981   -4.0125 O.co2     1 GTP        -0.8909
      4 O3G         2.1509    1.1936   -1.7676 O.co2     1 GTP        -0.8909
      5 O3B         0.4716    2.2285   -3.3009 O.3       1 GTP        -0.7106
      6 PB          0.0849    3.6770   -2.6943 P.3       1 GTP         1.8242
      7 O1B         0.9004    4.8202   -3.2223 O.2       1 GTP        -0.9138
      8 O2B        -1.5043    3.7859   -2.9697 O.3       1 GTP        -0.7900
      9 O3A         0.1811    3.4417   -1.0992 O.3       1 GTP        -0.8086
     10 PA         -0.0712    4.4471    0.1412 P.3       1 GTP         1.7888
     11 O1A         0.8293    5.6482    0.1502 O.2       1 GTP        -0.8200
     12 O2A        -1.6507    4.7834    0.0451 O.3       1 GTP        -0.8185
     13 O5'         0.0170    3.5129    1.4592 O.3       1 GTP        -0.5679
     14 C5'        -0.8811    2.4285    1.6206 C.3       1 GTP         0.1794
     15 C4'        -0.1994    1.3333    2.4288 C.3       1 GTP         0.1313
     16 O4'        -1.1285    0.2356    2.5840 O.3       1 GTP        -0.3993
     17 C3'         1.0324    0.7610    1.7344 C.3       1 GTP         0.0846
     18 O3'         1.9175    0.2377    2.7247 O.3       1 GTP        -0.5819
     19 C2'         0.4468   -0.3802    0.9263 C.3       1 GTP         0.0567
     20 O2'         1.3993   -1.3703    0.5961 O.3       1 GTP        -0.5837
     21 C1'        -0.6159   -0.9100    1.8769 C.3       1 GTP         0.2547
     22 N9         -1.7127   -1.6108    1.2130 N.pl3     1 GTP        -0.2013
     23 C8         -2.8667   -1.0365    0.7385 C.ar      1 GTP         0.4384
     24 N7         -3.6757   -1.9196    0.1868 N.2       1 GTP        -0.6072
     25 C5         -3.0088   -3.1018    0.3164 C.ar      1 GTP         0.1855
     26 C6         -3.4148   -4.4130   -0.1079 C.ar      1 GTP         0.6502
     27 O6         -4.4753   -4.6480   -0.6732 O.2       1 GTP        -0.6193
     28 N1         -2.4377   -5.3653    0.2144 N.pl3     1 GTP        -0.5097
     29 C2         -1.2132   -5.0902    0.8680 C.ar      1 GTP         0.6454
     30 N2         -0.4066   -6.1772    1.0834 N.pl3     1 GTP        -0.8839
     31 N3         -0.8672   -3.8786    1.2457 N.2       1 GTP        -0.6390
     32 C4         -1.7966   -2.9451    0.9439 C.ar      1 GTP         0.0961
     33 HOB2       -1.9973    4.5522   -2.6067 H         1 GTP         0.4357
     34 HOA2       -2.0640    5.3260    0.7498 H         1 GTP         0.4835
     35 H5'        -1.7776    2.7841    2.1389 H         1 GTP         0.0448
     36 H5''       -1.1659    2.0533    0.6322 H         1 GTP         0.0448
     37 H4'         0.0402    1.7079    3.4342 H         1 GTP         0.1246
     38 H3'         1.5907    1.4859    1.1353 H         1 GTP         0.0764
     39 HO3'        2.6839   -0.1150    2.2479 H         1 GTP         0.4062
     40 H2'        -0.0017    0.0018    0.0005 H         1 GTP         0.0706
     41 HO2'        2.0953   -0.9375    0.0709 H         1 GTP         0.4064
     42 H1'        -0.1998   -1.6319    2.6178 H         1 GTP         0.1053
     43 H8         -3.0589    0.0244    0.8247 H         1 GTP         0.0995
     44 HN1        -2.6238   -6.3307   -0.0420 H         1 GTP         0.3262
     45 HN21        0.4646   -6.0341    1.5394 H         1 GTP         0.4043
     46 HN22       -0.7235   -7.0673    0.7753 H         1 GTP         0.4043
@<TRIPOS>BOND
     1    1    2 2
     2    1    3 1
     3    1    4 1
     4    1    5 1
     5    5    6 1
     6    6    7 2
     7    6    8 1
     8    6    9 1
     9    8   33 1
    10    9   10 1
    11   10   11 2
    12   10   12 1
    13   10   13 1
    14   12   34 1
    15   13   14 1
    16   14   15 1
    17   14   35 1
    18   14   36 1
    19   15   16 1
    20   15   17 1
    21   15   37 1
    22   16   21 1
    23   17   18 1
    24   17   19 1
    25   17   38 1
    26   18   39 1
    27   19   20 1
    28   19   21 1
    29   19   40 1
    30   20   41 1
    31   21   22 1
    32   21   42 1
    33   22   23 ar
    34   22   32 ar
    35   23   24 ar
    36   23   43 1
    37   24   25 ar
    38   25   26 ar
    39   25   32 ar
    40   26   27 2
    41   26   28 ar
    42   28   29 ar
    43   28   44 1
    44   29   30 1
    45   29   31 ar
    46   30   45 1
    47   30   46 1
    48   31   32 ar
@<TRIPOS>SUBSTRUCTURE
     1 GTP         1 GROUP 0 A     ****
@<TRIPOS>MOLECULE
[[[5-(2-amino-6-oxo-1~{H}-purin-9-yl)-3,4-dihydroxy-tetrahydrofuran-2-yl]methoxy-hydroxy-phosphoryl]oxy-hydroxy-phosphoryl] phosphate
   46    48     1     0     0
SMALL
USER_CHARGES

@<TRIPOS>ATOM
      1 PG          1.8884    1.3878   -3.2574 P.3       1 GTP         1.3594
      2 O1G         2.8882    2.3042   -3.9550 O.co2     1 GTP        -0.8909
      3 O2G         1.5846    0.0981   -4.0125 O.co2     1 GTP        -0.8909
      4 O3G         2.1509    1.1936   -1.7676 O.co2     1 GTP        -0.8909
      5 O3B         0.4716    2.2285   -3.3009 O.3       1 GTP        -0.7106
      6 PB          0.0849    3.6770   -2.6943 P.3       1 GTP         1.8242
      7 O1B         0.9004    4.8202   -3.2223 O.2       1 GTP        -0.9138
      8 O2B        -1.5043    3.7859   -2.9697 O.3       1 GTP        -0.7900
      9 O3A         0.1811    3.4417   -1.0992 O.3       1 GTP        -0.8086
     10 PA         -0.0712    4.4471    0.1412 P.3       1 GTP         1.7888
     11 O1A         0.8293    5.6482    0.1502 O.2       1 GTP        -0.8200
     12 O2A        -1.6507    4.7834    0.0451 O.3       1 GTP        -0.8185
     13 O5'         0.0170    3.5129    1.4592 O.3       1 GTP        -0.5679
     14 C5'        -0.8811    2.4285    1.6206 C.3       1 GTP         0.1794
     15 C4'        -0.1994    1.3333    2.4288 C.3       1 GTP         0.1313
     16 O4'        -1.1285    0.2356    2.5840 O.3       1 GTP        -0.3993
     17 C3'         1.0324    0.7610    1.7344 C.3       1 GTP         0.0846
     18 O3'         1.9175    0.2377    2.7247 O.3       1 GTP        -0.5819
     19 C2'         0.4468   -0.3802    0.9263 C.3       1 GTP         0.0567
     20 O2'         1.3993   -1.3703    0.5961 O.3       1 GTP        -0.5837
     21 C1'        -0.6159   -0.9100    1.8769 C.3       1 GTP         0.2547
     22 N9         -1.7127   -1.6108    1.2130 N.pl3     1 GTP        -0.2013
     23 C8         -1.7695   -2.9586    0.9546 C.ar      1 GTP         0.4384
     24 N7         -2.8846   -3.3047    0.3416 N.2       1 GTP        -0.6072
     25 C5         -3.5626   -2.1296    0.2052 C.ar      1 GTP         0.1855
     26 C6         -4.8477   -1.8989   -0.3942 C.ar      1 GTP         0.6502
     27 O6         -5.5373   -2.7819   -0.8881 O.2       1 GTP        -0.6193
     28 N1         -5.1895   -0.5407   -0.3318 N.pl3     1 GTP        -0.5097
     29 C2         -4.3899    0.4774    0.2398 C.ar      1 GTP         0.6454
     30 N2         -4.9233    1.7390    0.1898 N.pl3     1 GTP        -0.8839
     31 N3         -3.2159    0.2369    0.7822 N.2       1 GTP        -0.6390
     32 C4         -2.8678   -1.0679    0.7322 C.ar      1 GTP         0.0961
     33 HOB2       -1.9973    4.5522   -2.6067 H         1 GTP         0.4357
     34 HOA2       -2.0640    5.3260    0.7498 H         1 GTP         0.4835
     35 H5'        -1.7776    2.7841    2.1389 H         1 GTP         0.0448
     36 H5''       -1.1659    2.0533    0.6322 H         1 GTP         0.0448
     37 H4'         0.0402    1.7079    3.4342 H         1 GTP         0.1246
     38 H3'         1.5907    1.4859    1.1353 H         1 GTP         0.0764
     39 HO3'        2.6839   -0.1150    2.2479 H         1 GTP         0.4062
     40 H2'        -0.0017    0.0018    0.0005 H         1 GTP         0.0706
     41 HO2'        2.0953   -0.9375    0.0709 H         1 GTP         0.4064
     42 H1'        -0.1998   -1.6319    2.6178 H         1 GTP         0.1053
     43 H8         -0.9713   -3.6323    1.2352 H         1 GTP         0.0995
     44 HN1        -6.0831   -0.2651   -0.7290 H         1 GTP         0.3262
     45 HN21       -4.3984    2.4878    0.5788 H         1 GTP         0.4043
     46 HN22       -5.8145    1.8572   -0.2335 H         1 GTP         0.4043
@<TRIPOS>BOND
     1    1    2 2
     2    1    3 1
     3    1    4 1
     4    1    5 1
     5    5    6 1
     6    6    7 2
     7    6    8 1
     8    6    9 1
     9    8   33 1
    10    9   10 1
    11   10   11 2
    12   10   12 1
    13   10   13 1
    14   12   34 1
    15   13   14 1
    16   14   15 1
    17   14   35 1
    18   14   36 1
    19   15   16 1
    20   15   17 1
    21   15   37 1
    22   16   21 1
    23   17   18 1
    24   17   19 1
    25   17   38 1
    26   18   39 1
    27   19   20 1
    28   19   21 1
    29   19   40 1
    30   20   41 1
    31   21   22 1
    32   21   42 1
    33   22   23 ar
    34   22   32 ar
    35   23   24 ar
    36   23   43 1
    37   24   25 ar
    38   25   26 ar
    39   25   32 ar
    40   26   27 2
    41   26   28 ar
    42   28   29 ar
    43   28   44 1
    44   29   30 1
    45   29   31 ar
    46   30   45 1
    47   30   46 1
    48   31   32 ar
@<TRIPOS>SUBSTRUCTURE
     1 GTP         1 GROUP 0 A     ****
@<TRIPOS>MOLECULE
[[[5-(2-amino-6-oxo-1~{H}-purin-9-yl)-3,4-dihydroxy-tetrahydrofuran-2-yl]methoxy-hydroxy-phosphoryl]oxy-hydroxy-phosphoryl] phosphate
   46    48     1     0     0
SMALL
USER_CHARGES

@<TRIPOS>ATOM
      1 PG         -0.1043    8.0074    2.5260 P.3       1 GTP         1.3594
      2 O1G        -1.1066    8.9838    3.1327 O.co2     1 GTP        -0.8909
      3 O2G         1.2036    8.6486    2.0742 O.co2     1 GTP        -0.8909
      4 O3G         0.0729    6.7177    3.3206 O.co2     1 GTP        -0.8909
      5 O3B        -0.8198    7.5121    1.1265 O.3       1 GTP        -0.7106
      6 PB         -2.2268    6.7570    0.8703 P.3       1 GTP         1.8242
      7 O1B        -3.4384    7.5013    1.3486 O.2       1 GTP        -0.9138
      8 O2B        -2.1994    6.4421   -0.7150 O.3       1 GTP        -0.7900
      9 O3A        -1.9938    5.3110    1.5513 O.3       1 GTP        -0.8086
     10 PA         -2.9684    4.0281    1.6828 P.3       1 GTP         1.7888
     11 O1A        -4.2427    4.2995    2.4285 O.2       1 GTP        -0.8200
     12 O2A        -3.1675    3.5413    0.1529 O.3       1 GTP        -0.8185
     13 O5'        -2.0396    2.8622    2.3120 O.3       1 GTP        -0.5679
     14 C5'        -0.8811    2.4285    1.6206 C.3       1 GTP         0.1794
     15 C4'        -0.1994    1.3333    2.4288 C.3       1 GTP         0.1313
     16 O4'        -1.1285    0.2356    2.5840 O.3       1 GTP        -0.3993
     17 C3'         1.0324    0.7610    1.7344 C.3       1 GTP         0.0846
     18 O3'         1.9175    0.2377    2.7247 O.3       1 GTP        -0.5819
     19 C2'         0.4468   -0.3802    0.9263 C.3       1 GTP         0.0567
     20 O2'         1.3993   -1.3703    0.5961 O.3       1 GTP        -0.5837
     21 C1'        -0.6159   -0.9100    1.8769 C.3       1 GTP         0.2547
     22 N9         -1.7127   -1.6108    1.2130 N.pl3     1 GTP        -0.2013
     23 C8         -2.8667   -1.0365    0.7385 C.ar      1 GTP         0.4384
     24 N7         -3.6757   -1.9196    0.1868 N.2       1 GTP        -0.6072
     25 C5         -3.0088   -3.1018    0.3164 C.ar      1 GTP         0.1855
     26 C6         -3.4148   -4.4130   -0.1079 C.ar      1 GTP         0.6502
     27 O6         -4.4753   -4.6480   -0.6732 O.2       1 GTP        -0.6193
     28 N1         -2.4377   -5.3653    0.2144 N.pl3     1 GTP        -0.5097
     29 C2         -1.2132   -5.0902    0.8680 C.ar      1 GTP         0.6454
     30 N2         -0.4066   -6.1772    1.0834 N.pl3     1 GTP        -0.8839
     31 N3         -0.8672   -3.8786    1.2457 N.2       1 GTP        -0.6390
     32 C4         -1.7966   -2.9451    0.9439 C.ar      1 GTP         0.0961
     33 HOB2       -2.9187    5.9002   -1.1037 H         1 GTP         0.4357
     34 HOA2       -3.6694    2.7168   -0.0211 H         1 GTP         0.4835
     35 H5'        -1.1760    2.0498    0.6365 H         1 GTP         0.0448
     36 H5''       -0.2072    3.2811    1.4873 H         1 GTP         0.0448
     37 H4'         0.0402    1.7079    3.4342 H         1 GTP         0.1246
     38 H3'         1.5907    1.4859    1.1353 H         1 GTP         0.0764
     39 HO3'        2.6839   -0.1150    2.2479 H         1 GTP         0.4062
     40 H2'        -0.0017    0.0018    0.0005 H         1 GTP         0.0706
     41 HO2'        2.0953   -0.9375    0.0709 H         1 GTP         0.4064
     42 H1'        -0.1998   -1.6319    2.6178 H         1 GTP         0.1053
     43 H8         -3.0589    0.0244    0.8247 H         1 GTP         0.0995
     44 HN1        -2.6238   -6.3307   -0.0420 H         1 GTP         0.3262
     45 HN21        0.4646   -6.0341    1.5394 H         1 GTP         0.4043
     46 HN22       -0.7235   -7.0673    0.7753 H         1 GTP         0.4043
@<TRIPOS>BOND
     1    1    2 2
     2    1    3 1
     3    1    4 1
     4    1    5 1
     5    5    6 1
     6    6    7 2
     7    6    8 1
     8    6    9 1
     9    8   33 1
    10    9   10 1
    11   10   11 2
    12   10   12 1
    13   10   13 1
    14   12   34 1
    15   13   14 1
    16   14   15 1
    17   14   35 1
    18   14   36 1
    19   15   16 1
    20   15   17 1
    21   15   37 1
    22   16   21 1
    23   17   18 1
    24   17   19 1
    25   17   38 1
    26   18   39 1
    27   19   20 1
    28   19   21 1
    29   19   40 1
    30   20   41 1
    31   21   22 1
    32   21   42 1
    33   22   23 ar
    34   22   32 ar
    35   23   24 ar
    36   23   43 1
    37   24   25 ar
    38   25   26 ar
    39   25   32 ar
    40   26   27 2
    41   26   28 ar
    42   28   29 ar
    43   28   44 1
    44   29   30 1
    45   29   31 ar
    46   30   45 1
    47   30   46 1
    48   31   32 ar
@<TRIPOS>SUBSTRUCTURE
     1 GTP         1 GROUP 0 A     ****
@<TRIPOS>MOLECULE
[[[5-(2-amino-6-oxo-1~{H}-purin-9-yl)-3,4-dihydroxy-tetrahydrofuran-2-yl]methoxy-hydroxy-phosphoryl]oxy-hydroxy-phosphoryl] phosphate
   46    48     1     0     0
SMALL
USER_CHARGES

@<TRIPOS>ATOM
      1 PG         -2.5797    7.7218    4.8882 P.3       1 GTP         1.3594
      2 O1G        -1.8843    6.8514    5.9298 O.co2     1 GTP        -0.8909
      3 O2G        -4.0664    7.9438    5.1456 O.co2     1 GTP        -0.8909
      4 O3G        -1.8132    8.9870    4.5170 O.co2     1 GTP        -0.8909
      5 O3B        -2.5355    6.8170    3.5115 O.3       1 GTP        -0.7106
      6 PB         -1.2827    6.2250    2.6774 P.3       1 GTP         1.8242
      7 O1B        -0.3289    7.2579    2.1537 O.2       1 GTP        -0.9138
      8 O2B        -0.6338    5.1466    3.6916 O.3       1 GTP        -0.7900
      9 O3A        -1.9938    5.3110    1.5513 O.3       1 GTP        -0.8086
     10 PA         -2.9684    4.0281    1.6828 P.3       1 GTP         1.7888
     11 O1A        -4.2427    4.2995    2.4285 O.2       1 GTP        -0.8200
     12 O2A        -3.1675    3.5413    0.1529 O.3       1 GTP        -0.8185
     13 O5'        -2.0396    2.8622    2.3120 O.3       1 GTP        -0.5679
     14 C5'        -0.8811    2.4285    1.6206 C.3       1 GTP         0.1794
     15 C4'        -0.1994    1.3333    2.4288 C.3       1 GTP         0.1313
     16 O4'        -1.1285    0.2356    2.5840 O.3       1 GTP        -0.3993
     17 C3'         1.0324    0.7610    1.7344 C.3       1 GTP         0.0846
     18 O3'         1.9175    0.2377    2.7247 O.3       1 GTP        -0.5819
     19 C2'         0.4468   -0.3802    0.9263 C.3       1 GTP         0.0567
     20 O2'         1.3993   -1.3703    0.5961 O.3       1 GTP        -0.5837
     21 C1'        -0.6159   -0.9100    1.8769 C.3       1 GTP         0.2547
     22 N9         -1.7127   -1.6108    1.2130 N.pl3     1 GTP        -0.2013
     23 C8         -2.8667   -1.0365    0.7385 C.ar      1 GTP         0.4384
     24 N7         -3.6757   -1.9196    0.1868 N.2       1 GTP        -0.6072
     25 C5         -3.0088   -3.1018    0.3164 C.ar      1 GTP         0.1855
     26 C6         -3.4148   -4.4130   -0.1079 C.ar      1 GTP         0.6502
     27 O6         -4.4753   -4.6480   -0.6732 O.2       1 GTP        -0.6193
     28 N1         -2.4377   -5.3653    0.2144 N.pl3     1 GTP        -0.5097
     29 C2         -1.2132   -5.0902    0.8680 C.ar      1 GTP         0.6454
     30 N2         -0.4066   -6.1772    1.0834 N.pl3     1 GTP        -0.8839
     31 N3         -0.8672   -3.8786    1.2457 N.2       1 GTP        -0.6390
     32 C4         -1.7966   -2.9451    0.9439 C.ar      1 GTP         0.0961
     33 HOB2       -0.2250    5.4647    4.5246 H         1 GTP         0.4357
     34 HOA2       -3.6694    2.7168   -0.0211 H         1 GTP         0.4835
     35 H5'        -1.1760    2.0498    0.6365 H         1 GTP         0.0448
     36 H5''       -0.2072    3.2811    1.4873 H         1 GTP         0.0448
     37 H4'         0.0402    1.7079    3.4342 H         1 GTP         0.1246
     38 H3'         1.5907    1.4859    1.1353 H         1 GTP         0.0764
     39 HO3'        2.6839   -0.1150    2.2479 H         1 GTP         0.4062
     40 H2'        -0.0017    0.0018    0.0005 H         1 GTP         0.0706
     41 HO2'        2.0953   -0.9375    0.0709 H         1 GTP         0.4064
     42 H1'        -0.1998   -1.6319    2.6178 H         1 GTP         0.1053
     43 H8         -3.0589    0.0244    0.8247 H         1 GTP         0.0995
     44 HN1        -2.6238   -6.3307   -0.0420 H         1 GTP         0.3262
     45 HN21        0.4646   -6.0341    1.5394 H         1 GTP         0.4043
     46 HN22       -0.7235   -7.0673    0.7753 H         1 GTP         0.4043
@<TRIPOS>BOND
     1    1    2 2
     2    1    3 1
     3    1    4 1
     4    1    5 1
     5    5    6 1
     6    6    7 2
     7    6    8 1
     8    6    9 1
     9    8   33 1
    10    9   10 1
    11   10   11 2
    12   10   12 1
    13   10   13 1
    14   12   34 1
    15   13   14 1
    16   14   15 1
    17   14   35 1
    18   14   36 1
    19   15   16 1
    20   15   17 1
    21   15   37 1
    22   16   21 1
    23   17   18 1
    24   17   19 1
    25   17   38 1
    26   18   39 1
    27   19   20 1
    28   19   21 1
    29   19   40 1
    30   20   41 1
    31   21   22 1
    32   21   42 1
    33   22   23 ar
    34   22   32 ar
    35   23   24 ar
    36   23   43 1
    37   24   25 ar
    38   25   26 ar
    39   25   32 ar
    40   26   27 2
    41   26   28 ar
    42   28   29 ar
    43   28   44 1
    44   29   30 1
    45   29   31 ar
    46   30   45 1
    47   30   46 1
    48   31   32 ar
@<TRIPOS>SUBSTRUCTURE
     1 GTP         1 GROUP 0 A     ****
@<TRIPOS>MOLECULE
[[[5-(2-amino-6-oxo-1~{H}-purin-9-yl)-3,4-dihydroxy-tetrahydrofuran-2-yl]methoxy-hydroxy-phosphoryl]oxy-hydroxy-phosphoryl] phosphate
   46    48     1     0     0
SMALL
USER_CHARGES

@<TRIPOS>ATOM
      1 PG         -0.1986    4.1445    6.5171 P.3       1 GTP         1.3594
      2 O1G         1.2052    4.7403    6.5373 O.co2     1 GTP        -0.8909
      3 O2G        -0.2398    2.6271    6.6640 O.co2     1 GTP        -0.8909
      4 O3G        -1.2058    4.8852    7.3907 O.co2     1 GTP        -0.8909
      5 O3B        -0.7320    4.4197    4.9823 O.3       1 GTP        -0.7106
      6 PB         -0.9383    5.8020    4.1685 P.3       1 GTP         1.8242
      7 O1B        -1.9106    6.7607    4.7899 O.2       1 GTP        -0.9138
      8 O2B         0.5672    6.3665    4.0019 O.3       1 GTP        -0.7900
      9 O3A        -1.3235    5.2967    2.6835 O.3       1 GTP        -0.8086
     10 PA         -2.5519    4.3888    2.1545 P.3       1 GTP         1.7888
     11 O1A        -3.8664    4.6910    2.8135 O.2       1 GTP        -0.8200
     12 O2A        -2.5288    4.6111    0.5522 O.3       1 GTP        -0.8185
     13 O5'        -2.0396    2.8622    2.3120 O.3       1 GTP        -0.5679
     14 C5'        -0.8811    2.4285    1.6206 C.3       1 GTP         0.1794
     15 C4'        -0.1994    1.3333    2.4288 C.3       1 GTP         0.1313
     16 O4'        -1.1285    0.2356    2.5840 O.3       1 GTP        -0.3993
     17 C3'         1.0324    0.7610    1.7344 C.3       1 GTP         0.0846
     18 O3'         1.9175    0.2377    2.7247 O.3       1 GTP        -0.5819
     19 C2'         0.4468   -0.3802    0.9263 C.3       1 GTP         0.0567
     20 O2'         1.3993   -1.3703    0.5961 O.3       1 GTP        -0.5837
     21 C1'        -0.6159   -0.9100    1.8769 C.3       1 GTP         0.2547
     22 N9         -1.7127   -1.6108    1.2130 N.pl3     1 GTP        -0.2013
     23 C8         -1.7695   -2.9586    0.9546 C.ar      1 GTP         0.4384
     24 N7         -2.8846   -3.3047    0.3416 N.2       1 GTP        -0.6072
     25 C5         -3.5626   -2.1296    0.2052 C.ar      1 GTP         0.1855
     26 C6         -4.8477   -1.8989   -0.3942 C.ar      1 GTP         0.6502
     27 O6         -5.5373   -2.7819   -0.8881 O.2       1 GTP        -0.6193
     28 N1         -5.1895   -0.5407   -0.3318 N.pl3     1 GTP        -0.5097
     29 C2         -4.3899    0.4774    0.2398 C.ar      1 GTP         0.6454
     30 N2         -4.9233    1.7390    0.1898 N.pl3     1 GTP        -0.8839
     31 N3         -3.2159    0.2369    0.7822 N.2       1 GTP        -0.6390
     32 C4         -2.8678   -1.0679    0.7322 C.ar      1 GTP         0.0961
     33 HOB2        1.0616    6.6433    4.8027 H         1 GTP         0.4357
     34 HOA2       -3.1459    4.0937   -0.0076 H         1 GTP         0.4835
     35 H5'        -1.1760    2.0498    0.6365 H         1 GTP         0.0448
     36 H5''       -0.2072    3.2811    1.4873 H         1 GTP         0.0448
     37 H4'         0.0402    1.7079    3.4342 H         1 GTP         0.1246
     38 H3'         1.5907    1.4859    1.1353 H         1 GTP         0.0764
     39 HO3'        2.6839   -0.1150    2.2479 H         1 GTP         0.4062
     40 H2'        -0.0017    0.0018    0.0005 H         1 GTP         0.0706
     41 HO2'        2.0953   -0.9375    0.0709 H         1 GTP         0.4064
     42 H1'        -0.1998   -1.6319    2.6178 H         1 GTP         0.1053
     43 H8         -0.9713   -3.6323    1.2352 H         1 GTP         0.0995
     44 HN1        -6.0831   -0.2651   -0.7290 H         1 GTP         0.3262
     45 HN21       -4.3984    2.4878    0.5788 H         1 GTP         0.4043
     46 HN22       -5.8145    1.8572   -0.2335 H         1 GTP         0.4043
@<TRIPOS>BOND
     1    1    2 2
     2    1    3 1
     3    1    4 1
     4    1    5 1
     5    5    6 1
     6    6    7 2
     7    6    8 1
     8    6    9 1
     9    8   33 1
    10    9   10 1
    11   10   11 2
    12   10   12 1
    13   10   13 1
    14   12   34 1
    15   13   14 1
    16   14   15 1
    17   14   35 1
    18   14   36 1
    19   15   16 1
    20   15   17 1
    21   15   37 1
    22   16   21 1
    23   17   18 1
    24   17   19 1
    25   17   38 1
    26   18   39 1
    27   19   20 1
    28   19   21 1
    29   19   40 1
    30   20   41 1
    31   21   22 1
    32   21   42 1
    33   22   23 ar
    34   22   32 ar
    35   23   24 ar
    36   23   43 1
    37   24   25 ar
    38   25   26 ar
    39   25   32 ar
    40   26   27 2
    41   26   28 ar
    42   28   29 ar
    43   28   44 1
    44   29   30 1
    45   29   31 ar
    46   30   45 1
    47   30   46 1
    48   31   32 ar
@<TRIPOS>SUBSTRUCTURE
     1 GTP         1 GROUP 0 A     ****
@<TRIPOS>MOLECULE
[[[5-(2-amino-6-oxo-1~{H}-purin-9-yl)-3,4-dihydroxy-tetrahydrofuran-2-yl]methoxy-hydroxy-phosphoryl]oxy-hydroxy-phosphoryl] phosphate
   46    48     1     0     0
SMALL
USER_CHARGES

@<TRIPOS>ATOM
      1 PG          2.4145    2.1749   -2.4366 P.3       1 GTP         1.3594
      2 O1G         1.6673    1.3858   -3.5067 O.co2     1 GTP        -0.8909
      3 O2G         3.0810    1.3125   -1.3699 O.co2     1 GTP        -0.8909
      4 O3G         3.3009    3.2886   -2.9845 O.co2     1 GTP        -0.8909
      5 O3B         1.2271    2.9801   -1.6258 O.3       1 GTP        -0.7106
      6 PB          0.1391    4.0583   -2.1449 P.3       1 GTP         1.8242
      7 O1B         0.7218    5.3054   -2.7414 O.2       1 GTP        -0.9138
      8 O2B        -0.7965    3.1958   -3.1418 O.3       1 GTP        -0.7900
      9 O3A        -0.7948    4.2874   -0.8470 O.3       1 GTP        -0.8086
     10 PA         -0.4418    4.8275    0.6351 P.3       1 GTP         1.7888
     11 O1A         0.5363    5.9662    0.6563 O.2       1 GTP        -0.8200
     12 O2A        -1.8895    5.1640    1.2739 O.3       1 GTP        -0.8185
     13 O5'         0.0170    3.5129    1.4592 O.3       1 GTP        -0.5679
     14 C5'        -0.8811    2.4285    1.6206 C.3       1 GTP         0.1794
     15 C4'        -0.1994    1.3333    2.4288 C.3       1 GTP         0.1313
     16 O4'        -1.1285    0.2356    2.5840 O.3       1 GTP        -0.3993
     17 C3'         1.0324    0.7610    1.7344 C.3       1 GTP         0.0846
     18 O3'         1.9175    0.2377    2.7247 O.3       1 GTP        -0.5819
     19 C2'         0.4468   -0.3802    0.9263 C.3       1 GTP         0.0567
     20 O2'         1.3993   -1.3703    0.5961 O.3       1 GTP        -0.5837
     21 C1'        -0.6159   -0.9100    1.8769 C.3       1 GTP         0.2547
     22 N9         -1.7127   -1.6108    1.2130 N.pl3     1 GTP        -0.2013
     23 C8         -2.5489   -1.0812    0.2607 C.ar      1 GTP         0.4384
     24 N7         -3.4468   -1.9516   -0.1576 N.2       1 GTP        -0.6072
     25 C5         -3.1696   -3.0787    0.5579 C.ar      1 GTP         0.1855
     26 C6         -3.8307   -4.3536    0.5166 C.ar      1 GTP         0.6502
     27 O6         -4.7841   -4.6033   -0.2101 O.2       1 GTP        -0.6193
     28 N1         -3.2356   -5.2522    1.4132 N.pl3     1 GTP        -0.5097
     29 C2         -2.1338   -4.9602    2.2517 C.ar      1 GTP         0.6454
     30 N2         -1.7156   -5.9923    3.0507 N.pl3     1 GTP        -0.8839
     31 N3         -1.5477   -3.7827    2.2686 N.2       1 GTP        -0.6390
     32 C4         -2.1070   -2.9013    1.4104 C.ar      1 GTP         0.0961
     33 HOB2       -0.4083    2.8441   -3.9711 H         1 GTP         0.4357
     34 HOA2       -1.9407    5.4416    2.2132 H         1 GTP         0.4835
     35 H5'        -1.7776    2.7841    2.1389 H         1 GTP         0.0448
     36 H5''       -1.1659    2.0533    0.6322 H         1 GTP         0.0448
     37 H4'         0.0402    1.7079    3.4342 H         1 GTP         0.1246
     38 H3'         1.5907    1.4859    1.1353 H         1 GTP         0.0764
     39 HO3'        2.6839   -0.1150    2.2479 H         1 GTP         0.4062
     40 H2'        -0.0017    0.0018    0.0005 H         1 GTP         0.0706
     41 HO2'        2.0953   -0.9375    0.0709 H         1 GTP         0.4064
     42 H1'        -0.1998   -1.6319    2.6178 H         1 GTP         0.1053
     43 H8         -2.4545   -0.0604   -0.0844 H         1 GTP         0.0995
     44 HN1        -3.6270   -6.1884    1.4651 H         1 GTP         0.3262
     45 HN21       -0.9445   -5.8354    3.6574 H         1 GTP         0.4043
     46 HN22       -2.1993   -6.8585    2.9930 H         1 GTP         0.4043
@<TRIPOS>BOND
     1    1    2 2
     2    1    3 1
     3    1    4 1
     4    1    5 1
     5    5    6 1
     6    6    7 2
     7    6    8 1
     8    6    9 1
     9    8   33 1
    10    9   10 1
    11   10   11 2
    12   10   12 1
    13   10   13 1
    14   12   34 1
    15   13   14 1
    16   14   15 1
    17   14   35 1
    18   14   36 1
    19   15   16 1
    20   15   17 1
    21   15   37 1
    22   16   21 1
    23   17   18 1
    24   17   19 1
    25   17   38 1
    26   18   39 1
    27   19   20 1
    28   19   21 1
    29   19   40 1
    30   20   41 1
    31   21   22 1
    32   21   42 1
    33   22   23 ar
    34   22   32 ar
    35   23   24 ar
    36   23   43 1
    37   24   25 ar
    38   25   26 ar
    39   25   32 ar
    40   26   27 2
    41   26   28 ar
    42   28   29 ar
    43   28   44 1
    44   29   30 1
    45   29   31 ar
    46   30   45 1
    47   30   46 1
    48   31   32 ar
@<TRIPOS>SUBSTRUCTURE
     1 GTP         1 GROUP 0 A     ****
@<TRIPOS>MOLECULE
[[[5-(2-amino-6-oxo-1~{H}-purin-9-yl)-3,4-dihydroxy-tetrahydrofuran-2-yl]methoxy-hydroxy-phosphoryl]oxy-hydroxy-phosphoryl] phosphate
   46    48     1     0     0
SMALL
USER_CHARGES

@<TRIPOS>ATOM
      1 PG          2.2039    4.2591    5.1298 P.3       1 GTP         1.3594
      2 O1G         2.2027    2.8410    5.6912 O.co2     1 GTP        -0.8909
      3 O2G         3.2560    5.1771    5.7431 O.co2     1 GTP        -0.8909
      4 O3G         2.1216    4.3302    3.6085 O.co2     1 GTP        -0.8909
      5 O3B         0.7680    4.8932    5.6315 O.3       1 GTP        -0.7106
      6 PB         -0.7519    4.4177    5.3491 P.3       1 GTP         1.8242
      7 O1B        -1.0781    3.0326    5.8243 O.2       1 GTP        -0.9138
      8 O2B        -1.6411    5.5947    6.0101 O.3       1 GTP        -0.7900
      9 O3A        -0.9197    4.6580    3.7607 O.3       1 GTP        -0.8086
     10 PA         -2.1753    4.4068    2.7741 P.3       1 GTP         1.7888
     11 O1A        -3.5039    4.7809    3.3645 O.2       1 GTP        -0.8200
     12 O2A        -1.7757    5.2186    1.4330 O.3       1 GTP        -0.8185
     13 O5'        -2.0396    2.8622    2.3120 O.3       1 GTP        -0.5679
     14 C5'        -0.8811    2.4285    1.6206 C.3       1 GTP         0.1794
     15 C4'        -0.1994    1.3333    2.4288 C.3       1 GTP         0.1313
     16 O4'        -1.1285    0.2356    2.5840 O.3       1 GTP        -0.3993
     17 C3'         1.0324    0.7610    1.7344 C.3       1 GTP         0.0846
     18 O3'         1.9175    0.2377    2.7247 O.3       1 GTP        -0.5819
     19 C2'         0.4468   -0.3802    0.9263 C.3       1 GTP         0.0567
     20 O2'         1.3993   -1.3703    0.5961 O.3       1 GTP        -0.5837
     21 C1'        -0.6159   -0.9100    1.8769 C.3       1 GTP         0.2547
     22 N9         -1.7127   -1.6108    1.2130 N.pl3     1 GTP        -0.2013
     23 C8         -2.8667   -1.0365    0.7385 C.ar      1 GTP         0.4384
     24 N7         -3.6757   -1.9196    0.1868 N.2       1 GTP        -0.6072
     25 C5         -3.0088   -3.1018    0.3164 C.ar      1 GTP         0.1855
     26 C6         -3.4148   -4.4130   -0.1079 C.ar      1 GTP         0.6502
     27 O6         -4.4753   -4.6480   -0.6732 O.2       1 GTP        -0.6193
     28 N1         -2.4377   -5.3653    0.2144 N.pl3     1 GTP        -0.5097
     29 C2         -1.2132   -5.0902    0.8680 C.ar      1 GTP         0.6454
     30 N2         -0.4066   -6.1772    1.0834 N.pl3     1 GTP        -0.8839
     31 N3         -0.8672   -3.8786    1.2457 N.2       1 GTP        -0.6390
     32 C4         -1.7966   -2.9451    0.9439 C.ar      1 GTP         0.0961
     33 HOB2       -2.6145    5.5788    5.8894 H         1 GTP         0.4357
     34 HOA2       -2.3587    5.1528    0.6470 H         1 GTP         0.4835
     35 H5'        -1.1760    2.0498    0.6365 H         1 GTP         0.0448
     36 H5''       -0.2072    3.2811    1.4873 H         1 GTP         0.0448
     37 H4'         0.0402    1.7079    3.4342 H         1 GTP         0.1246
     38 H3'         1.5907    1.4859    1.1353 H         1 GTP         0.0764
     39 HO3'        2.6839   -0.1150    2.2479 H         1 GTP         0.4062
     40 H2'        -0.0017    0.0018    0.0005 H         1 GTP         0.0706
     41 HO2'        2.0953   -0.9375    0.0709 H         1 GTP         0.4064
     42 H1'        -0.1998   -1.6319    2.6178 H         1 GTP         0.1053
     43 H8         -3.0589    0.0244    0.8247 H         1 GTP         0.0995
     44 HN1        -2.6238   -6.3307   -0.0420 H         1 GTP         0.3262
     45 HN21        0.4646   -6.0341    1.5394 H         1 GTP         0.4043
     46 HN22       -0.7235   -7.0673    0.7753 H         1 GTP         0.4043
@<TRIPOS>BOND
     1    1    2 2
     2    1    3 1
     3    1    4 1
     4    1    5 1
     5    5    6 1
     6    6    7 2
     7    6    8 1
     8    6    9 1
     9    8   33 1
    10    9   10 1
    11   10   11 2
    12   10   12 1
    13   10   13 1
    14   12   34 1
    15   13   14 1
    16   14   15 1
    17   14   35 1
    18   14   36 1
    19   15   16 1
    20   15   17 1
    21   15   37 1
    22   16   21 1
    23   17   18 1
    24   17   19 1
    25   17   38 1
    26   18   39 1
    27   19   20 1
    28   19   21 1
    29   19   40 1
    30   20   41 1
    31   21   22 1
    32   21   42 1
    33   22   23 ar
    34   22   32 ar
    35   23   24 ar
    36   23   43 1
    37   24   25 ar
    38   25   26 ar
    39   25   32 ar
    40   26   27 2
    41   26   28 ar
    42   28   29 ar
    43   28   44 1
    44   29   30 1
    45   29   31 ar
    46   30   45 1
    47   30   46 1
    48   31   32 ar
@<TRIPOS>SUBSTRUCTURE
     1 GTP         1 GROUP 0 A     ****
@<TRIPOS>MOLECULE
[[[5-(2-amino-6-oxo-1~{H}-purin-9-yl)-3,4-dihydroxy-tetrahydrofuran-2-yl]methoxy-hydroxy-phosphoryl]oxy-hydroxy-phosphoryl] phosphate
   46    48     1     0     0
SMALL
USER_CHARGES

@<TRIPOS>ATOM
      1 PG          0.8482    6.7625    4.9029 P.3       1 GTP         1.3594
      2 O1G        -0.0293    7.6626    5.7665 O.co2     1 GTP        -0.8909
      3 O2G         2.3262    7.1386    4.9023 O.co2     1 GTP        -0.8909
      4 O3G         0.5821    5.2714    5.0811 O.co2     1 GTP        -0.8909
      5 O3B         0.3493    7.0698    3.3627 O.3       1 GTP        -0.7106
      6 PB         -1.1013    6.8965    2.6687 P.3       1 GTP         1.8242
      7 O1B        -2.2011    7.7006    3.2967 O.2       1 GTP        -0.9138
      8 O2B        -0.8140    7.2284    1.1130 O.3       1 GTP        -0.7900
      9 O3A        -1.3235    5.2967    2.6835 O.3       1 GTP        -0.8086
     10 PA         -2.5519    4.3888    2.1545 P.3       1 GTP         1.7888
     11 O1A        -3.8664    4.6910    2.8135 O.2       1 GTP        -0.8200
     12 O2A        -2.5288    4.6111    0.5522 O.3       1 GTP        -0.8185
     13 O5'        -2.0396    2.8622    2.3120 O.3       1 GTP        -0.5679
     14 C5'        -0.8811    2.4285    1.6206 C.3       1 GTP         0.1794
     15 C4'        -0.1994    1.3333    2.4288 C.3       1 GTP         0.1313
     16 O4'        -1.1285    0.2356    2.5840 O.3       1 GTP        -0.3993
     17 C3'         1.0324    0.7610    1.7344 C.3       1 GTP         0.0846
     18 O3'         1.9175    0.2377    2.7247 O.3       1 GTP        -0.5819
     19 C2'         0.4468   -0.3802    0.9263 C.3       1 GTP         0.0567
     20 O2'         1.3993   -1.3703    0.5961 O.3       1 GTP        -0.5837
     21 C1'        -0.6159   -0.9100    1.8769 C.3       1 GTP         0.2547
     22 N9         -1.7127   -1.6108    1.2130 N.pl3     1 GTP        -0.2013
     23 C8         -1.7695   -2.9586    0.9546 C.ar      1 GTP         0.4384
     24 N7         -2.8846   -3.3047    0.3416 N.2       1 GTP        -0.6072
     25 C5         -3.5626   -2.1296    0.2052 C.ar      1 GTP         0.1855
     26 C6         -4.8477   -1.8989   -0.3942 C.ar      1 GTP         0.6502
     27 O6         -5.5373   -2.7819   -0.8881 O.2       1 GTP        -0.6193
     28 N1         -5.1895   -0.5407   -0.3318 N.pl3     1 GTP        -0.5097
     29 C2         -4.3899    0.4774    0.2398 C.ar      1 GTP         0.6454
     30 N2         -4.9233    1.7390    0.1898 N.pl3     1 GTP        -0.8839
     31 N3         -3.2159    0.2369    0.7822 N.2       1 GTP        -0.6390
     32 C4         -2.8678   -1.0679    0.7322 C.ar      1 GTP         0.0961
     33 HOB2       -1.5352    7.1030    0.4600 H         1 GTP         0.4357
     34 HOA2       -3.1459    4.0937   -0.0076 H         1 GTP         0.4835
     35 H5'        -1.1760    2.0498    0.6365 H         1 GTP         0.0448
     36 H5''       -0.2072    3.2811    1.4873 H         1 GTP         0.0448
     37 H4'         0.0402    1.7079    3.4342 H         1 GTP         0.1246
     38 H3'         1.5907    1.4859    1.1353 H         1 GTP         0.0764
     39 HO3'        2.6839   -0.1150    2.2479 H         1 GTP         0.4062
     40 H2'        -0.0017    0.0018    0.0005 H         1 GTP         0.0706
     41 HO2'        2.0953   -0.9375    0.0709 H         1 GTP         0.4064
     42 H1'        -0.1998   -1.6319    2.6178 H         1 GTP         0.1053
     43 H8         -0.9713   -3.6323    1.2352 H         1 GTP         0.0995
     44 HN1        -6.0831   -0.2651   -0.7290 H         1 GTP         0.3262
     45 HN21       -4.3984    2.4878    0.5788 H         1 GTP         0.4043
     46 HN22       -5.8145    1.8572   -0.2335 H         1 GTP         0.4043
@<TRIPOS>BOND
     1    1    2 2
     2    1    3 1
     3    1    4 1
     4    1    5 1
     5    5    6 1
     6    6    7 2
     7    6    8 1
     8    6    9 1
     9    8   33 1
    10    9   10 1
    11   10   11 2
    12   10   12 1
    13   10   13 1
    14   12   34 1
    15   13   14 1
    16   14   15 1
    17   14   35 1
    18   14   36 1
    19   15   16 1
    20   15   17 1
    21   15   37 1
    22   16   21 1
    23   17   18 1
    24   17   19 1
    25   17   38 1
    26   18   39 1
    27   19   20 1
    28   19   21 1
    29   19   40 1
    30   20   41 1
    31   21   22 1
    32   21   42 1
    33   22   23 ar
    34   22   32 ar
    35   23   24 ar
    36   23   43 1
    37   24   25 ar
    38   25   26 ar
    39   25   32 ar
    40   26   27 2
    41   26   28 ar
    42   28   29 ar
    43   28   44 1
    44   29   30 1
    45   29   31 ar
    46   30   45 1
    47   30   46 1
    48   31   32 ar
@<TRIPOS>SUBSTRUCTURE
     1 GTP         1 GROUP 0 A     ****
@<TRIPOS>MOLECULE
[[[5-(2-amino-6-oxo-1~{H}-purin-9-yl)-3,4-dihydroxy-tetrahydrofuran-2-yl]methoxy-hydroxy-phosphoryl]oxy-hydroxy-phosphoryl] phosphate
   46    48     1     0     0
SMALL
USER_CHARGES

@<TRIPOS>ATOM
      1 PG          1.5046    7.2878    4.9914 P.3       1 GTP         1.3594
      2 O1G         0.5585    8.0593    5.9056 O.co2     1 GTP        -0.8909
      3 O2G         2.3956    8.1682    4.1215 O.co2     1 GTP        -0.8909
      4 O3G         2.2375    6.1384    5.6755 O.co2     1 GTP        -0.8909
      5 O3B         0.5053    6.5344    3.9193 O.3       1 GTP        -0.7106
      6 PB         -0.6841    5.4647    4.1573 P.3       1 GTP         1.8242
      7 O1B        -0.2602    4.1871    4.8197 O.2       1 GTP        -0.9138
      8 O2B        -1.7976    6.3159    4.9626 O.3       1 GTP        -0.7900
      9 O3A        -1.3235    5.2967    2.6835 O.3       1 GTP        -0.8086
     10 PA         -2.5519    4.3888    2.1545 P.3       1 GTP         1.7888
     11 O1A        -3.8664    4.6910    2.8135 O.2       1 GTP        -0.8200
     12 O2A        -2.5288    4.6111    0.5522 O.3       1 GTP        -0.8185
     13 O5'        -2.0396    2.8622    2.3120 O.3       1 GTP        -0.5679
     14 C5'        -0.8811    2.4285    1.6206 C.3       1 GTP         0.1794
     15 C4'        -0.1994    1.3333    2.4288 C.3       1 GTP         0.1313
     16 O4'        -1.1285    0.2356    2.5840 O.3       1 GTP        -0.3993
     17 C3'         1.0324    0.7610    1.7344 C.3       1 GTP         0.0846
     18 O3'         1.9175    0.2377    2.7247 O.3       1 GTP        -0.5819
     19 C2'         0.4468   -0.3802    0.9263 C.3       1 GTP         0.0567
     20 O2'         1.3993   -1.3703    0.5961 O.3       1 GTP        -0.5837
     21 C1'        -0.6159   -0.9100    1.8769 C.3       1 GTP         0.2547
     22 N9         -1.7127   -1.6108    1.2130 N.pl3     1 GTP        -0.2013
     23 C8         -2.8667   -1.0365    0.7385 C.ar      1 GTP         0.4384
     24 N7         -3.6757   -1.9196    0.1868 N.2       1 GTP        -0.6072
     25 C5         -3.0088   -3.1018    0.3164 C.ar      1 GTP         0.1855
     26 C6         -3.4148   -4.4130   -0.1079 C.ar      1 GTP         0.6502
     27 O6         -4.4753   -4.6480   -0.6732 O.2       1 GTP        -0.6193
     28 N1         -2.4377   -5.3653    0.2144 N.pl3     1 GTP        -0.5097
     29 C2         -1.2132   -5.0902    0.8680 C.ar      1 GTP         0.6454
     30 N2         -0.4066   -6.1772    1.0834 N.pl3     1 GTP        -0.8839
     31 N3         -0.8672   -3.8786    1.2457 N.2       1 GTP        -0.6390
     32 C4         -1.7966   -2.9451    0.9439 C.ar      1 GTP         0.0961
     33 HOB2       -2.6676    5.9029    5.1488 H         1 GTP         0.4357
     34 HOA2       -3.1459    4.0937   -0.0076 H         1 GTP         0.4835
     35 H5'        -1.1760    2.0498    0.6365 H         1 GTP         0.0448
     36 H5''       -0.2072    3.2811    1.4873 H         1 GTP         0.0448
     37 H4'         0.0402    1.7079    3.4342 H         1 GTP         0.1246
     38 H3'         1.5907    1.4859    1.1353 H         1 GTP         0.0764
     39 HO3'        2.6839   -0.1150    2.2479 H         1 GTP         0.4062
     40 H2'        -0.0017    0.0018    0.0005 H         1 GTP         0.0706
     41 HO2'        2.0953   -0.9375    0.0709 H         1 GTP         0.4064
     42 H1'        -0.1998   -1.6319    2.6178 H         1 GTP         0.1053
     43 H8         -3.0589    0.0244    0.8247 H         1 GTP         0.0995
     44 HN1        -2.6238   -6.3307   -0.0420 H         1 GTP         0.3262
     45 HN21        0.4646   -6.0341    1.5394 H         1 GTP         0.4043
     46 HN22       -0.7235   -7.0673    0.7753 H         1 GTP         0.4043
@<TRIPOS>BOND
     1    1    2 2
     2    1    3 1
     3    1    4 1
     4    1    5 1
     5    5    6 1
     6    6    7 2
     7    6    8 1
     8    6    9 1
     9    8   33 1
    10    9   10 1
    11   10   11 2
    12   10   12 1
    13   10   13 1
    14   12   34 1
    15   13   14 1
    16   14   15 1
    17   14   35 1
    18   14   36 1
    19   15   16 1
    20   15   17 1
    21   15   37 1
    22   16   21 1
    23   17   18 1
    24   17   19 1
    25   17   38 1
    26   18   39 1
    27   19   20 1
    28   19   21 1
    29   19   40 1
    30   20   41 1
    31   21   22 1
    32   21   42 1
    33   22   23 ar
    34   22   32 ar
    35   23   24 ar
    36   23   43 1
    37   24   25 ar
    38   25   26 ar
    39   25   32 ar
    40   26   27 2
    41   26   28 ar
    42   28   29 ar
    43   28   44 1
    44   29   30 1
    45   29   31 ar
    46   30   45 1
    47   30   46 1
    48   31   32 ar
@<TRIPOS>SUBSTRUCTURE
     1 GTP         1 GROUP 0 A     ****
@<TRIPOS>MOLECULE
[[[5-(2-amino-6-oxo-1~{H}-purin-9-yl)-3,4-dihydroxy-tetrahydrofuran-2-yl]methoxy-hydroxy-phosphoryl]oxy-hydroxy-phosphoryl] phosphate
   46    48     1     0     0
SMALL
USER_CHARGES

@<TRIPOS>ATOM
      1 PG         -4.4079    2.6836   -2.1830 P.3       1 GTP         1.3594
      2 O1G        -4.1410    3.3408   -3.5332 O.co2     1 GTP        -0.8909
      3 O2G        -5.7493    1.9644   -2.0880 O.co2     1 GTP        -0.8909
      4 O3G        -3.2303    1.8869   -1.6309 O.co2     1 GTP        -0.8909
      5 O3B        -4.5501    3.9503   -1.1385 O.3       1 GTP        -0.7106
      6 PB         -3.5018    5.1177   -0.7464 P.3       1 GTP         1.8242
      7 O1B        -2.7052    5.6622   -1.8952 O.2       1 GTP        -0.9138
      8 O2B        -4.4202    6.2022    0.0239 O.3       1 GTP        -0.7900
      9 O3A        -2.6321    4.4444    0.4365 O.3       1 GTP        -0.8086
     10 PA         -3.0702    3.8637    1.8801 P.3       1 GTP         1.7888
     11 O1A        -3.7163    4.8778    2.7789 O.2       1 GTP        -0.8200
     12 O2A        -3.9995    2.5912    1.5139 O.3       1 GTP        -0.8185
     13 O5'        -1.7334    3.1724    2.4742 O.3       1 GTP        -0.5679
     14 C5'        -0.8811    2.4285    1.6206 C.3       1 GTP         0.1794
     15 C4'        -0.1994    1.3333    2.4288 C.3       1 GTP         0.1313
     16 O4'        -1.1285    0.2356    2.5840 O.3       1 GTP        -0.3993
     17 C3'         1.0324    0.7610    1.7344 C.3       1 GTP         0.0846
     18 O3'         1.9175    0.2377    2.7247 O.3       1 GTP        -0.5819
     19 C2'         0.4468   -0.3802    0.9263 C.3       1 GTP         0.0567
     20 O2'         1.3993   -1.3703    0.5961 O.3       1 GTP        -0.5837
     21 C1'        -0.6159   -0.9100    1.8769 C.3       1 GTP         0.2547
     22 N9         -1.7127   -1.6108    1.2130 N.pl3     1 GTP        -0.2013
     23 C8         -2.8667   -1.0365    0.7385 C.ar      1 GTP         0.4384
     24 N7         -3.6757   -1.9196    0.1868 N.2       1 GTP        -0.6072
     25 C5         -3.0088   -3.1018    0.3164 C.ar      1 GTP         0.1855
     26 C6         -3.4148   -4.4130   -0.1079 C.ar      1 GTP         0.6502
     27 O6         -4.4753   -4.6480   -0.6732 O.2       1 GTP        -0.6193
     28 N1         -2.4377   -5.3653    0.2144 N.pl3     1 GTP        -0.5097
     29 C2         -1.2132   -5.0902    0.8680 C.ar      1 GTP         0.6454
     30 N2         -0.4066   -6.1772    1.0834 N.pl3     1 GTP        -0.8839
     31 N3         -0.8672   -3.8786    1.2457 N.2       1 GTP        -0.6390
     32 C4         -1.7966   -2.9451    0.9439 C.ar      1 GTP         0.0961
     33 HOB2       -3.9888    6.9764    0.4442 H         1 GTP         0.4357
     34 HOA2       -4.8501    2.7427    1.0497 H         1 GTP         0.4835
     35 H5'        -1.4794    1.9921    0.8142 H         1 GTP         0.0448
     36 H5''       -0.1361    3.1034    1.1867 H         1 GTP         0.0448
     37 H4'         0.0402    1.7079    3.4342 H         1 GTP         0.1246
     38 H3'         1.5907    1.4859    1.1353 H         1 GTP         0.0764
     39 HO3'        2.6839   -0.1150    2.2479 H         1 GTP         0.4062
     40 H2'        -0.0017    0.0018    0.0005 H         1 GTP         0.0706
     41 HO2'        2.0953   -0.9375    0.0709 H         1 GTP         0.4064
     42 H1'        -0.1998   -1.6319    2.6178 H         1 GTP         0.1053
     43 H8         -3.0589    0.0244    0.8247 H         1 GTP         0.0995
     44 HN1        -2.6238   -6.3307   -0.0420 H         1 GTP         0.3262
     45 HN21        0.4646   -6.0341    1.5394 H         1 GTP         0.4043
     46 HN22       -0.7235   -7.0673    0.7753 H         1 GTP         0.4043
@<TRIPOS>BOND
     1    1    2 2
     2    1    3 1
     3    1    4 1
     4    1    5 1
     5    5    6 1
     6    6    7 2
     7    6    8 1
     8    6    9 1
     9    8   33 1
    10    9   10 1
    11   10   11 2
    12   10   12 1
    13   10   13 1
    14   12   34 1
    15   13   14 1
    16   14   15 1
    17   14   35 1
    18   14   36 1
    19   15   16 1
    20   15   17 1
    21   15   37 1
    22   16   21 1
    23   17   18 1
    24   17   19 1
    25   17   38 1
    26   18   39 1
    27   19   20 1
    28   19   21 1
    29   19   40 1
    30   20   41 1
    31   21   22 1
    32   21   42 1
    33   22   23 ar
    34   22   32 ar
    35   23   24 ar
    36   23   43 1
    37   24   25 ar
    38   25   26 ar
    39   25   32 ar
    40   26   27 2
    41   26   28 ar
    42   28   29 ar
    43   28   44 1
    44   29   30 1
    45   29   31 ar
    46   30   45 1
    47   30   46 1
    48   31   32 ar
@<TRIPOS>SUBSTRUCTURE
     1 GTP         1 GROUP 0 A     ****
@<TRIPOS>MOLECULE
[[[5-(2-amino-6-oxo-1~{H}-purin-9-yl)-3,4-dihydroxy-tetrahydrofuran-2-yl]methoxy-hydroxy-phosphoryl]oxy-hydroxy-phosphoryl] phosphate
   46    48     1     0     0
SMALL
USER_CHARGES

@<TRIPOS>ATOM
      1 PG         -4.0759    8.0093    1.9701 P.3       1 GTP         1.3594
      2 O1G        -3.2489    9.2099    1.5223 O.co2     1 GTP        -0.8909
      3 O2G        -5.2467    8.3575    2.8832 O.co2     1 GTP        -0.8909
      4 O3G        -4.4250    7.0362    0.8487 O.co2     1 GTP        -0.8909
      5 O3B        -3.0510    7.1493    2.9322 O.3       1 GTP        -0.7106
      6 PB         -1.6180    6.4728    2.6088 P.3       1 GTP         1.8242
      7 O1B        -0.5561    7.4307    2.1556 O.2       1 GTP        -0.9138
      8 O2B        -1.2735    5.6603    3.9631 O.3       1 GTP        -0.7900
      9 O3A        -1.9938    5.3110    1.5513 O.3       1 GTP        -0.8086
     10 PA         -2.9684    4.0281    1.6828 P.3       1 GTP         1.7888
     11 O1A        -4.2427    4.2995    2.4285 O.2       1 GTP        -0.8200
     12 O2A        -3.1675    3.5413    0.1529 O.3       1 GTP        -0.8185
     13 O5'        -2.0396    2.8622    2.3120 O.3       1 GTP        -0.5679
     14 C5'        -0.8811    2.4285    1.6206 C.3       1 GTP         0.1794
     15 C4'        -0.1994    1.3333    2.4288 C.3       1 GTP         0.1313
     16 O4'        -1.1285    0.2356    2.5840 O.3       1 GTP        -0.3993
     17 C3'         1.0324    0.7610    1.7344 C.3       1 GTP         0.0846
     18 O3'         1.9175    0.2377    2.7247 O.3       1 GTP        -0.5819
     19 C2'         0.4468   -0.3802    0.9263 C.3       1 GTP         0.0567
     20 O2'         1.3993   -1.3703    0.5961 O.3       1 GTP        -0.5837
     21 C1'        -0.6159   -0.9100    1.8769 C.3       1 GTP         0.2547
     22 N9         -1.7127   -1.6108    1.2130 N.pl3     1 GTP        -0.2013
     23 C8         -2.8667   -1.0365    0.7385 C.ar      1 GTP         0.4384
     24 N7         -3.6757   -1.9196    0.1868 N.2       1 GTP        -0.6072
     25 C5         -3.0088   -3.1018    0.3164 C.ar      1 GTP         0.1855
     26 C6         -3.4148   -4.4130   -0.1079 C.ar      1 GTP         0.6502
     27 O6         -4.4753   -4.6480   -0.6732 O.2       1 GTP        -0.6193
     28 N1         -2.4377   -5.3653    0.2144 N.pl3     1 GTP        -0.5097
     29 C2         -1.2132   -5.0902    0.8680 C.ar      1 GTP         0.6454
     30 N2         -0.4066   -6.1772    1.0834 N.pl3     1 GTP        -0.8839
     31 N3         -0.8672   -3.8786    1.2457 N.2       1 GTP        -0.6390
     32 C4         -1.7966   -2.9451    0.9439 C.ar      1 GTP         0.0961
     33 HOB2       -0.4799    5.0841    3.9820 H         1 GTP         0.4357
     34 HOA2       -3.6694    2.7168   -0.0211 H         1 GTP         0.4835
     35 H5'        -1.1760    2.0498    0.6365 H         1 GTP         0.0448
     36 H5''       -0.2072    3.2811    1.4873 H         1 GTP         0.0448
     37 H4'         0.0402    1.7079    3.4342 H         1 GTP         0.1246
     38 H3'         1.5907    1.4859    1.1353 H         1 GTP         0.0764
     39 HO3'        2.6839   -0.1150    2.2479 H         1 GTP         0.4062
     40 H2'        -0.0017    0.0018    0.0005 H         1 GTP         0.0706
     41 HO2'        0.9369   -2.0558    0.0825 H         1 GTP         0.4064
     42 H1'        -0.1998   -1.6319    2.6178 H         1 GTP         0.1053
     43 H8         -3.0589    0.0244    0.8247 H         1 GTP         0.0995
     44 HN1        -2.6238   -6.3307   -0.0420 H         1 GTP         0.3262
     45 HN21        0.4646   -6.0341    1.5394 H         1 GTP         0.4043
     46 HN22       -0.7235   -7.0673    0.7753 H         1 GTP         0.4043
@<TRIPOS>BOND
     1    1    2 2
     2    1    3 1
     3    1    4 1
     4    1    5 1
     5    5    6 1
     6    6    7 2
     7    6    8 1
     8    6    9 1
     9    8   33 1
    10    9   10 1
    11   10   11 2
    12   10   12 1
    13   10   13 1
    14   12   34 1
    15   13   14 1
    16   14   15 1
    17   14   35 1
    18   14   36 1
    19   15   16 1
    20   15   17 1
    21   15   37 1
    22   16   21 1
    23   17   18 1
    24   17   19 1
    25   17   38 1
    26   18   39 1
    27   19   20 1
    28   19   21 1
    29   19   40 1
    30   20   41 1
    31   21   22 1
    32   21   42 1
    33   22   23 ar
    34   22   32 ar
    35   23   24 ar
    36   23   43 1
    37   24   25 ar
    38   25   26 ar
    39   25   32 ar
    40   26   27 2
    41   26   28 ar
    42   28   29 ar
    43   28   44 1
    44   29   30 1
    45   29   31 ar
    46   30   45 1
    47   30   46 1
    48   31   32 ar
@<TRIPOS>SUBSTRUCTURE
     1 GTP         1 GROUP 0 A     ****
@<TRIPOS>MOLECULE
[[[5-(2-amino-6-oxo-1~{H}-purin-9-yl)-3,4-dihydroxy-tetrahydrofuran-2-yl]methoxy-hydroxy-phosphoryl]oxy-hydroxy-phosphoryl] phosphate
   46    48     1     0     0
SMALL
USER_CHARGES

@<TRIPOS>ATOM
      1 PG         -1.5149    6.1334   -1.9430 P.3       1 GTP         1.3594
      2 O1G        -0.7479    7.4450   -2.0745 O.co2     1 GTP        -0.8909
      3 O2G        -2.4411    5.8263   -3.1151 O.co2     1 GTP        -0.8909
      4 O3G        -0.6619    4.9517   -1.4933 O.co2     1 GTP        -0.8909
      5 O3B        -2.5350    6.3877   -0.6739 O.3       1 GTP        -0.7106
      6 PB         -2.2268    6.7570    0.8703 P.3       1 GTP         1.8242
      7 O1B        -1.1167    7.7456    1.0730 O.2       1 GTP        -0.9138
      8 O2B        -3.6673    7.2201    1.4390 O.3       1 GTP        -0.7900
      9 O3A        -1.9938    5.3110    1.5513 O.3       1 GTP        -0.8086
     10 PA         -2.9684    4.0281    1.6828 P.3       1 GTP         1.7888
     11 O1A        -4.2427    4.2995    2.4285 O.2       1 GTP        -0.8200
     12 O2A        -3.1675    3.5413    0.1529 O.3       1 GTP        -0.8185
     13 O5'        -2.0396    2.8622    2.3120 O.3       1 GTP        -0.5679
     14 C5'        -0.8811    2.4285    1.6206 C.3       1 GTP         0.1794
     15 C4'        -0.1994    1.3333    2.4288 C.3       1 GTP         0.1313
     16 O4'        -1.1285    0.2356    2.5840 O.3       1 GTP        -0.3993
     17 C3'         1.0324    0.7610    1.7344 C.3       1 GTP         0.0846
     18 O3'         1.9175    0.2377    2.7247 O.3       1 GTP        -0.5819
     19 C2'         0.4468   -0.3802    0.9263 C.3       1 GTP         0.0567
     20 O2'         1.3993   -1.3703    0.5961 O.3       1 GTP        -0.5837
     21 C1'        -0.6159   -0.9100    1.8769 C.3       1 GTP         0.2547
     22 N9         -1.7127   -1.6108    1.2130 N.pl3     1 GTP        -0.2013
     23 C8         -2.8667   -1.0365    0.7385 C.ar      1 GTP         0.4384
     24 N7         -3.6757   -1.9196    0.1868 N.2       1 GTP        -0.6072
     25 C5         -3.0088   -3.1018    0.3164 C.ar      1 GTP         0.1855
     26 C6         -3.4148   -4.4130   -0.1079 C.ar      1 GTP         0.6502
     27 O6         -4.4753   -4.6480   -0.6732 O.2       1 GTP        -0.6193
     28 N1         -2.4377   -5.3653    0.2144 N.pl3     1 GTP        -0.5097
     29 C2         -1.2132   -5.0902    0.8680 C.ar      1 GTP         0.6454
     30 N2         -0.4066   -6.1772    1.0834 N.pl3     1 GTP        -0.8839
     31 N3         -0.8672   -3.8786    1.2457 N.2       1 GTP        -0.6390
     32 C4         -1.7966   -2.9451    0.9439 C.ar      1 GTP         0.0961
     33 HOB2       -3.7598    7.4131    2.3963 H         1 GTP         0.4357
     34 HOA2       -3.6341    4.1318   -0.4760 H         1 GTP         0.4835
     35 H5'        -1.1760    2.0498    0.6365 H         1 GTP         0.0448
     36 H5''       -0.2072    3.2811    1.4873 H         1 GTP         0.0448
     37 H4'         0.0402    1.7079    3.4342 H         1 GTP         0.1246
     38 H3'         1.5907    1.4859    1.1353 H         1 GTP         0.0764
     39 HO3'        2.6839   -0.1150    2.2479 H         1 GTP         0.4062
     40 H2'        -0.0017    0.0018    0.0005 H         1 GTP         0.0706
     41 HO2'        2.0953   -0.9375    0.0709 H         1 GTP         0.4064
     42 H1'        -0.1998   -1.6319    2.6178 H         1 GTP         0.1053
     43 H8         -3.0589    0.0244    0.8247 H         1 GTP         0.0995
     44 HN1        -2.6238   -6.3307   -0.0420 H         1 GTP         0.3262
     45 HN21        0.4646   -6.0341    1.5394 H         1 GTP         0.4043
     46 HN22       -0.7235   -7.0673    0.7753 H         1 GTP         0.4043
@<TRIPOS>BOND
     1    1    2 2
     2    1    3 1
     3    1    4 1
     4    1    5 1
     5    5    6 1
     6    6    7 2
     7    6    8 1
     8    6    9 1
     9    8   33 1
    10    9   10 1
    11   10   11 2
    12   10   12 1
    13   10   13 1
    14   12   34 1
    15   13   14 1
    16   14   15 1
    17   14   35 1
    18   14   36 1
    19   15   16 1
    20   15   17 1
    21   15   37 1
    22   16   21 1
    23   17   18 1
    24   17   19 1
    25   17   38 1
    26   18   39 1
    27   19   20 1
    28   19   21 1
    29   19   40 1
    30   20   41 1
    31   21   22 1
    32   21   42 1
    33   22   23 ar
    34   22   32 ar
    35   23   24 ar
    36   23   43 1
    37   24   25 ar
    38   25   26 ar
    39   25   32 ar
    40   26   27 2
    41   26   28 ar
    42   28   29 ar
    43   28   44 1
    44   29   30 1
    45   29   31 ar
    46   30   45 1
    47   30   46 1
    48   31   32 ar
@<TRIPOS>SUBSTRUCTURE
     1 GTP         1 GROUP 0 A     ****
@<TRIPOS>MOLECULE
[[[5-(2-amino-6-oxo-1~{H}-purin-9-yl)-3,4-dihydroxy-tetrahydrofuran-2-yl]methoxy-hydroxy-phosphoryl]oxy-hydroxy-phosphoryl] phosphate
   46    48     1     0     0
SMALL
USER_CHARGES

@<TRIPOS>ATOM
      1 PG         -4.1962    8.8366    1.6495 P.3       1 GTP         1.3594
      2 O1G        -3.0774    9.7999    2.0320 O.co2     1 GTP        -0.8909
      3 O2G        -5.3245    8.7457    2.6715 O.co2     1 GTP        -0.8909
      4 O3G        -4.6690    8.9679    0.2055 O.co2     1 GTP        -0.8909
      5 O3B        -3.4837    7.3513    1.6965 O.3       1 GTP        -0.7106
      6 PB         -2.2268    6.7570    0.8703 P.3       1 GTP         1.8242
      7 O1B        -2.4020    6.7412   -0.6196 O.2       1 GTP        -0.9138
      8 O2B        -0.9793    7.6362    1.4029 O.3       1 GTP        -0.7900
      9 O3A        -1.9938    5.3110    1.5513 O.3       1 GTP        -0.8086
     10 PA         -2.9684    4.0281    1.6828 P.3       1 GTP         1.7888
     11 O1A        -4.2427    4.2995    2.4285 O.2       1 GTP        -0.8200
     12 O2A        -3.1675    3.5413    0.1529 O.3       1 GTP        -0.8185
     13 O5'        -2.0396    2.8622    2.3120 O.3       1 GTP        -0.5679
     14 C5'        -0.8811    2.4285    1.6206 C.3       1 GTP         0.1794
     15 C4'        -0.1994    1.3333    2.4288 C.3       1 GTP         0.1313
     16 O4'        -1.1285    0.2356    2.5840 O.3       1 GTP        -0.3993
     17 C3'         1.0324    0.7610    1.7344 C.3       1 GTP         0.0846
     18 O3'         1.9175    0.2377    2.7247 O.3       1 GTP        -0.5819
     19 C2'         0.4468   -0.3802    0.9263 C.3       1 GTP         0.0567
     20 O2'         1.3993   -1.3703    0.5961 O.3       1 GTP        -0.5837
     21 C1'        -0.6159   -0.9100    1.8769 C.3       1 GTP         0.2547
     22 N9         -1.7127   -1.6108    1.2130 N.pl3     1 GTP        -0.2013
     23 C8         -2.8667   -1.0365    0.7385 C.ar      1 GTP         0.4384
     24 N7         -3.6757   -1.9196    0.1868 N.2       1 GTP        -0.6072
     25 C5         -3.0088   -3.1018    0.3164 C.ar      1 GTP         0.1855
     26 C6         -3.4148   -4.4130   -0.1079 C.ar      1 GTP         0.6502
     27 O6         -4.4753   -4.6480   -0.6732 O.2       1 GTP        -0.6193
     28 N1         -2.4377   -5.3653    0.2144 N.pl3     1 GTP        -0.5097
     29 C2         -1.2132   -5.0902    0.8680 C.ar      1 GTP         0.6454
     30 N2         -0.4066   -6.1772    1.0834 N.pl3     1 GTP        -0.8839
     31 N3         -0.8672   -3.8786    1.2457 N.2       1 GTP        -0.6390
     32 C4         -1.7966   -2.9451    0.9439 C.ar      1 GTP         0.0961
     33 HOB2       -0.9541    8.5956    1.2003 H         1 GTP         0.4357
     34 HOA2       -3.6694    2.7168   -0.0211 H         1 GTP         0.4835
     35 H5'        -1.1760    2.0498    0.6365 H         1 GTP         0.0448
     36 H5''       -0.2072    3.2811    1.4873 H         1 GTP         0.0448
     37 H4'         0.0402    1.7079    3.4342 H         1 GTP         0.1246
     38 H3'         1.5907    1.4859    1.1353 H         1 GTP         0.0764
     39 HO3'        2.6839   -0.1150    2.2479 H         1 GTP         0.4062
     40 H2'        -0.0017    0.0018    0.0005 H         1 GTP         0.0706
     41 HO2'        2.0953   -0.9375    0.0709 H         1 GTP         0.4064
     42 H1'        -0.1998   -1.6319    2.6178 H         1 GTP         0.1053
     43 H8         -3.0589    0.0244    0.8247 H         1 GTP         0.0995
     44 HN1        -2.6238   -6.3307   -0.0420 H         1 GTP         0.3262
     45 HN21        0.4646   -6.0341    1.5394 H         1 GTP         0.4043
     46 HN22       -0.7235   -7.0673    0.7753 H         1 GTP         0.4043
@<TRIPOS>BOND
     1    1    2 2
     2    1    3 1
     3    1    4 1
     4    1    5 1
     5    5    6 1
     6    6    7 2
     7    6    8 1
     8    6    9 1
     9    8   33 1
    10    9   10 1
    11   10   11 2
    12   10   12 1
    13   10   13 1
    14   12   34 1
    15   13   14 1
    16   14   15 1
    17   14   35 1
    18   14   36 1
    19   15   16 1
    20   15   17 1
    21   15   37 1
    22   16   21 1
    23   17   18 1
    24   17   19 1
    25   17   38 1
    26   18   39 1
    27   19   20 1
    28   19   21 1
    29   19   40 1
    30   20   41 1
    31   21   22 1
    32   21   42 1
    33   22   23 ar
    34   22   32 ar
    35   23   24 ar
    36   23   43 1
    37   24   25 ar
    38   25   26 ar
    39   25   32 ar
    40   26   27 2
    41   26   28 ar
    42   28   29 ar
    43   28   44 1
    44   29   30 1
    45   29   31 ar
    46   30   45 1
    47   30   46 1
    48   31   32 ar
@<TRIPOS>SUBSTRUCTURE
     1 GTP         1 GROUP 0 A     ****
@<TRIPOS>MOLECULE
[[[5-(2-amino-6-oxo-1~{H}-purin-9-yl)-3,4-dihydroxy-tetrahydrofuran-2-yl]methoxy-hydroxy-phosphoryl]oxy-hydroxy-phosphoryl] phosphate
   46    48     1     0     0
SMALL
USER_CHARGES

@<TRIPOS>ATOM
      1 PG         -2.8317    8.0822    4.0090 P.3       1 GTP         1.3594
      2 O1G        -1.6964    9.0817    4.2041 O.co2     1 GTP        -0.8909
      3 O2G        -4.0657    8.3581    4.8617 O.co2     1 GTP        -0.8909
      4 O3G        -3.1385    7.7601    2.5502 O.co2     1 GTP        -0.8909
      5 O3B        -2.2320    6.6682    4.6063 O.3       1 GTP        -0.7106
      6 PB         -0.9383    5.8020    4.1685 P.3       1 GTP         1.8242
      7 O1B         0.3716    6.5251    4.2781 O.2       1 GTP        -0.9138
      8 O2B        -1.0596    4.4661    5.0706 O.3       1 GTP        -0.7900
      9 O3A        -1.3235    5.2967    2.6835 O.3       1 GTP        -0.8086
     10 PA         -2.5519    4.3888    2.1545 P.3       1 GTP         1.7888
     11 O1A        -3.8664    4.6910    2.8135 O.2       1 GTP        -0.8200
     12 O2A        -2.5288    4.6111    0.5522 O.3       1 GTP        -0.8185
     13 O5'        -2.0396    2.8622    2.3120 O.3       1 GTP        -0.5679
     14 C5'        -0.8811    2.4285    1.6206 C.3       1 GTP         0.1794
     15 C4'        -0.1994    1.3333    2.4288 C.3       1 GTP         0.1313
     16 O4'        -1.1285    0.2356    2.5840 O.3       1 GTP        -0.3993
     17 C3'         1.0324    0.7610    1.7344 C.3       1 GTP         0.0846
     18 O3'         1.9175    0.2377    2.7247 O.3       1 GTP        -0.5819
     19 C2'         0.4468   -0.3802    0.9263 C.3       1 GTP         0.0567
     20 O2'         1.3993   -1.3703    0.5961 O.3       1 GTP        -0.5837
     21 C1'        -0.6159   -0.9100    1.8769 C.3       1 GTP         0.2547
     22 N9         -1.7127   -1.6108    1.2130 N.pl3     1 GTP        -0.2013
     23 C8         -1.7695   -2.9586    0.9546 C.ar      1 GTP         0.4384
     24 N7         -2.8846   -3.3047    0.3416 N.2       1 GTP        -0.6072
     25 C5         -3.5626   -2.1296    0.2052 C.ar      1 GTP         0.1855
     26 C6         -4.8477   -1.8989   -0.3942 C.ar      1 GTP         0.6502
     27 O6         -5.5373   -2.7819   -0.8881 O.2       1 GTP        -0.6193
     28 N1         -5.1895   -0.5407   -0.3318 N.pl3     1 GTP        -0.5097
     29 C2         -4.3899    0.4774    0.2398 C.ar      1 GTP         0.6454
     30 N2         -4.9233    1.7390    0.1898 N.pl3     1 GTP        -0.8839
     31 N3         -3.2159    0.2369    0.7822 N.2       1 GTP        -0.6390
     32 C4         -2.8678   -1.0679    0.7322 C.ar      1 GTP         0.0961
     33 HOB2       -0.4264    3.7324    4.9195 H         1 GTP         0.4357
     34 HOA2       -2.7205    5.5039    0.1942 H         1 GTP         0.4835
     35 H5'        -1.1760    2.0498    0.6365 H         1 GTP         0.0448
     36 H5''       -0.2072    3.2811    1.4873 H         1 GTP         0.0448
     37 H4'         0.0402    1.7079    3.4342 H         1 GTP         0.1246
     38 H3'         1.5907    1.4859    1.1353 H         1 GTP         0.0764
     39 HO3'        2.6839   -0.1150    2.2479 H         1 GTP         0.4062
     40 H2'        -0.0017    0.0018    0.0005 H         1 GTP         0.0706
     41 HO2'        2.0953   -0.9375    0.0709 H         1 GTP         0.4064
     42 H1'        -0.1998   -1.6319    2.6178 H         1 GTP         0.1053
     43 H8         -0.9713   -3.6323    1.2352 H         1 GTP         0.0995
     44 HN1        -6.0831   -0.2651   -0.7290 H         1 GTP         0.3262
     45 HN21       -4.3984    2.4878    0.5788 H         1 GTP         0.4043
     46 HN22       -5.8145    1.8572   -0.2335 H         1 GTP         0.4043
@<TRIPOS>BOND
     1    1    2 2
     2    1    3 1
     3    1    4 1
     4    1    5 1
     5    5    6 1
     6    6    7 2
     7    6    8 1
     8    6    9 1
     9    8   33 1
    10    9   10 1
    11   10   11 2
    12   10   12 1
    13   10   13 1
    14   12   34 1
    15   13   14 1
    16   14   15 1
    17   14   35 1
    18   14   36 1
    19   15   16 1
    20   15   17 1
    21   15   37 1
    22   16   21 1
    23   17   18 1
    24   17   19 1
    25   17   38 1
    26   18   39 1
    27   19   20 1
    28   19   21 1
    29   19   40 1
    30   20   41 1
    31   21   22 1
    32   21   42 1
    33   22   23 ar
    34   22   32 ar
    35   23   24 ar
    36   23   43 1
    37   24   25 ar
    38   25   26 ar
    39   25   32 ar
    40   26   27 2
    41   26   28 ar
    42   28   29 ar
    43   28   44 1
    44   29   30 1
    45   29   31 ar
    46   30   45 1
    47   30   46 1
    48   31   32 ar
@<TRIPOS>SUBSTRUCTURE
     1 GTP         1 GROUP 0 A     ****
@<TRIPOS>MOLECULE
[[[5-(2-amino-6-oxo-1~{H}-purin-9-yl)-3,4-dihydroxy-tetrahydrofuran-2-yl]methoxy-hydroxy-phosphoryl]oxy-hydroxy-phosphoryl] phosphate
   46    48     1     0     0
SMALL
USER_CHARGES

@<TRIPOS>ATOM
      1 PG          2.5344    4.8884   -3.2646 P.3       1 GTP         1.3594
      2 O1G         3.4367    3.7991   -2.6940 O.co2     1 GTP        -0.8909
      3 O2G         3.0776    6.3041   -3.1016 O.co2     1 GTP        -0.8909
      4 O3G         1.9884    4.5840   -4.6558 O.co2     1 GTP        -0.8909
      5 O3B         1.1981    4.8515   -2.3009 O.3       1 GTP        -0.7106
      6 PB          0.1452    3.6609   -2.0015 P.3       1 GTP         1.8242
      7 O1B        -0.5820    3.1439   -3.2076 O.2       1 GTP        -0.9138
      8 O2B         1.0349    2.5630   -1.2166 O.3       1 GTP        -0.7900
      9 O3A        -0.7948    4.2874   -0.8470 O.3       1 GTP        -0.8086
     10 PA         -0.4418    4.8275    0.6351 P.3       1 GTP         1.7888
     11 O1A         0.5363    5.9662    0.6563 O.2       1 GTP        -0.8200
     12 O2A        -1.8895    5.1640    1.2739 O.3       1 GTP        -0.8185
     13 O5'         0.0170    3.5129    1.4592 O.3       1 GTP        -0.5679
     14 C5'        -0.8811    2.4285    1.6206 C.3       1 GTP         0.1794
     15 C4'        -0.1994    1.3333    2.4288 C.3       1 GTP         0.1313
     16 O4'        -1.1285    0.2356    2.5840 O.3       1 GTP        -0.3993
     17 C3'         1.0324    0.7610    1.7344 C.3       1 GTP         0.0846
     18 O3'         1.9175    0.2377    2.7247 O.3       1 GTP        -0.5819
     19 C2'         0.4468   -0.3802    0.9263 C.3       1 GTP         0.0567
     20 O2'         1.3993   -1.3703    0.5961 O.3       1 GTP        -0.5837
     21 C1'        -0.6159   -0.9100    1.8769 C.3       1 GTP         0.2547
     22 N9         -1.7127   -1.6108    1.2130 N.pl3     1 GTP        -0.2013
     23 C8         -2.8667   -1.0365    0.7385 C.ar      1 GTP         0.4384
     24 N7         -3.6757   -1.9196    0.1868 N.2       1 GTP        -0.6072
     25 C5         -3.0088   -3.1018    0.3164 C.ar      1 GTP         0.1855
     26 C6         -3.4148   -4.4130   -0.1079 C.ar      1 GTP         0.6502
     27 O6         -4.4753   -4.6480   -0.6732 O.2       1 GTP        -0.6193
     28 N1         -2.4377   -5.3653    0.2144 N.pl3     1 GTP        -0.5097
     29 C2         -1.2132   -5.0902    0.8680 C.ar      1 GTP         0.6454
     30 N2         -0.4066   -6.1772    1.0834 N.pl3     1 GTP        -0.8839
     31 N3         -0.8672   -3.8786    1.2457 N.2       1 GTP        -0.6390
     32 C4         -1.7966   -2.9451    0.9439 C.ar      1 GTP         0.0961
     33 HOB2        1.7620    2.1113   -1.6954 H         1 GTP         0.4357
     34 HOA2       -1.9407    5.4416    2.2132 H         1 GTP         0.4835
     35 H5'        -1.7776    2.7841    2.1389 H         1 GTP         0.0448
     36 H5''       -1.1659    2.0533    0.6322 H         1 GTP         0.0448
     37 H4'         0.0402    1.7079    3.4342 H         1 GTP         0.1246
     38 H3'         1.5907    1.4859    1.1353 H         1 GTP         0.0764
     39 HO3'        2.6839   -0.1150    2.2479 H         1 GTP         0.4062
     40 H2'        -0.0017    0.0018    0.0005 H         1 GTP         0.0706
     41 HO2'        2.0953   -0.9375    0.0709 H         1 GTP         0.4064
     42 H1'        -0.1998   -1.6319    2.6178 H         1 GTP         0.1053
     43 H8         -3.0589    0.0244    0.8247 H         1 GTP         0.0995
     44 HN1        -2.6238   -6.3307   -0.0420 H         1 GTP         0.3262
     45 HN21        0.4646   -6.0341    1.5394 H         1 GTP         0.4043
     46 HN22       -0.7235   -7.0673    0.7753 H         1 GTP         0.4043
@<TRIPOS>BOND
     1    1    2 2
     2    1    3 1
     3    1    4 1
     4    1    5 1
     5    5    6 1
     6    6    7 2
     7    6    8 1
     8    6    9 1
     9    8   33 1
    10    9   10 1
    11   10   11 2
    12   10   12 1
    13   10   13 1
    14   12   34 1
    15   13   14 1
    16   14   15 1
    17   14   35 1
    18   14   36 1
    19   15   16 1
    20   15   17 1
    21   15   37 1
    22   16   21 1
    23   17   18 1
    24   17   19 1
    25   17   38 1
    26   18   39 1
    27   19   20 1
    28   19   21 1
    29   19   40 1
    30   20   41 1
    31   21   22 1
    32   21   42 1
    33   22   23 ar
    34   22   32 ar
    35   23   24 ar
    36   23   43 1
    37   24   25 ar
    38   25   26 ar
    39   25   32 ar
    40   26   27 2
    41   26   28 ar
    42   28   29 ar
    43   28   44 1
    44   29   30 1
    45   29   31 ar
    46   30   45 1
    47   30   46 1
    48   31   32 ar
@<TRIPOS>SUBSTRUCTURE
     1 GTP         1 GROUP 0 A     ****
@<TRIPOS>MOLECULE
[[[5-(2-amino-6-oxo-1~{H}-purin-9-yl)-3,4-dihydroxy-tetrahydrofuran-2-yl]methoxy-hydroxy-phosphoryl]oxy-hydroxy-phosphoryl] phosphate
   46    48     1     0     0
SMALL
USER_CHARGES

@<TRIPOS>ATOM
      1 PG         -0.0330    6.9191   -2.9169 P.3       1 GTP         1.3594
      2 O1G        -0.6646    6.5540   -4.2563 O.co2     1 GTP        -0.8909
      3 O2G         1.0866    7.9504   -3.0101 O.co2     1 GTP        -0.8909
      4 O3G        -1.0393    7.1870   -1.8026 O.co2     1 GTP        -0.8909
      5 O3B         0.7255    5.5367   -2.4380 O.3       1 GTP        -0.7106
      6 PB          0.1391    4.0583   -2.1449 P.3       1 GTP         1.8242
      7 O1B        -0.5389    3.4055   -3.3132 O.2       1 GTP        -0.9138
      8 O2B         1.4163    3.2580   -1.5607 O.3       1 GTP        -0.7900
      9 O3A        -0.7948    4.2874   -0.8470 O.3       1 GTP        -0.8086
     10 PA         -0.4418    4.8275    0.6351 P.3       1 GTP         1.7888
     11 O1A         0.5363    5.9662    0.6563 O.2       1 GTP        -0.8200
     12 O2A        -1.8895    5.1640    1.2739 O.3       1 GTP        -0.8185
     13 O5'         0.0170    3.5129    1.4592 O.3       1 GTP        -0.5679
     14 C5'        -0.8811    2.4285    1.6206 C.3       1 GTP         0.1794
     15 C4'        -0.1994    1.3333    2.4288 C.3       1 GTP         0.1313
     16 O4'        -1.1285    0.2356    2.5840 O.3       1 GTP        -0.3993
     17 C3'         1.0324    0.7610    1.7344 C.3       1 GTP         0.0846
     18 O3'         1.9175    0.2377    2.7247 O.3       1 GTP        -0.5819
     19 C2'         0.4468   -0.3802    0.9263 C.3       1 GTP         0.0567
     20 O2'         1.3993   -1.3703    0.5961 O.3       1 GTP        -0.5837
     21 C1'        -0.6159   -0.9100    1.8769 C.3       1 GTP         0.2547
     22 N9         -1.7127   -1.6108    1.2130 N.pl3     1 GTP        -0.2013
     23 C8         -2.8667   -1.0365    0.7385 C.ar      1 GTP         0.4384
     24 N7         -3.6757   -1.9196    0.1868 N.2       1 GTP        -0.6072
     25 C5         -3.0088   -3.1018    0.3164 C.ar      1 GTP         0.1855
     26 C6         -3.4148   -4.4130   -0.1079 C.ar      1 GTP         0.6502
     27 O6         -4.4753   -4.6480   -0.6732 O.2       1 GTP        -0.6193
     28 N1         -2.4377   -5.3653    0.2144 N.pl3     1 GTP        -0.5097
     29 C2         -1.2132   -5.0902    0.8680 C.ar      1 GTP         0.6454
     30 N2         -0.4066   -6.1772    1.0834 N.pl3     1 GTP        -0.8839
     31 N3         -0.8672   -3.8786    1.2457 N.2       1 GTP        -0.6390
     32 C4         -1.7966   -2.9451    0.9439 C.ar      1 GTP         0.0961
     33 HOB2        1.2901    2.3469   -1.2200 H         1 GTP         0.4357
     34 HOA2       -1.9407    5.4416    2.2132 H         1 GTP         0.4835
     35 H5'        -1.7776    2.7841    2.1389 H         1 GTP         0.0448
     36 H5''       -1.1659    2.0533    0.6322 H         1 GTP         0.0448
     37 H4'         0.0402    1.7079    3.4342 H         1 GTP         0.1246
     38 H3'         1.5907    1.4859    1.1353 H         1 GTP         0.0764
     39 HO3'        2.6839   -0.1150    2.2479 H         1 GTP         0.4062
     40 H2'        -0.0017    0.0018    0.0005 H         1 GTP         0.0706
     41 HO2'        2.0953   -0.9375    0.0709 H         1 GTP         0.4064
     42 H1'        -0.1998   -1.6319    2.6178 H         1 GTP         0.1053
     43 H8         -3.0589    0.0244    0.8247 H         1 GTP         0.0995
     44 HN1        -2.6238   -6.3307   -0.0420 H         1 GTP         0.3262
     45 HN21        0.4646   -6.0341    1.5394 H         1 GTP         0.4043
     46 HN22       -0.7235   -7.0673    0.7753 H         1 GTP         0.4043
@<TRIPOS>BOND
     1    1    2 2
     2    1    3 1
     3    1    4 1
     4    1    5 1
     5    5    6 1
     6    6    7 2
     7    6    8 1
     8    6    9 1
     9    8   33 1
    10    9   10 1
    11   10   11 2
    12   10   12 1
    13   10   13 1
    14   12   34 1
    15   13   14 1
    16   14   15 1
    17   14   35 1
    18   14   36 1
    19   15   16 1
    20   15   17 1
    21   15   37 1
    22   16   21 1
    23   17   18 1
    24   17   19 1
    25   17   38 1
    26   18   39 1
    27   19   20 1
    28   19   21 1
    29   19   40 1
    30   20   41 1
    31   21   22 1
    32   21   42 1
    33   22   23 ar
    34   22   32 ar
    35   23   24 ar
    36   23   43 1
    37   24   25 ar
    38   25   26 ar
    39   25   32 ar
    40   26   27 2
    41   26   28 ar
    42   28   29 ar
    43   28   44 1
    44   29   30 1
    45   29   31 ar
    46   30   45 1
    47   30   46 1
    48   31   32 ar
@<TRIPOS>SUBSTRUCTURE
     1 GTP         1 GROUP 0 A     ****
@<TRIPOS>MOLECULE
[[[5-(2-amino-6-oxo-1~{H}-purin-9-yl)-3,4-dihydroxy-tetrahydrofuran-2-yl]methoxy-hydroxy-phosphoryl]oxy-hydroxy-phosphoryl] phosphate
   46    48     1     0     0
SMALL
USER_CHARGES

@<TRIPOS>ATOM
      1 PG         -1.9034    2.7409   -3.6379 P.3       1 GTP         1.3594
      2 O1G        -1.2040    3.6242   -4.6658 O.co2     1 GTP        -0.8909
      3 O2G        -3.0042    1.8565   -4.2141 O.co2     1 GTP        -0.8909
      4 O3G        -0.9565    2.0198   -2.6843 O.co2     1 GTP        -0.8909
      5 O3B        -2.7031    3.8061   -2.6676 O.3       1 GTP        -0.7106
      6 PB         -2.1508    5.0197   -1.7523 P.3       1 GTP         1.8242
      7 O1B        -1.4177    6.0924   -2.5023 O.2       1 GTP        -0.9138
      8 O2B        -3.4672    5.5184   -0.9578 O.3       1 GTP        -0.7900
      9 O3A        -1.2866    4.2581   -0.6199 O.3       1 GTP        -0.8086
     10 PA         -0.4418    4.8275    0.6351 P.3       1 GTP         1.7888
     11 O1A         0.6706    5.7604    0.2532 O.2       1 GTP        -0.8200
     12 O2A        -1.5721    5.4755    1.5941 O.3       1 GTP        -0.8185
     13 O5'         0.0170    3.5129    1.4592 O.3       1 GTP        -0.5679
     14 C5'        -0.8811    2.4285    1.6206 C.3       1 GTP         0.1794
     15 C4'        -0.1994    1.3333    2.4288 C.3       1 GTP         0.1313
     16 O4'        -1.1285    0.2356    2.5840 O.3       1 GTP        -0.3993
     17 C3'         1.0324    0.7610    1.7344 C.3       1 GTP         0.0846
     18 O3'         1.9175    0.2377    2.7247 O.3       1 GTP        -0.5819
     19 C2'         0.4468   -0.3802    0.9263 C.3       1 GTP         0.0567
     20 O2'         1.3993   -1.3703    0.5961 O.3       1 GTP        -0.5837
     21 C1'        -0.6159   -0.9100    1.8769 C.3       1 GTP         0.2547
     22 N9         -1.7127   -1.6108    1.2130 N.pl3     1 GTP        -0.2013
     23 C8         -2.8667   -1.0365    0.7385 C.ar      1 GTP         0.4384
     24 N7         -3.6757   -1.9196    0.1868 N.2       1 GTP        -0.6072
     25 C5         -3.0088   -3.1018    0.3164 C.ar      1 GTP         0.1855
     26 C6         -3.4148   -4.4130   -0.1079 C.ar      1 GTP         0.6502
     27 O6         -4.4753   -4.6480   -0.6732 O.2       1 GTP        -0.6193
     28 N1         -2.4377   -5.3653    0.2144 N.pl3     1 GTP        -0.5097
     29 C2         -1.2132   -5.0902    0.8680 C.ar      1 GTP         0.6454
     30 N2         -0.4066   -6.1772    1.0834 N.pl3     1 GTP        -0.8839
     31 N3         -0.8672   -3.8786    1.2457 N.2       1 GTP        -0.6390
     32 C4         -1.7966   -2.9451    0.9439 C.ar      1 GTP         0.0961
     33 HOB2       -3.3705    6.2024   -0.2614 H         1 GTP         0.4357
     34 HOA2       -1.3068    5.8247    2.4714 H         1 GTP         0.4835
     35 H5'        -1.7776    2.7841    2.1389 H         1 GTP         0.0448
     36 H5''       -1.1659    2.0533    0.6322 H         1 GTP         0.0448
     37 H4'         0.0402    1.7079    3.4342 H         1 GTP         0.1246
     38 H3'         1.5907    1.4859    1.1353 H         1 GTP         0.0764
     39 HO3'        2.6839   -0.1150    2.2479 H         1 GTP         0.4062
     40 H2'        -0.0017    0.0018    0.0005 H         1 GTP         0.0706
     41 HO2'        0.9369   -2.0558    0.0825 H         1 GTP         0.4064
     42 H1'        -0.1998   -1.6319    2.6178 H         1 GTP         0.1053
     43 H8         -3.0589    0.0244    0.8247 H         1 GTP         0.0995
     44 HN1        -2.6238   -6.3307   -0.0420 H         1 GTP         0.3262
     45 HN21        0.4646   -6.0341    1.5394 H         1 GTP         0.4043
     46 HN22       -0.7235   -7.0673    0.7753 H         1 GTP         0.4043
@<TRIPOS>BOND
     1    1    2 2
     2    1    3 1
     3    1    4 1
     4    1    5 1
     5    5    6 1
     6    6    7 2
     7    6    8 1
     8    6    9 1
     9    8   33 1
    10    9   10 1
    11   10   11 2
    12   10   12 1
    13   10   13 1
    14   12   34 1
    15   13   14 1
    16   14   15 1
    17   14   35 1
    18   14   36 1
    19   15   16 1
    20   15   17 1
    21   15   37 1
    22   16   21 1
    23   17   18 1
    24   17   19 1
    25   17   38 1
    26   18   39 1
    27   19   20 1
    28   19   21 1
    29   19   40 1
    30   20   41 1
    31   21   22 1
    32   21   42 1
    33   22   23 ar
    34   22   32 ar
    35   23   24 ar
    36   23   43 1
    37   24   25 ar
    38   25   26 ar
    39   25   32 ar
    40   26   27 2
    41   26   28 ar
    42   28   29 ar
    43   28   44 1
    44   29   30 1
    45   29   31 ar
    46   30   45 1
    47   30   46 1
    48   31   32 ar
@<TRIPOS>SUBSTRUCTURE
     1 GTP         1 GROUP 0 A     ****
@<TRIPOS>MOLECULE
[[[5-(2-amino-6-oxo-1~{H}-purin-9-yl)-3,4-dihydroxy-tetrahydrofuran-2-yl]methoxy-hydroxy-phosphoryl]oxy-hydroxy-phosphoryl] phosphate
   46    48     1     0     0
SMALL
USER_CHARGES

@<TRIPOS>ATOM
      1 PG         -0.3750    3.5785   -4.9226 P.3       1 GTP         1.3594
      2 O1G         0.8216    4.4840   -5.1949 O.co2     1 GTP        -0.8909
      3 O2G        -1.6423    3.9674   -5.6766 O.co2     1 GTP        -0.8909
      4 O3G        -0.0545    2.0879   -4.9647 O.co2     1 GTP        -0.8909
      5 O3B        -0.7408    3.8576   -3.3402 O.3       1 GTP        -0.7106
      6 PB          0.1452    3.6609   -2.0015 P.3       1 GTP         1.8242
      7 O1B         0.6115    2.2566   -1.7543 O.2       1 GTP        -0.9138
      8 O2B         1.3246    4.7535   -2.1693 O.3       1 GTP        -0.7900
      9 O3A        -0.7948    4.2874   -0.8470 O.3       1 GTP        -0.8086
     10 PA         -0.4418    4.8275    0.6351 P.3       1 GTP         1.7888
     11 O1A         0.5363    5.9662    0.6563 O.2       1 GTP        -0.8200
     12 O2A        -1.8895    5.1640    1.2739 O.3       1 GTP        -0.8185
     13 O5'         0.0170    3.5129    1.4592 O.3       1 GTP        -0.5679
     14 C5'        -0.8811    2.4285    1.6206 C.3       1 GTP         0.1794
     15 C4'        -0.1994    1.3333    2.4288 C.3       1 GTP         0.1313
     16 O4'        -1.1285    0.2356    2.5840 O.3       1 GTP        -0.3993
     17 C3'         1.0324    0.7610    1.7344 C.3       1 GTP         0.0846
     18 O3'         1.9175    0.2377    2.7247 O.3       1 GTP        -0.5819
     19 C2'         0.4468   -0.3802    0.9263 C.3       1 GTP         0.0567
     20 O2'         1.3993   -1.3703    0.5961 O.3       1 GTP        -0.5837
     21 C1'        -0.6159   -0.9100    1.8769 C.3       1 GTP         0.2547
     22 N9         -1.7127   -1.6108    1.2130 N.pl3     1 GTP        -0.2013
     23 C8         -2.8667   -1.0365    0.7385 C.ar      1 GTP         0.4384
     24 N7         -3.6757   -1.9196    0.1868 N.2       1 GTP        -0.6072
     25 C5         -3.0088   -3.1018    0.3164 C.ar      1 GTP         0.1855
     26 C6         -3.4148   -4.4130   -0.1079 C.ar      1 GTP         0.6502
     27 O6         -4.4753   -4.6480   -0.6732 O.2       1 GTP        -0.6193
     28 N1         -2.4377   -5.3653    0.2144 N.pl3     1 GTP        -0.5097
     29 C2         -1.2132   -5.0902    0.8680 C.ar      1 GTP         0.6454
     30 N2         -0.4066   -6.1772    1.0834 N.pl3     1 GTP        -0.8839
     31 N3         -0.8672   -3.8786    1.2457 N.2       1 GTP        -0.6390
     32 C4         -1.7966   -2.9451    0.9439 C.ar      1 GTP         0.0961
     33 HOB2        1.9759    4.6412   -2.8941 H         1 GTP         0.4357
     34 HOA2       -1.9407    5.4416    2.2132 H         1 GTP         0.4835
     35 H5'        -1.7776    2.7841    2.1389 H         1 GTP         0.0448
     36 H5''       -1.1659    2.0533    0.6322 H         1 GTP         0.0448
     37 H4'         0.0402    1.7079    3.4342 H         1 GTP         0.1246
     38 H3'         1.5907    1.4859    1.1353 H         1 GTP         0.0764
     39 HO3'        2.6839   -0.1150    2.2479 H         1 GTP         0.4062
     40 H2'        -0.0017    0.0018    0.0005 H         1 GTP         0.0706
     41 HO2'        2.0953   -0.9375    0.0709 H         1 GTP         0.4064
     42 H1'        -0.1998   -1.6319    2.6178 H         1 GTP         0.1053
     43 H8         -3.0589    0.0244    0.8247 H         1 GTP         0.0995
     44 HN1        -2.6238   -6.3307   -0.0420 H         1 GTP         0.3262
     45 HN21        0.4646   -6.0341    1.5394 H         1 GTP         0.4043
     46 HN22       -0.7235   -7.0673    0.7753 H         1 GTP         0.4043
@<TRIPOS>BOND
     1    1    2 2
     2    1    3 1
     3    1    4 1
     4    1    5 1
     5    5    6 1
     6    6    7 2
     7    6    8 1
     8    6    9 1
     9    8   33 1
    10    9   10 1
    11   10   11 2
    12   10   12 1
    13   10   13 1
    14   12   34 1
    15   13   14 1
    16   14   15 1
    17   14   35 1
    18   14   36 1
    19   15   16 1
    20   15   17 1
    21   15   37 1
    22   16   21 1
    23   17   18 1
    24   17   19 1
    25   17   38 1
    26   18   39 1
    27   19   20 1
    28   19   21 1
    29   19   40 1
    30   20   41 1
    31   21   22 1
    32   21   42 1
    33   22   23 ar
    34   22   32 ar
    35   23   24 ar
    36   23   43 1
    37   24   25 ar
    38   25   26 ar
    39   25   32 ar
    40   26   27 2
    41   26   28 ar
    42   28   29 ar
    43   28   44 1
    44   29   30 1
    45   29   31 ar
    46   30   45 1
    47   30   46 1
    48   31   32 ar
@<TRIPOS>SUBSTRUCTURE
     1 GTP         1 GROUP 0 A     ****
@<TRIPOS>MOLECULE
[[[5-(2-amino-6-oxo-1~{H}-purin-9-yl)-3,4-dihydroxy-tetrahydrofuran-2-yl]methoxy-hydroxy-phosphoryl]oxy-hydroxy-phosphoryl] phosphate
   46    48     1     0     0
SMALL
USER_CHARGES

@<TRIPOS>ATOM
      1 PG         -1.1259    6.5044   -1.8610 P.3       1 GTP         1.3594
      2 O1G        -1.7791    7.8660   -1.6474 O.co2     1 GTP        -0.8909
      3 O2G        -0.4731    6.3277   -3.2279 O.co2     1 GTP        -0.8909
      4 O3G        -0.2681    6.0313   -0.6921 O.co2     1 GTP        -0.8909
      5 O3B        -2.3904    5.4476   -1.8740 O.3       1 GTP        -0.7106
      6 PB         -3.5018    5.1177   -0.7464 P.3       1 GTP         1.8242
      7 O1B        -4.3470    6.2862   -0.3329 O.2       1 GTP        -0.9138
      8 O2B        -4.3174    3.8730   -1.3776 O.3       1 GTP        -0.7900
      9 O3A        -2.6321    4.4444    0.4365 O.3       1 GTP        -0.8086
     10 PA         -3.0702    3.8637    1.8801 P.3       1 GTP         1.7888
     11 O1A        -3.7163    4.8778    2.7789 O.2       1 GTP        -0.8200
     12 O2A        -3.9995    2.5912    1.5139 O.3       1 GTP        -0.8185
     13 O5'        -1.7334    3.1724    2.4742 O.3       1 GTP        -0.5679
     14 C5'        -0.8811    2.4285    1.6206 C.3       1 GTP         0.1794
     15 C4'        -0.1994    1.3333    2.4288 C.3       1 GTP         0.1313
     16 O4'        -1.1285    0.2356    2.5840 O.3       1 GTP        -0.3993
     17 C3'         1.0324    0.7610    1.7344 C.3       1 GTP         0.0846
     18 O3'         1.9175    0.2377    2.7247 O.3       1 GTP        -0.5819
     19 C2'         0.4468   -0.3802    0.9263 C.3       1 GTP         0.0567
     20 O2'         1.3993   -1.3703    0.5961 O.3       1 GTP        -0.5837
     21 C1'        -0.6159   -0.9100    1.8769 C.3       1 GTP         0.2547
     22 N9         -1.7127   -1.6108    1.2130 N.pl3     1 GTP        -0.2013
     23 C8         -2.8667   -1.0365    0.7385 C.ar      1 GTP         0.4384
     24 N7         -3.6757   -1.9196    0.1868 N.2       1 GTP        -0.6072
     25 C5         -3.0088   -3.1018    0.3164 C.ar      1 GTP         0.1855
     26 C6         -3.4148   -4.4130   -0.1079 C.ar      1 GTP         0.6502
     27 O6         -4.4753   -4.6480   -0.6732 O.2       1 GTP        -0.6193
     28 N1         -2.4377   -5.3653    0.2144 N.pl3     1 GTP        -0.5097
     29 C2         -1.2132   -5.0902    0.8680 C.ar      1 GTP         0.6454
     30 N2         -0.4066   -6.1772    1.0834 N.pl3     1 GTP        -0.8839
     31 N3         -0.8672   -3.8786    1.2457 N.2       1 GTP        -0.6390
     32 C4         -1.7966   -2.9451    0.9439 C.ar      1 GTP         0.0961
     33 HOB2       -5.0003    3.4276   -0.8321 H         1 GTP         0.4357
     34 HOA2       -4.3291    2.0198    2.2398 H         1 GTP         0.4835
     35 H5'        -1.4794    1.9921    0.8142 H         1 GTP         0.0448
     36 H5''       -0.1361    3.1034    1.1867 H         1 GTP         0.0448
     37 H4'         0.0402    1.7079    3.4342 H         1 GTP         0.1246
     38 H3'         1.5907    1.4859    1.1353 H         1 GTP         0.0764
     39 HO3'        2.6839   -0.1150    2.2479 H         1 GTP         0.4062
     40 H2'        -0.0017    0.0018    0.0005 H         1 GTP         0.0706
     41 HO2'        2.0953   -0.9375    0.0709 H         1 GTP         0.4064
     42 H1'        -0.1998   -1.6319    2.6178 H         1 GTP         0.1053
     43 H8         -3.0589    0.0244    0.8247 H         1 GTP         0.0995
     44 HN1        -2.6238   -6.3307   -0.0420 H         1 GTP         0.3262
     45 HN21        0.4646   -6.0341    1.5394 H         1 GTP         0.4043
     46 HN22       -0.7235   -7.0673    0.7753 H         1 GTP         0.4043
@<TRIPOS>BOND
     1    1    2 2
     2    1    3 1
     3    1    4 1
     4    1    5 1
     5    5    6 1
     6    6    7 2
     7    6    8 1
     8    6    9 1
     9    8   33 1
    10    9   10 1
    11   10   11 2
    12   10   12 1
    13   10   13 1
    14   12   34 1
    15   13   14 1
    16   14   15 1
    17   14   35 1
    18   14   36 1
    19   15   16 1
    20   15   17 1
    21   15   37 1
    22   16   21 1
    23   17   18 1
    24   17   19 1
    25   17   38 1
    26   18   39 1
    27   19   20 1
    28   19   21 1
    29   19   40 1
    30   20   41 1
    31   21   22 1
    32   21   42 1
    33   22   23 ar
    34   22   32 ar
    35   23   24 ar
    36   23   43 1
    37   24   25 ar
    38   25   26 ar
    39   25   32 ar
    40   26   27 2
    41   26   28 ar
    42   28   29 ar
    43   28   44 1
    44   29   30 1
    45   29   31 ar
    46   30   45 1
    47   30   46 1
    48   31   32 ar
@<TRIPOS>SUBSTRUCTURE
     1 GTP         1 GROUP 0 A     ****
@<TRIPOS>MOLECULE
[[[5-(2-amino-6-oxo-1~{H}-purin-9-yl)-3,4-dihydroxy-tetrahydrofuran-2-yl]methoxy-hydroxy-phosphoryl]oxy-hydroxy-phosphoryl] phosphate
   46    48     1     0     0
SMALL
USER_CHARGES

@<TRIPOS>ATOM
      1 PG          0.0286    7.2447   -0.0538 P.3       1 GTP         1.3594
      2 O1G         1.0647    8.2354    0.4668 O.co2     1 GTP        -0.8909
      3 O2G        -0.6790    7.6875   -1.3302 O.co2     1 GTP        -0.8909
      4 O3G         0.5022    5.7950   -0.0717 O.co2     1 GTP        -0.8909
      5 O3B        -1.1546    7.2578    1.0932 O.3       1 GTP        -0.7106
      6 PB         -1.1013    6.8965    2.6687 P.3       1 GTP         1.8242
      7 O1B         0.1257    7.3782    3.3852 O.2       1 GTP        -0.9138
      8 O2B        -2.4977    7.4819    3.2345 O.3       1 GTP        -0.7900
      9 O3A        -1.3235    5.2967    2.6835 O.3       1 GTP        -0.8086
     10 PA         -2.5519    4.3888    2.1545 P.3       1 GTP         1.7888
     11 O1A        -3.8664    4.6910    2.8135 O.2       1 GTP        -0.8200
     12 O2A        -2.5288    4.6111    0.5522 O.3       1 GTP        -0.8185
     13 O5'        -2.0396    2.8622    2.3120 O.3       1 GTP        -0.5679
     14 C5'        -0.8811    2.4285    1.6206 C.3       1 GTP         0.1794
     15 C4'        -0.1994    1.3333    2.4288 C.3       1 GTP         0.1313
     16 O4'        -1.1285    0.2356    2.5840 O.3       1 GTP        -0.3993
     17 C3'         1.0324    0.7610    1.7344 C.3       1 GTP         0.0846
     18 O3'         1.9175    0.2377    2.7247 O.3       1 GTP        -0.5819
     19 C2'         0.4468   -0.3802    0.9263 C.3       1 GTP         0.0567
     20 O2'         1.3993   -1.3703    0.5961 O.3       1 GTP        -0.5837
     21 C1'        -0.6159   -0.9100    1.8769 C.3       1 GTP         0.2547
     22 N9         -1.7127   -1.6108    1.2130 N.pl3     1 GTP        -0.2013
     23 C8         -1.7695   -2.9586    0.9546 C.ar      1 GTP         0.4384
     24 N7         -2.8846   -3.3047    0.3416 N.2       1 GTP        -0.6072
     25 C5         -3.5626   -2.1296    0.2052 C.ar      1 GTP         0.1855
     26 C6         -4.8477   -1.8989   -0.3942 C.ar      1 GTP         0.6502
     27 O6         -5.5373   -2.7819   -0.8881 O.2       1 GTP        -0.6193
     28 N1         -5.1895   -0.5407   -0.3318 N.pl3     1 GTP        -0.5097
     29 C2         -4.3899    0.4774    0.2398 C.ar      1 GTP         0.6454
     30 N2         -4.9233    1.7390    0.1898 N.pl3     1 GTP        -0.8839
     31 N3         -3.2159    0.2369    0.7822 N.2       1 GTP        -0.6390
     32 C4         -2.8678   -1.0679    0.7322 C.ar      1 GTP         0.0961
     33 HOB2       -2.7431    7.3051    4.1676 H         1 GTP         0.4357
     34 HOA2       -2.7205    5.5039    0.1942 H         1 GTP         0.4835
     35 H5'        -1.1760    2.0498    0.6365 H         1 GTP         0.0448
     36 H5''       -0.2072    3.2811    1.4873 H         1 GTP         0.0448
     37 H4'         0.0402    1.7079    3.4342 H         1 GTP         0.1246
     38 H3'         1.5907    1.4859    1.1353 H         1 GTP         0.0764
     39 HO3'        2.6839   -0.1150    2.2479 H         1 GTP         0.4062
     40 H2'        -0.0017    0.0018    0.0005 H         1 GTP         0.0706
     41 HO2'        2.0953   -0.9375    0.0709 H         1 GTP         0.4064
     42 H1'        -0.1998   -1.6319    2.6178 H         1 GTP         0.1053
     43 H8         -0.9713   -3.6323    1.2352 H         1 GTP         0.0995
     44 HN1        -6.0831   -0.2651   -0.7290 H         1 GTP         0.3262
     45 HN21       -4.3984    2.4878    0.5788 H         1 GTP         0.4043
     46 HN22       -5.8145    1.8572   -0.2335 H         1 GTP         0.4043
@<TRIPOS>BOND
     1    1    2 2
     2    1    3 1
     3    1    4 1
     4    1    5 1
     5    5    6 1
     6    6    7 2
     7    6    8 1
     8    6    9 1
     9    8   33 1
    10    9   10 1
    11   10   11 2
    12   10   12 1
    13   10   13 1
    14   12   34 1
    15   13   14 1
    16   14   15 1
    17   14   35 1
    18   14   36 1
    19   15   16 1
    20   15   17 1
    21   15   37 1
    22   16   21 1
    23   17   18 1
    24   17   19 1
    25   17   38 1
    26   18   39 1
    27   19   20 1
    28   19   21 1
    29   19   40 1
    30   20   41 1
    31   21   22 1
    32   21   42 1
    33   22   23 ar
    34   22   32 ar
    35   23   24 ar
    36   23   43 1
    37   24   25 ar
    38   25   26 ar
    39   25   32 ar
    40   26   27 2
    41   26   28 ar
    42   28   29 ar
    43   28   44 1
    44   29   30 1
    45   29   31 ar
    46   30   45 1
    47   30   46 1
    48   31   32 ar
@<TRIPOS>SUBSTRUCTURE
     1 GTP         1 GROUP 0 A     ****
@<TRIPOS>MOLECULE
[[[5-(2-amino-6-oxo-1~{H}-purin-9-yl)-3,4-dihydroxy-tetrahydrofuran-2-yl]methoxy-hydroxy-phosphoryl]oxy-hydroxy-phosphoryl] phosphate
   46    48     1     0     0
SMALL
USER_CHARGES

@<TRIPOS>ATOM
      1 PG          0.8768    7.7593    5.2101 P.3       1 GTP         1.3594
      2 O1G        -0.2077    8.0686    6.2369 O.co2     1 GTP        -0.8909
      3 O2G         1.3999    8.9803    4.4609 O.co2     1 GTP        -0.8909
      4 O3G         1.9674    6.8203    5.7149 O.co2     1 GTP        -0.8909
      5 O3B         0.0999    6.8756    4.0562 O.3       1 GTP        -0.7106
      6 PB         -0.6841    5.4647    4.1573 P.3       1 GTP         1.8242
      7 O1B         0.1517    4.3108    4.6269 O.2       1 GTP        -0.9138
      8 O2B        -1.9583    5.8105    5.0899 O.3       1 GTP        -0.7900
      9 O3A        -1.3235    5.2967    2.6835 O.3       1 GTP        -0.8086
     10 PA         -2.5519    4.3888    2.1545 P.3       1 GTP         1.7888
     11 O1A        -3.8664    4.6910    2.8135 O.2       1 GTP        -0.8200
     12 O2A        -2.5288    4.6111    0.5522 O.3       1 GTP        -0.8185
     13 O5'        -2.0396    2.8622    2.3120 O.3       1 GTP        -0.5679
     14 C5'        -0.8811    2.4285    1.6206 C.3       1 GTP         0.1794
     15 C4'        -0.1994    1.3333    2.4288 C.3       1 GTP         0.1313
     16 O4'        -1.1285    0.2356    2.5840 O.3       1 GTP        -0.3993
     17 C3'         1.0324    0.7610    1.7344 C.3       1 GTP         0.0846
     18 O3'         1.9175    0.2377    2.7247 O.3       1 GTP        -0.5819
     19 C2'         0.4468   -0.3802    0.9263 C.3       1 GTP         0.0567
     20 O2'         1.3993   -1.3703    0.5961 O.3       1 GTP        -0.5837
     21 C1'        -0.6159   -0.9100    1.8769 C.3       1 GTP         0.2547
     22 N9         -1.7127   -1.6108    1.2130 N.pl3     1 GTP        -0.2013
     23 C8         -1.7695   -2.9586    0.9546 C.ar      1 GTP         0.4384
     24 N7         -2.8846   -3.3047    0.3416 N.2       1 GTP        -0.6072
     25 C5         -3.5626   -2.1296    0.2052 C.ar      1 GTP         0.1855
     26 C6         -4.8477   -1.8989   -0.3942 C.ar      1 GTP         0.6502
     27 O6         -5.5373   -2.7819   -0.8881 O.2       1 GTP        -0.6193
     28 N1         -5.1895   -0.5407   -0.3318 N.pl3     1 GTP        -0.5097
     29 C2         -4.3899    0.4774    0.2398 C.ar      1 GTP         0.6454
     30 N2         -4.9233    1.7390    0.1898 N.pl3     1 GTP        -0.8839
     31 N3         -3.2159    0.2369    0.7822 N.2       1 GTP        -0.6390
     32 C4         -2.8678   -1.0679    0.7322 C.ar      1 GTP         0.0961
     33 HOB2       -1.8073    6.0567    6.0273 H         1 GTP         0.4357
     34 HOA2       -3.1459    4.0937   -0.0076 H         1 GTP         0.4835
     35 H5'        -1.1760    2.0498    0.6365 H         1 GTP         0.0448
     36 H5''       -0.2072    3.2811    1.4873 H         1 GTP         0.0448
     37 H4'         0.0402    1.7079    3.4342 H         1 GTP         0.1246
     38 H3'         1.5907    1.4859    1.1353 H         1 GTP         0.0764
     39 HO3'        2.6839   -0.1150    2.2479 H         1 GTP         0.4062
     40 H2'        -0.0017    0.0018    0.0005 H         1 GTP         0.0706
     41 HO2'        2.0953   -0.9375    0.0709 H         1 GTP         0.4064
     42 H1'        -0.1998   -1.6319    2.6178 H         1 GTP         0.1053
     43 H8         -0.9713   -3.6323    1.2352 H         1 GTP         0.0995
     44 HN1        -6.0831   -0.2651   -0.7290 H         1 GTP         0.3262
     45 HN21       -4.3984    2.4878    0.5788 H         1 GTP         0.4043
     46 HN22       -5.8145    1.8572   -0.2335 H         1 GTP         0.4043
@<TRIPOS>BOND
     1    1    2 2
     2    1    3 1
     3    1    4 1
     4    1    5 1
     5    5    6 1
     6    6    7 2
     7    6    8 1
     8    6    9 1
     9    8   33 1
    10    9   10 1
    11   10   11 2
    12   10   12 1
    13   10   13 1
    14   12   34 1
    15   13   14 1
    16   14   15 1
    17   14   35 1
    18   14   36 1
    19   15   16 1
    20   15   17 1
    21   15   37 1
    22   16   21 1
    23   17   18 1
    24   17   19 1
    25   17   38 1
    26   18   39 1
    27   19   20 1
    28   19   21 1
    29   19   40 1
    30   20   41 1
    31   21   22 1
    32   21   42 1
    33   22   23 ar
    34   22   32 ar
    35   23   24 ar
    36   23   43 1
    37   24   25 ar
    38   25   26 ar
    39   25   32 ar
    40   26   27 2
    41   26   28 ar
    42   28   29 ar
    43   28   44 1
    44   29   30 1
    45   29   31 ar
    46   30   45 1
    47   30   46 1
    48   31   32 ar
@<TRIPOS>SUBSTRUCTURE
     1 GTP         1 GROUP 0 A     ****
@<TRIPOS>MOLECULE
[[[5-(2-amino-6-oxo-1~{H}-purin-9-yl)-3,4-dihydroxy-tetrahydrofuran-2-yl]methoxy-hydroxy-phosphoryl]oxy-hydroxy-phosphoryl] phosphate
   46    48     1     0     0
SMALL
USER_CHARGES

@<TRIPOS>ATOM
      1 PG         -2.0649    6.2801    6.6550 P.3       1 GTP         1.3594
      2 O1G        -1.7986    4.9176    7.2863 O.co2     1 GTP        -0.8909
      3 O2G        -3.4920    6.7876    6.8333 O.co2     1 GTP        -0.8909
      4 O3G        -0.9896    7.3233    6.9405 O.co2     1 GTP        -0.8909
      5 O3B        -1.9288    6.0081    5.0353 O.3       1 GTP        -0.7106
      6 PB         -0.6841    5.4647    4.1573 P.3       1 GTP         1.8242
      7 O1B         0.5527    6.3110    4.2249 O.2       1 GTP        -0.9138
      8 O2B        -0.5003    3.9428    4.6703 O.3       1 GTP        -0.7900
      9 O3A        -1.3235    5.2967    2.6835 O.3       1 GTP        -0.8086
     10 PA         -2.5519    4.3888    2.1545 P.3       1 GTP         1.7888
     11 O1A        -3.8664    4.6910    2.8135 O.2       1 GTP        -0.8200
     12 O2A        -2.5288    4.6111    0.5522 O.3       1 GTP        -0.8185
     13 O5'        -2.0396    2.8622    2.3120 O.3       1 GTP        -0.5679
     14 C5'        -0.8811    2.4285    1.6206 C.3       1 GTP         0.1794
     15 C4'        -0.1994    1.3333    2.4288 C.3       1 GTP         0.1313
     16 O4'        -1.1285    0.2356    2.5840 O.3       1 GTP        -0.3993
     17 C3'         1.0324    0.7610    1.7344 C.3       1 GTP         0.0846
     18 O3'         1.9175    0.2377    2.7247 O.3       1 GTP        -0.5819
     19 C2'         0.4468   -0.3802    0.9263 C.3       1 GTP         0.0567
     20 O2'         1.3993   -1.3703    0.5961 O.3       1 GTP        -0.5837
     21 C1'        -0.6159   -0.9100    1.8769 C.3       1 GTP         0.2547
     22 N9         -1.7127   -1.6108    1.2130 N.pl3     1 GTP        -0.2013
     23 C8         -1.7695   -2.9586    0.9546 C.ar      1 GTP         0.4384
     24 N7         -2.8846   -3.3047    0.3416 N.2       1 GTP        -0.6072
     25 C5         -3.5626   -2.1296    0.2052 C.ar      1 GTP         0.1855
     26 C6         -4.8477   -1.8989   -0.3942 C.ar      1 GTP         0.6502
     27 O6         -5.5373   -2.7819   -0.8881 O.2       1 GTP        -0.6193
     28 N1         -5.1895   -0.5407   -0.3318 N.pl3     1 GTP        -0.5097
     29 C2         -4.3899    0.4774    0.2398 C.ar      1 GTP         0.6454
     30 N2         -4.9233    1.7390    0.1898 N.pl3     1 GTP        -0.8839
     31 N3         -3.2159    0.2369    0.7822 N.2       1 GTP        -0.6390
     32 C4         -2.8678   -1.0679    0.7322 C.ar      1 GTP         0.0961
     33 HOB2       -0.2148    3.7851    5.5953 H         1 GTP         0.4357
     34 HOA2       -3.1459    4.0937   -0.0076 H         1 GTP         0.4835
     35 H5'        -1.1760    2.0498    0.6365 H         1 GTP         0.0448
     36 H5''       -0.2072    3.2811    1.4873 H         1 GTP         0.0448
     37 H4'         0.0402    1.7079    3.4342 H         1 GTP         0.1246
     38 H3'         1.5907    1.4859    1.1353 H         1 GTP         0.0764
     39 HO3'        2.6839   -0.1150    2.2479 H         1 GTP         0.4062
     40 H2'        -0.0017    0.0018    0.0005 H         1 GTP         0.0706
     41 HO2'        2.0953   -0.9375    0.0709 H         1 GTP         0.4064
     42 H1'        -0.1998   -1.6319    2.6178 H         1 GTP         0.1053
     43 H8         -0.9713   -3.6323    1.2352 H         1 GTP         0.0995
     44 HN1        -6.0831   -0.2651   -0.7290 H         1 GTP         0.3262
     45 HN21       -4.3984    2.4878    0.5788 H         1 GTP         0.4043
     46 HN22       -5.8145    1.8572   -0.2335 H         1 GTP         0.4043
@<TRIPOS>BOND
     1    1    2 2
     2    1    3 1
     3    1    4 1
     4    1    5 1
     5    5    6 1
     6    6    7 2
     7    6    8 1
     8    6    9 1
     9    8   33 1
    10    9   10 1
    11   10   11 2
    12   10   12 1
    13   10   13 1
    14   12   34 1
    15   13   14 1
    16   14   15 1
    17   14   35 1
    18   14   36 1
    19   15   16 1
    20   15   17 1
    21   15   37 1
    22   16   21 1
    23   17   18 1
    24   17   19 1
    25   17   38 1
    26   18   39 1
    27   19   20 1
    28   19   21 1
    29   19   40 1
    30   20   41 1
    31   21   22 1
    32   21   42 1
    33   22   23 ar
    34   22   32 ar
    35   23   24 ar
    36   23   43 1
    37   24   25 ar
    38   25   26 ar
    39   25   32 ar
    40   26   27 2
    41   26   28 ar
    42   28   29 ar
    43   28   44 1
    44   29   30 1
    45   29   31 ar
    46   30   45 1
    47   30   46 1
    48   31   32 ar
@<TRIPOS>SUBSTRUCTURE
     1 GTP         1 GROUP 0 A     ****
@<TRIPOS>MOLECULE
[[[5-(2-amino-6-oxo-1~{H}-purin-9-yl)-3,4-dihydroxy-tetrahydrofuran-2-yl]methoxy-hydroxy-phosphoryl]oxy-hydroxy-phosphoryl] phosphate
   46    48     1     0     0
SMALL
USER_CHARGES

@<TRIPOS>ATOM
      1 PG         -2.7064    8.9670    4.0639 P.3       1 GTP         1.3594
      2 O1G        -1.5136    9.3543    4.9318 O.co2     1 GTP        -0.8909
      3 O2G        -4.0147    8.8030    4.8303 O.co2     1 GTP        -0.8909
      4 O3G        -2.8324    9.7750    2.7765 O.co2     1 GTP        -0.8909
      5 O3B        -2.3478    7.4462    3.5403 O.3       1 GTP        -0.7106
      6 PB         -1.1013    6.8965    2.6687 P.3       1 GTP         1.8242
      7 O1B        -0.9644    7.5104    1.3067 O.2       1 GTP        -0.9138
      8 O2B         0.1659    7.1157    3.6482 O.3       1 GTP        -0.7900
      9 O3A        -1.3235    5.2967    2.6835 O.3       1 GTP        -0.8086
     10 PA         -2.5519    4.3888    2.1545 P.3       1 GTP         1.7888
     11 O1A        -3.8664    4.6910    2.8135 O.2       1 GTP        -0.8200
     12 O2A        -2.5288    4.6111    0.5522 O.3       1 GTP        -0.8185
     13 O5'        -2.0396    2.8622    2.3120 O.3       1 GTP        -0.5679
     14 C5'        -0.8811    2.4285    1.6206 C.3       1 GTP         0.1794
     15 C4'        -0.1994    1.3333    2.4288 C.3       1 GTP         0.1313
     16 O4'        -1.1285    0.2356    2.5840 O.3       1 GTP        -0.3993
     17 C3'         1.0324    0.7610    1.7344 C.3       1 GTP         0.0846
     18 O3'         1.9175    0.2377    2.7247 O.3       1 GTP        -0.5819
     19 C2'         0.4468   -0.3802    0.9263 C.3       1 GTP         0.0567
     20 O2'         1.3993   -1.3703    0.5961 O.3       1 GTP        -0.5837
     21 C1'        -0.6159   -0.9100    1.8769 C.3       1 GTP         0.2547
     22 N9         -1.7127   -1.6108    1.2130 N.pl3     1 GTP        -0.2013
     23 C8         -1.7695   -2.9586    0.9546 C.ar      1 GTP         0.4384
     24 N7         -2.8846   -3.3047    0.3416 N.2       1 GTP        -0.6072
     25 C5         -3.5626   -2.1296    0.2052 C.ar      1 GTP         0.1855
     26 C6         -4.8477   -1.8989   -0.3942 C.ar      1 GTP         0.6502
     27 O6         -5.5373   -2.7819   -0.8881 O.2       1 GTP        -0.6193
     28 N1         -5.1895   -0.5407   -0.3318 N.pl3     1 GTP        -0.5097
     29 C2         -4.3899    0.4774    0.2398 C.ar      1 GTP         0.6454
     30 N2         -4.9233    1.7390    0.1898 N.pl3     1 GTP        -0.8839
     31 N3         -3.2159    0.2369    0.7822 N.2       1 GTP        -0.6390
     32 C4         -2.8678   -1.0679    0.7322 C.ar      1 GTP         0.0961
     33 HOB2        0.4337    8.0304    3.8801 H         1 GTP         0.4357
     34 HOA2       -2.7205    5.5039    0.1942 H         1 GTP         0.4835
     35 H5'        -1.1760    2.0498    0.6365 H         1 GTP         0.0448
     36 H5''       -0.2072    3.2811    1.4873 H         1 GTP         0.0448
     37 H4'         0.0402    1.7079    3.4342 H         1 GTP         0.1246
     38 H3'         1.5907    1.4859    1.1353 H         1 GTP         0.0764
     39 HO3'        2.6839   -0.1150    2.2479 H         1 GTP         0.4062
     40 H2'        -0.0017    0.0018    0.0005 H         1 GTP         0.0706
     41 HO2'        2.0953   -0.9375    0.0709 H         1 GTP         0.4064
     42 H1'        -0.1998   -1.6319    2.6178 H         1 GTP         0.1053
     43 H8         -0.9713   -3.6323    1.2352 H         1 GTP         0.0995
     44 HN1        -6.0831   -0.2651   -0.7290 H         1 GTP         0.3262
     45 HN21       -4.3984    2.4878    0.5788 H         1 GTP         0.4043
     46 HN22       -5.8145    1.8572   -0.2335 H         1 GTP         0.4043
@<TRIPOS>BOND
     1    1    2 2
     2    1    3 1
     3    1    4 1
     4    1    5 1
     5    5    6 1
     6    6    7 2
     7    6    8 1
     8    6    9 1
     9    8   33 1
    10    9   10 1
    11   10   11 2
    12   10   12 1
    13   10   13 1
    14   12   34 1
    15   13   14 1
    16   14   15 1
    17   14   35 1
    18   14   36 1
    19   15   16 1
    20   15   17 1
    21   15   37 1
    22   16   21 1
    23   17   18 1
    24   17   19 1
    25   17   38 1
    26   18   39 1
    27   19   20 1
    28   19   21 1
    29   19   40 1
    30   20   41 1
    31   21   22 1
    32   21   42 1
    33   22   23 ar
    34   22   32 ar
    35   23   24 ar
    36   23   43 1
    37   24   25 ar
    38   25   26 ar
    39   25   32 ar
    40   26   27 2
    41   26   28 ar
    42   28   29 ar
    43   28   44 1
    44   29   30 1
    45   29   31 ar
    46   30   45 1
    47   30   46 1
    48   31   32 ar
@<TRIPOS>SUBSTRUCTURE
     1 GTP         1 GROUP 0 A     ****
@<TRIPOS>MOLECULE
[[[5-(2-amino-6-oxo-1~{H}-purin-9-yl)-3,4-dihydroxy-tetrahydrofuran-2-yl]methoxy-hydroxy-phosphoryl]oxy-hydroxy-phosphoryl] phosphate
   46    48     1     0     0
SMALL
USER_CHARGES

@<TRIPOS>ATOM
      1 PG         -0.3750    3.5785   -4.9226 P.3       1 GTP         1.3594
      2 O1G         0.8216    4.4840   -5.1949 O.co2     1 GTP        -0.8909
      3 O2G        -1.6423    3.9674   -5.6766 O.co2     1 GTP        -0.8909
      4 O3G        -0.0545    2.0879   -4.9647 O.co2     1 GTP        -0.8909
      5 O3B        -0.7408    3.8576   -3.3402 O.3       1 GTP        -0.7106
      6 PB          0.1452    3.6609   -2.0015 P.3       1 GTP         1.8242
      7 O1B         0.6115    2.2566   -1.7543 O.2       1 GTP        -0.9138
      8 O2B         1.3246    4.7535   -2.1693 O.3       1 GTP        -0.7900
      9 O3A        -0.7948    4.2874   -0.8470 O.3       1 GTP        -0.8086
     10 PA         -0.4418    4.8275    0.6351 P.3       1 GTP         1.7888
     11 O1A         0.5363    5.9662    0.6563 O.2       1 GTP        -0.8200
     12 O2A        -1.8895    5.1640    1.2739 O.3       1 GTP        -0.8185
     13 O5'         0.0170    3.5129    1.4592 O.3       1 GTP        -0.5679
     14 C5'        -0.8811    2.4285    1.6206 C.3       1 GTP         0.1794
     15 C4'        -0.1994    1.3333    2.4288 C.3       1 GTP         0.1313
     16 O4'        -1.1285    0.2356    2.5840 O.3       1 GTP        -0.3993
     17 C3'         1.0324    0.7610    1.7344 C.3       1 GTP         0.0846
     18 O3'         1.9175    0.2377    2.7247 O.3       1 GTP        -0.5819
     19 C2'         0.4468   -0.3802    0.9263 C.3       1 GTP         0.0567
     20 O2'         1.3993   -1.3703    0.5961 O.3       1 GTP        -0.5837
     21 C1'        -0.6159   -0.9100    1.8769 C.3       1 GTP         0.2547
     22 N9         -1.7127   -1.6108    1.2130 N.pl3     1 GTP        -0.2013
     23 C8         -1.7695   -2.9586    0.9546 C.ar      1 GTP         0.4384
     24 N7         -2.8846   -3.3047    0.3416 N.2       1 GTP        -0.6072
     25 C5         -3.5626   -2.1296    0.2052 C.ar      1 GTP         0.1855
     26 C6         -4.8477   -1.8989   -0.3942 C.ar      1 GTP         0.6502
     27 O6         -5.5373   -2.7819   -0.8881 O.2       1 GTP        -0.6193
     28 N1         -5.1895   -0.5407   -0.3318 N.pl3     1 GTP        -0.5097
     29 C2         -4.3899    0.4774    0.2398 C.ar      1 GTP         0.6454
     30 N2         -4.9233    1.7390    0.1898 N.pl3     1 GTP        -0.8839
     31 N3         -3.2159    0.2369    0.7822 N.2       1 GTP        -0.6390
     32 C4         -2.8678   -1.0679    0.7322 C.ar      1 GTP         0.0961
     33 HOB2        1.9526    4.8914   -1.4286 H         1 GTP         0.4357
     34 HOA2       -1.9407    5.4416    2.2132 H         1 GTP         0.4835
     35 H5'        -1.7776    2.7841    2.1389 H         1 GTP         0.0448
     36 H5''       -1.1659    2.0533    0.6322 H         1 GTP         0.0448
     37 H4'         0.0402    1.7079    3.4342 H         1 GTP         0.1246
     38 H3'         1.5907    1.4859    1.1353 H         1 GTP         0.0764
     39 HO3'        2.6839   -0.1150    2.2479 H         1 GTP         0.4062
     40 H2'        -0.0017    0.0018    0.0005 H         1 GTP         0.0706
     41 HO2'        2.0953   -0.9375    0.0709 H         1 GTP         0.4064
     42 H1'        -0.1998   -1.6319    2.6178 H         1 GTP         0.1053
     43 H8         -0.9713   -3.6323    1.2352 H         1 GTP         0.0995
     44 HN1        -6.0831   -0.2651   -0.7290 H         1 GTP         0.3262
     45 HN21       -4.3984    2.4878    0.5788 H         1 GTP         0.4043
     46 HN22       -5.8145    1.8572   -0.2335 H         1 GTP         0.4043
@<TRIPOS>BOND
     1    1    2 2
     2    1    3 1
     3    1    4 1
     4    1    5 1
     5    5    6 1
     6    6    7 2
     7    6    8 1
     8    6    9 1
     9    8   33 1
    10    9   10 1
    11   10   11 2
    12   10   12 1
    13   10   13 1
    14   12   34 1
    15   13   14 1
    16   14   15 1
    17   14   35 1
    18   14   36 1
    19   15   16 1
    20   15   17 1
    21   15   37 1
    22   16   21 1
    23   17   18 1
    24   17   19 1
    25   17   38 1
    26   18   39 1
    27   19   20 1
    28   19   21 1
    29   19   40 1
    30   20   41 1
    31   21   22 1
    32   21   42 1
    33   22   23 ar
    34   22   32 ar
    35   23   24 ar
    36   23   43 1
    37   24   25 ar
    38   25   26 ar
    39   25   32 ar
    40   26   27 2
    41   26   28 ar
    42   28   29 ar
    43   28   44 1
    44   29   30 1
    45   29   31 ar
    46   30   45 1
    47   30   46 1
    48   31   32 ar
@<TRIPOS>SUBSTRUCTURE
     1 GTP         1 GROUP 0 A     ****
@<TRIPOS>MOLECULE
[[[5-(2-amino-6-oxo-1~{H}-purin-9-yl)-3,4-dihydroxy-tetrahydrofuran-2-yl]methoxy-hydroxy-phosphoryl]oxy-hydroxy-phosphoryl] phosphate
   46    48     1     0     0
SMALL
USER_CHARGES

@<TRIPOS>ATOM
      1 PG          2.5344    4.8884   -3.2646 P.3       1 GTP         1.3594
      2 O1G         3.4367    3.7991   -2.6940 O.co2     1 GTP        -0.8909
      3 O2G         3.0776    6.3041   -3.1016 O.co2     1 GTP        -0.8909
      4 O3G         1.9884    4.5840   -4.6558 O.co2     1 GTP        -0.8909
      5 O3B         1.1981    4.8515   -2.3009 O.3       1 GTP        -0.7106
      6 PB          0.1452    3.6609   -2.0015 P.3       1 GTP         1.8242
      7 O1B        -0.5820    3.1439   -3.2076 O.2       1 GTP        -0.9138
      8 O2B         1.0349    2.5630   -1.2166 O.3       1 GTP        -0.7900
      9 O3A        -0.7948    4.2874   -0.8470 O.3       1 GTP        -0.8086
     10 PA         -0.4418    4.8275    0.6351 P.3       1 GTP         1.7888
     11 O1A         0.5363    5.9662    0.6563 O.2       1 GTP        -0.8200
     12 O2A        -1.8895    5.1640    1.2739 O.3       1 GTP        -0.8185
     13 O5'         0.0170    3.5129    1.4592 O.3       1 GTP        -0.5679
     14 C5'        -0.8811    2.4285    1.6206 C.3       1 GTP         0.1794
     15 C4'        -0.1994    1.3333    2.4288 C.3       1 GTP         0.1313
     16 O4'        -1.1285    0.2356    2.5840 O.3       1 GTP        -0.3993
     17 C3'         1.0324    0.7610    1.7344 C.3       1 GTP         0.0846
     18 O3'         1.9175    0.2377    2.7247 O.3       1 GTP        -0.5819
     19 C2'         0.4468   -0.3802    0.9263 C.3       1 GTP         0.0567
     20 O2'         1.3993   -1.3703    0.5961 O.3       1 GTP        -0.5837
     21 C1'        -0.6159   -0.9100    1.8769 C.3       1 GTP         0.2547
     22 N9         -1.7127   -1.6108    1.2130 N.pl3     1 GTP        -0.2013
     23 C8         -1.7695   -2.9586    0.9546 C.ar      1 GTP         0.4384
     24 N7         -2.8846   -3.3047    0.3416 N.2       1 GTP        -0.6072
     25 C5         -3.5626   -2.1296    0.2052 C.ar      1 GTP         0.1855
     26 C6         -4.8477   -1.8989   -0.3942 C.ar      1 GTP         0.6502
     27 O6         -5.5373   -2.7819   -0.8881 O.2       1 GTP        -0.6193
     28 N1         -5.1895   -0.5407   -0.3318 N.pl3     1 GTP        -0.5097
     29 C2         -4.3899    0.4774    0.2398 C.ar      1 GTP         0.6454
     30 N2         -4.9233    1.7390    0.1898 N.pl3     1 GTP        -0.8839
     31 N3         -3.2159    0.2369    0.7822 N.2       1 GTP        -0.6390
     32 C4         -2.8678   -1.0679    0.7322 C.ar      1 GTP         0.0961
     33 HOB2        1.7620    2.1113   -1.6954 H         1 GTP         0.4357
     34 HOA2       -1.9407    5.4416    2.2132 H         1 GTP         0.4835
     35 H5'        -1.7776    2.7841    2.1389 H         1 GTP         0.0448
     36 H5''       -1.1659    2.0533    0.6322 H         1 GTP         0.0448
     37 H4'         0.0402    1.7079    3.4342 H         1 GTP         0.1246
     38 H3'         1.5907    1.4859    1.1353 H         1 GTP         0.0764
     39 HO3'        2.6839   -0.1150    2.2479 H         1 GTP         0.4062
     40 H2'        -0.0017    0.0018    0.0005 H         1 GTP         0.0706
     41 HO2'        2.0953   -0.9375    0.0709 H         1 GTP         0.4064
     42 H1'        -0.1998   -1.6319    2.6178 H         1 GTP         0.1053
     43 H8         -0.9713   -3.6323    1.2352 H         1 GTP         0.0995
     44 HN1        -6.0831   -0.2651   -0.7290 H         1 GTP         0.3262
     45 HN21       -4.3984    2.4878    0.5788 H         1 GTP         0.4043
     46 HN22       -5.8145    1.8572   -0.2335 H         1 GTP         0.4043
@<TRIPOS>BOND
     1    1    2 2
     2    1    3 1
     3    1    4 1
     4    1    5 1
     5    5    6 1
     6    6    7 2
     7    6    8 1
     8    6    9 1
     9    8   33 1
    10    9   10 1
    11   10   11 2
    12   10   12 1
    13   10   13 1
    14   12   34 1
    15   13   14 1
    16   14   15 1
    17   14   35 1
    18   14   36 1
    19   15   16 1
    20   15   17 1
    21   15   37 1
    22   16   21 1
    23   17   18 1
    24   17   19 1
    25   17   38 1
    26   18   39 1
    27   19   20 1
    28   19   21 1
    29   19   40 1
    30   20   41 1
    31   21   22 1
    32   21   42 1
    33   22   23 ar
    34   22   32 ar
    35   23   24 ar
    36   23   43 1
    37   24   25 ar
    38   25   26 ar
    39   25   32 ar
    40   26   27 2
    41   26   28 ar
    42   28   29 ar
    43   28   44 1
    44   29   30 1
    45   29   31 ar
    46   30   45 1
    47   30   46 1
    48   31   32 ar
@<TRIPOS>SUBSTRUCTURE
     1 GTP         1 GROUP 0 A     ****
@<TRIPOS>MOLECULE
[[[5-(2-amino-6-oxo-1~{H}-purin-9-yl)-3,4-dihydroxy-tetrahydrofuran-2-yl]methoxy-hydroxy-phosphoryl]oxy-hydroxy-phosphoryl] phosphate
   46    48     1     0     0
SMALL
USER_CHARGES

@<TRIPOS>ATOM
      1 PG         -0.0330    6.9191   -2.9169 P.3       1 GTP         1.3594
      2 O1G        -0.6646    6.5540   -4.2563 O.co2     1 GTP        -0.8909
      3 O2G         1.0866    7.9504   -3.0101 O.co2     1 GTP        -0.8909
      4 O3G        -1.0393    7.1870   -1.8026 O.co2     1 GTP        -0.8909
      5 O3B         0.7255    5.5367   -2.4380 O.3       1 GTP        -0.7106
      6 PB          0.1391    4.0583   -2.1449 P.3       1 GTP         1.8242
      7 O1B        -0.5389    3.4055   -3.3132 O.2       1 GTP        -0.9138
      8 O2B         1.4163    3.2580   -1.5607 O.3       1 GTP        -0.7900
      9 O3A        -0.7948    4.2874   -0.8470 O.3       1 GTP        -0.8086
     10 PA         -0.4418    4.8275    0.6351 P.3       1 GTP         1.7888
     11 O1A         0.5363    5.9662    0.6563 O.2       1 GTP        -0.8200
     12 O2A        -1.8895    5.1640    1.2739 O.3       1 GTP        -0.8185
     13 O5'         0.0170    3.5129    1.4592 O.3       1 GTP        -0.5679
     14 C5'        -0.8811    2.4285    1.6206 C.3       1 GTP         0.1794
     15 C4'        -0.1994    1.3333    2.4288 C.3       1 GTP         0.1313
     16 O4'        -1.1285    0.2356    2.5840 O.3       1 GTP        -0.3993
     17 C3'         1.0324    0.7610    1.7344 C.3       1 GTP         0.0846
     18 O3'         1.9175    0.2377    2.7247 O.3       1 GTP        -0.5819
     19 C2'         0.4468   -0.3802    0.9263 C.3       1 GTP         0.0567
     20 O2'         1.3993   -1.3703    0.5961 O.3       1 GTP        -0.5837
     21 C1'        -0.6159   -0.9100    1.8769 C.3       1 GTP         0.2547
     22 N9         -1.7127   -1.6108    1.2130 N.pl3     1 GTP        -0.2013
     23 C8         -1.7695   -2.9586    0.9546 C.ar      1 GTP         0.4384
     24 N7         -2.8846   -3.3047    0.3416 N.2       1 GTP        -0.6072
     25 C5         -3.5626   -2.1296    0.2052 C.ar      1 GTP         0.1855
     26 C6         -4.8477   -1.8989   -0.3942 C.ar      1 GTP         0.6502
     27 O6         -5.5373   -2.7819   -0.8881 O.2       1 GTP        -0.6193
     28 N1         -5.1895   -0.5407   -0.3318 N.pl3     1 GTP        -0.5097
     29 C2         -4.3899    0.4774    0.2398 C.ar      1 GTP         0.6454
     30 N2         -4.9233    1.7390    0.1898 N.pl3     1 GTP        -0.8839
     31 N3         -3.2159    0.2369    0.7822 N.2       1 GTP        -0.6390
     32 C4         -2.8678   -1.0679    0.7322 C.ar      1 GTP         0.0961
     33 HOB2        1.2901    2.3469   -1.2200 H         1 GTP         0.4357
     34 HOA2       -1.9407    5.4416    2.2132 H         1 GTP         0.4835
     35 H5'        -1.7776    2.7841    2.1389 H         1 GTP         0.0448
     36 H5''       -1.1659    2.0533    0.6322 H         1 GTP         0.0448
     37 H4'         0.0402    1.7079    3.4342 H         1 GTP         0.1246
     38 H3'         1.5907    1.4859    1.1353 H         1 GTP         0.0764
     39 HO3'        2.6839   -0.1150    2.2479 H         1 GTP         0.4062
     40 H2'        -0.0017    0.0018    0.0005 H         1 GTP         0.0706
     41 HO2'        2.0953   -0.9375    0.0709 H         1 GTP         0.4064
     42 H1'        -0.1998   -1.6319    2.6178 H         1 GTP         0.1053
     43 H8         -0.9713   -3.6323    1.2352 H         1 GTP         0.0995
     44 HN1        -6.0831   -0.2651   -0.7290 H         1 GTP         0.3262
     45 HN21       -4.3984    2.4878    0.5788 H         1 GTP         0.4043
     46 HN22       -5.8145    1.8572   -0.2335 H         1 GTP         0.4043
@<TRIPOS>BOND
     1    1    2 2
     2    1    3 1
     3    1    4 1
     4    1    5 1
     5    5    6 1
     6    6    7 2
     7    6    8 1
     8    6    9 1
     9    8   33 1
    10    9   10 1
    11   10   11 2
    12   10   12 1
    13   10   13 1
    14   12   34 1
    15   13   14 1
    16   14   15 1
    17   14   35 1
    18   14   36 1
    19   15   16 1
    20   15   17 1
    21   15   37 1
    22   16   21 1
    23   17   18 1
    24   17   19 1
    25   17   38 1
    26   18   39 1
    27   19   20 1
    28   19   21 1
    29   19   40 1
    30   20   41 1
    31   21   22 1
    32   21   42 1
    33   22   23 ar
    34   22   32 ar
    35   23   24 ar
    36   23   43 1
    37   24   25 ar
    38   25   26 ar
    39   25   32 ar
    40   26   27 2
    41   26   28 ar
    42   28   29 ar
    43   28   44 1
    44   29   30 1
    45   29   31 ar
    46   30   45 1
    47   30   46 1
    48   31   32 ar
@<TRIPOS>SUBSTRUCTURE
     1 GTP         1 GROUP 0 A     ****
@<TRIPOS>MOLECULE
[[[5-(2-amino-6-oxo-1~{H}-purin-9-yl)-3,4-dihydroxy-tetrahydrofuran-2-yl]methoxy-hydroxy-phosphoryl]oxy-hydroxy-phosphoryl] phosphate
   46    48     1     0     0
SMALL
USER_CHARGES

@<TRIPOS>ATOM
      1 PG         -0.1283    8.2099   -1.0290 P.3       1 GTP         1.3594
      2 O1G        -0.5629    7.8272   -2.4399 O.co2     1 GTP        -0.8909
      3 O2G         1.3816    8.2083   -0.8140 O.co2     1 GTP        -0.8909
      4 O3G        -0.8392    9.4360   -0.4658 O.co2     1 GTP        -0.8909
      5 O3B        -0.6747    6.9718   -0.0885 O.3       1 GTP        -0.7106
      6 PB         -2.1731    6.4150    0.1572 P.3       1 GTP         1.8242
      7 O1B        -3.1309    7.4149    0.7347 O.2       1 GTP        -0.9138
      8 O2B        -2.5928    5.8204   -1.2862 O.3       1 GTP        -0.7900
      9 O3A        -1.9288    5.0963    1.0575 O.3       1 GTP        -0.8086
     10 PA         -2.9684    4.0281    1.6828 P.3       1 GTP         1.7888
     11 O1A        -3.9680    4.6267    2.6294 O.2       1 GTP        -0.8200
     12 O2A        -3.6097    3.3123    0.3815 O.3       1 GTP        -0.8185
     13 O5'        -2.0396    2.8622    2.3120 O.3       1 GTP        -0.5679
     14 C5'        -0.8811    2.4285    1.6206 C.3       1 GTP         0.1794
     15 C4'        -0.1994    1.3333    2.4288 C.3       1 GTP         0.1313
     16 O4'        -1.1285    0.2356    2.5840 O.3       1 GTP        -0.3993
     17 C3'         1.0324    0.7610    1.7344 C.3       1 GTP         0.0846
     18 O3'         1.9175    0.2377    2.7247 O.3       1 GTP        -0.5819
     19 C2'         0.4468   -0.3802    0.9263 C.3       1 GTP         0.0567
     20 O2'         1.3993   -1.3703    0.5961 O.3       1 GTP        -0.5837
     21 C1'        -0.6159   -0.9100    1.8769 C.3       1 GTP         0.2547
     22 N9         -1.7127   -1.6108    1.2130 N.pl3     1 GTP        -0.2013
     23 C8         -2.8667   -1.0365    0.7385 C.ar      1 GTP         0.4384
     24 N7         -3.6757   -1.9196    0.1868 N.2       1 GTP        -0.6072
     25 C5         -3.0088   -3.1018    0.3164 C.ar      1 GTP         0.1855
     26 C6         -3.4148   -4.4130   -0.1079 C.ar      1 GTP         0.6502
     27 O6         -4.4753   -4.6480   -0.6732 O.2       1 GTP        -0.6193
     28 N1         -2.4377   -5.3653    0.2144 N.pl3     1 GTP        -0.5097
     29 C2         -1.2132   -5.0902    0.8680 C.ar      1 GTP         0.6454
     30 N2         -0.4066   -6.1772    1.0834 N.pl3     1 GTP        -0.8839
     31 N3         -0.8672   -3.8786    1.2457 N.2       1 GTP        -0.6390
     32 C4         -1.7966   -2.9451    0.9439 C.ar      1 GTP         0.0961
     33 HOB2       -2.6984    6.4376   -2.0412 H         1 GTP         0.4357
     34 HOA2       -4.2256    2.5598    0.5090 H         1 GTP         0.4835
     35 H5'        -1.1760    2.0498    0.6365 H         1 GTP         0.0448
     36 H5''       -0.2072    3.2811    1.4873 H         1 GTP         0.0448
     37 H4'         0.0402    1.7079    3.4342 H         1 GTP         0.1246
     38 H3'         1.5907    1.4859    1.1353 H         1 GTP         0.0764
     39 HO3'        2.6839   -0.1150    2.2479 H         1 GTP         0.4062
     40 H2'        -0.0017    0.0018    0.0005 H         1 GTP         0.0706
     41 HO2'        2.0953   -0.9375    0.0709 H         1 GTP         0.4064
     42 H1'        -0.1998   -1.6319    2.6178 H         1 GTP         0.1053
     43 H8         -3.0589    0.0244    0.8247 H         1 GTP         0.0995
     44 HN1        -2.6238   -6.3307   -0.0420 H         1 GTP         0.3262
     45 HN21        0.4646   -6.0341    1.5394 H         1 GTP         0.4043
     46 HN22       -0.7235   -7.0673    0.7753 H         1 GTP         0.4043
@<TRIPOS>BOND
     1    1    2 2
     2    1    3 1
     3    1    4 1
     4    1    5 1
     5    5    6 1
     6    6    7 2
     7    6    8 1
     8    6    9 1
     9    8   33 1
    10    9   10 1
    11   10   11 2
    12   10   12 1
    13   10   13 1
    14   12   34 1
    15   13   14 1
    16   14   15 1
    17   14   35 1
    18   14   36 1
    19   15   16 1
    20   15   17 1
    21   15   37 1
    22   16   21 1
    23   17   18 1
    24   17   19 1
    25   17   38 1
    26   18   39 1
    27   19   20 1
    28   19   21 1
    29   19   40 1
    30   20   41 1
    31   21   22 1
    32   21   42 1
    33   22   23 ar
    34   22   32 ar
    35   23   24 ar
    36   23   43 1
    37   24   25 ar
    38   25   26 ar
    39   25   32 ar
    40   26   27 2
    41   26   28 ar
    42   28   29 ar
    43   28   44 1
    44   29   30 1
    45   29   31 ar
    46   30   45 1
    47   30   46 1
    48   31   32 ar
@<TRIPOS>SUBSTRUCTURE
     1 GTP         1 GROUP 0 A     ****
@<TRIPOS>MOLECULE
[[[5-(2-amino-6-oxo-1~{H}-purin-9-yl)-3,4-dihydroxy-tetrahydrofuran-2-yl]methoxy-hydroxy-phosphoryl]oxy-hydroxy-phosphoryl] phosphate
   46    48     1     0     0
SMALL
USER_CHARGES

@<TRIPOS>ATOM
      1 PG         -4.5257    4.4189   -2.7681 P.3       1 GTP         1.3594
      2 O1G        -4.0154    5.5376   -3.6704 O.co2     1 GTP        -0.8909
      3 O2G        -5.9661    4.5965   -2.2996 O.co2     1 GTP        -0.8909
      4 O3G        -4.1982    3.0148   -3.2656 O.co2     1 GTP        -0.8909
      5 O3B        -3.6290    4.5682   -1.3935 O.3       1 GTP        -0.7106
      6 PB         -2.0303    4.4882   -1.1623 P.3       1 GTP         1.8242
      7 O1B        -1.4004    3.1849   -1.5563 O.2       1 GTP        -0.9138
      8 O2B        -1.4726    5.7838   -1.9520 O.3       1 GTP        -0.7900
      9 O3A        -1.8666    4.8893    0.3938 O.3       1 GTP        -0.8086
     10 PA         -0.5521    5.0215    1.3252 P.3       1 GTP         1.7888
     11 O1A         0.4424    6.0370    0.8422 O.2       1 GTP        -0.8200
     12 O2A        -1.1552    5.3094    2.7985 O.3       1 GTP        -0.8185
     13 O5'         0.0170    3.5129    1.4592 O.3       1 GTP        -0.5679
     14 C5'        -0.8811    2.4285    1.6206 C.3       1 GTP         0.1794
     15 C4'        -0.1994    1.3333    2.4288 C.3       1 GTP         0.1313
     16 O4'        -1.1285    0.2356    2.5840 O.3       1 GTP        -0.3993
     17 C3'         1.0324    0.7610    1.7344 C.3       1 GTP         0.0846
     18 O3'         1.9175    0.2377    2.7247 O.3       1 GTP        -0.5819
     19 C2'         0.4468   -0.3802    0.9263 C.3       1 GTP         0.0567
     20 O2'         1.3993   -1.3703    0.5961 O.3       1 GTP        -0.5837
     21 C1'        -0.6159   -0.9100    1.8769 C.3       1 GTP         0.2547
     22 N9         -1.7127   -1.6108    1.2130 N.pl3     1 GTP        -0.2013
     23 C8         -1.7695   -2.9586    0.9546 C.ar      1 GTP         0.4384
     24 N7         -2.8846   -3.3047    0.3416 N.2       1 GTP        -0.6072
     25 C5         -3.5626   -2.1296    0.2052 C.ar      1 GTP         0.1855
     26 C6         -4.8477   -1.8989   -0.3942 C.ar      1 GTP         0.6502
     27 O6         -5.5373   -2.7819   -0.8881 O.2       1 GTP        -0.6193
     28 N1         -5.1895   -0.5407   -0.3318 N.pl3     1 GTP        -0.5097
     29 C2         -4.3899    0.4774    0.2398 C.ar      1 GTP         0.6454
     30 N2         -4.9233    1.7390    0.1898 N.pl3     1 GTP        -0.8839
     31 N3         -3.2159    0.2369    0.7822 N.2       1 GTP        -0.6390
     32 C4         -2.8678   -1.0679    0.7322 C.ar      1 GTP         0.0961
     33 HOB2       -0.5199    6.0071   -1.8840 H         1 GTP         0.4357
     34 HOA2       -0.5415    5.3532    3.5622 H         1 GTP         0.4835
     35 H5'        -1.7776    2.7841    2.1389 H         1 GTP         0.0448
     36 H5''       -1.1659    2.0533    0.6322 H         1 GTP         0.0448
     37 H4'         0.0402    1.7079    3.4342 H         1 GTP         0.1246
     38 H3'         1.5907    1.4859    1.1353 H         1 GTP         0.0764
     39 HO3'        2.6839   -0.1150    2.2479 H         1 GTP         0.4062
     40 H2'        -0.0017    0.0018    0.0005 H         1 GTP         0.0706
     41 HO2'        2.0953   -0.9375    0.0709 H         1 GTP         0.4064
     42 H1'        -0.1998   -1.6319    2.6178 H         1 GTP         0.1053
     43 H8         -0.9713   -3.6323    1.2352 H         1 GTP         0.0995
     44 HN1        -6.0831   -0.2651   -0.7290 H         1 GTP         0.3262
     45 HN21       -4.3984    2.4878    0.5788 H         1 GTP         0.4043
     46 HN22       -5.8145    1.8572   -0.2335 H         1 GTP         0.4043
@<TRIPOS>BOND
     1    1    2 2
     2    1    3 1
     3    1    4 1
     4    1    5 1
     5    5    6 1
     6    6    7 2
     7    6    8 1
     8    6    9 1
     9    8   33 1
    10    9   10 1
    11   10   11 2
    12   10   12 1
    13   10   13 1
    14   12   34 1
    15   13   14 1
    16   14   15 1
    17   14   35 1
    18   14   36 1
    19   15   16 1
    20   15   17 1
    21   15   37 1
    22   16   21 1
    23   17   18 1
    24   17   19 1
    25   17   38 1
    26   18   39 1
    27   19   20 1
    28   19   21 1
    29   19   40 1
    30   20   41 1
    31   21   22 1
    32   21   42 1
    33   22   23 ar
    34   22   32 ar
    35   23   24 ar
    36   23   43 1
    37   24   25 ar
    38   25   26 ar
    39   25   32 ar
    40   26   27 2
    41   26   28 ar
    42   28   29 ar
    43   28   44 1
    44   29   30 1
    45   29   31 ar
    46   30   45 1
    47   30   46 1
    48   31   32 ar
@<TRIPOS>SUBSTRUCTURE
     1 GTP         1 GROUP 0 A     ****
@<TRIPOS>MOLECULE
[[[5-(2-amino-6-oxo-1~{H}-purin-9-yl)-3,4-dihydroxy-tetrahydrofuran-2-yl]methoxy-hydroxy-phosphoryl]oxy-hydroxy-phosphoryl] phosphate
   46    48     1     0     0
SMALL
USER_CHARGES

@<TRIPOS>ATOM
      1 PG         -0.8788    1.8433    6.8210 P.3       1 GTP         1.3594
      2 O1G         0.5839    1.9694    7.2344 O.co2     1 GTP        -0.8909
      3 O2G        -1.2677    0.4645    6.2982 O.co2     1 GTP        -0.8909
      4 O3G        -1.8656    2.4339    7.8227 O.co2     1 GTP        -0.8909
      5 O3B        -1.0136    2.8297    5.5077 O.3       1 GTP        -0.7106
      6 PB         -0.7519    4.4177    5.3491 P.3       1 GTP         1.8242
      7 O1B        -1.6075    5.2883    6.2214 O.2       1 GTP        -0.9138
      8 O2B         0.8399    4.5608    5.5915 O.3       1 GTP        -0.7900
      9 O3A        -0.9197    4.6580    3.7607 O.3       1 GTP        -0.8086
     10 PA         -2.1753    4.4068    2.7741 P.3       1 GTP         1.7888
     11 O1A        -3.5039    4.7809    3.3645 O.2       1 GTP        -0.8200
     12 O2A        -1.7757    5.2186    1.4330 O.3       1 GTP        -0.8185
     13 O5'        -2.0396    2.8622    2.3120 O.3       1 GTP        -0.5679
     14 C5'        -0.8811    2.4285    1.6206 C.3       1 GTP         0.1794
     15 C4'        -0.1994    1.3333    2.4288 C.3       1 GTP         0.1313
     16 O4'        -1.1285    0.2356    2.5840 O.3       1 GTP        -0.3993
     17 C3'         1.0324    0.7610    1.7344 C.3       1 GTP         0.0846
     18 O3'         1.9175    0.2377    2.7247 O.3       1 GTP        -0.5819
     19 C2'         0.4468   -0.3802    0.9263 C.3       1 GTP         0.0567
     20 O2'         1.3993   -1.3703    0.5961 O.3       1 GTP        -0.5837
     21 C1'        -0.6159   -0.9100    1.8769 C.3       1 GTP         0.2547
     22 N9         -1.7127   -1.6108    1.2130 N.pl3     1 GTP        -0.2013
     23 C8         -2.8667   -1.0365    0.7385 C.ar      1 GTP         0.4384
     24 N7         -3.6757   -1.9196    0.1868 N.2       1 GTP        -0.6072
     25 C5         -3.0088   -3.1018    0.3164 C.ar      1 GTP         0.1855
     26 C6         -3.4148   -4.4130   -0.1079 C.ar      1 GTP         0.6502
     27 O6         -4.4753   -4.6480   -0.6732 O.2       1 GTP        -0.6193
     28 N1         -2.4377   -5.3653    0.2144 N.pl3     1 GTP        -0.5097
     29 C2         -1.2132   -5.0902    0.8680 C.ar      1 GTP         0.6454
     30 N2         -0.4066   -6.1772    1.0834 N.pl3     1 GTP        -0.8839
     31 N3         -0.8672   -3.8786    1.2457 N.2       1 GTP        -0.6390
     32 C4         -1.7966   -2.9451    0.9439 C.ar      1 GTP         0.0961
     33 HOB2        1.2052    4.3554    6.4784 H         1 GTP         0.4357
     34 HOA2       -2.3587    5.1528    0.6470 H         1 GTP         0.4835
     35 H5'        -1.1760    2.0498    0.6365 H         1 GTP         0.0448
     36 H5''       -0.2072    3.2811    1.4873 H         1 GTP         0.0448
     37 H4'         0.0402    1.7079    3.4342 H         1 GTP         0.1246
     38 H3'         1.5907    1.4859    1.1353 H         1 GTP         0.0764
     39 HO3'        2.6839   -0.1150    2.2479 H         1 GTP         0.4062
     40 H2'        -0.0017    0.0018    0.0005 H         1 GTP         0.0706
     41 HO2'        2.0953   -0.9375    0.0709 H         1 GTP         0.4064
     42 H1'        -0.1998   -1.6319    2.6178 H         1 GTP         0.1053
     43 H8         -3.0589    0.0244    0.8247 H         1 GTP         0.0995
     44 HN1        -2.6238   -6.3307   -0.0420 H         1 GTP         0.3262
     45 HN21        0.4646   -6.0341    1.5394 H         1 GTP         0.4043
     46 HN22       -0.7235   -7.0673    0.7753 H         1 GTP         0.4043
@<TRIPOS>BOND
     1    1    2 2
     2    1    3 1
     3    1    4 1
     4    1    5 1
     5    5    6 1
     6    6    7 2
     7    6    8 1
     8    6    9 1
     9    8   33 1
    10    9   10 1
    11   10   11 2
    12   10   12 1
    13   10   13 1
    14   12   34 1
    15   13   14 1
    16   14   15 1
    17   14   35 1
    18   14   36 1
    19   15   16 1
    20   15   17 1
    21   15   37 1
    22   16   21 1
    23   17   18 1
    24   17   19 1
    25   17   38 1
    26   18   39 1
    27   19   20 1
    28   19   21 1
    29   19   40 1
    30   20   41 1
    31   21   22 1
    32   21   42 1
    33   22   23 ar
    34   22   32 ar
    35   23   24 ar
    36   23   43 1
    37   24   25 ar
    38   25   26 ar
    39   25   32 ar
    40   26   27 2
    41   26   28 ar
    42   28   29 ar
    43   28   44 1
    44   29   30 1
    45   29   31 ar
    46   30   45 1
    47   30   46 1
    48   31   32 ar
@<TRIPOS>SUBSTRUCTURE
     1 GTP         1 GROUP 0 A     ****
@<TRIPOS>MOLECULE
[[[5-(2-amino-6-oxo-1~{H}-purin-9-yl)-3,4-dihydroxy-tetrahydrofuran-2-yl]methoxy-hydroxy-phosphoryl]oxy-hydroxy-phosphoryl] phosphate
   46    48     1     0     0
SMALL
USER_CHARGES

@<TRIPOS>ATOM
      1 PG         -1.2059    4.5129   -2.6863 P.3       1 GTP         1.3594
      2 O1G         0.2894    4.3526   -2.4329 O.co2     1 GTP        -0.8909
      3 O2G        -1.5519    5.1361   -4.0346 O.co2     1 GTP        -0.8909
      4 O3G        -2.0361    3.2829   -2.3341 O.co2     1 GTP        -0.8909
      5 O3B        -1.6839    5.6394   -1.5825 O.3       1 GTP        -0.7106
      6 PB         -1.6125    5.6305    0.0332 P.3       1 GTP         1.8242
      7 O1B        -0.2302    5.5067    0.6028 O.2       1 GTP        -0.9138
      8 O2B        -2.4062    6.9755    0.4503 O.3       1 GTP        -0.7900
      9 O3A        -2.6321    4.4444    0.4365 O.3       1 GTP        -0.8086
     10 PA         -3.0702    3.8637    1.8801 P.3       1 GTP         1.7888
     11 O1A        -3.7163    4.8778    2.7789 O.2       1 GTP        -0.8200
     12 O2A        -3.9995    2.5912    1.5139 O.3       1 GTP        -0.8185
     13 O5'        -1.7334    3.1724    2.4742 O.3       1 GTP        -0.5679
     14 C5'        -0.8811    2.4285    1.6206 C.3       1 GTP         0.1794
     15 C4'        -0.1994    1.3333    2.4288 C.3       1 GTP         0.1313
     16 O4'        -1.1285    0.2356    2.5840 O.3       1 GTP        -0.3993
     17 C3'         1.0324    0.7610    1.7344 C.3       1 GTP         0.0846
     18 O3'         1.9175    0.2377    2.7247 O.3       1 GTP        -0.5819
     19 C2'         0.4468   -0.3802    0.9263 C.3       1 GTP         0.0567
     20 O2'         1.3993   -1.3703    0.5961 O.3       1 GTP        -0.5837
     21 C1'        -0.6159   -0.9100    1.8769 C.3       1 GTP         0.2547
     22 N9         -1.7127   -1.6108    1.2130 N.pl3     1 GTP        -0.2013
     23 C8         -2.8667   -1.0365    0.7385 C.ar      1 GTP         0.4384
     24 N7         -3.6757   -1.9196    0.1868 N.2       1 GTP        -0.6072
     25 C5         -3.0088   -3.1018    0.3164 C.ar      1 GTP         0.1855
     26 C6         -3.4148   -4.4130   -0.1079 C.ar      1 GTP         0.6502
     27 O6         -4.4753   -4.6480   -0.6732 O.2       1 GTP        -0.6193
     28 N1         -2.4377   -5.3653    0.2144 N.pl3     1 GTP        -0.5097
     29 C2         -1.2132   -5.0902    0.8680 C.ar      1 GTP         0.6454
     30 N2         -0.4066   -6.1772    1.0834 N.pl3     1 GTP        -0.8839
     31 N3         -0.8672   -3.8786    1.2457 N.2       1 GTP        -0.6390
     32 C4         -1.7966   -2.9451    0.9439 C.ar      1 GTP         0.0961
     33 HOB2       -2.5779    7.1499    1.4002 H         1 GTP         0.4357
     34 HOA2       -4.3291    2.0198    2.2398 H         1 GTP         0.4835
     35 H5'        -1.4794    1.9921    0.8142 H         1 GTP         0.0448
     36 H5''       -0.1361    3.1034    1.1867 H         1 GTP         0.0448
     37 H4'         0.0402    1.7079    3.4342 H         1 GTP         0.1246
     38 H3'         1.5907    1.4859    1.1353 H         1 GTP         0.0764
     39 HO3'        2.6839   -0.1150    2.2479 H         1 GTP         0.4062
     40 H2'        -0.0017    0.0018    0.0005 H         1 GTP         0.0706
     41 HO2'        2.0953   -0.9375    0.0709 H         1 GTP         0.4064
     42 H1'        -0.1998   -1.6319    2.6178 H         1 GTP         0.1053
     43 H8         -3.0589    0.0244    0.8247 H         1 GTP         0.0995
     44 HN1        -2.6238   -6.3307   -0.0420 H         1 GTP         0.3262
     45 HN21        0.4646   -6.0341    1.5394 H         1 GTP         0.4043
     46 HN22       -0.7235   -7.0673    0.7753 H         1 GTP         0.4043
@<TRIPOS>BOND
     1    1    2 2
     2    1    3 1
     3    1    4 1
     4    1    5 1
     5    5    6 1
     6    6    7 2
     7    6    8 1
     8    6    9 1
     9    8   33 1
    10    9   10 1
    11   10   11 2
    12   10   12 1
    13   10   13 1
    14   12   34 1
    15   13   14 1
    16   14   15 1
    17   14   35 1
    18   14   36 1
    19   15   16 1
    20   15   17 1
    21   15   37 1
    22   16   21 1
    23   17   18 1
    24   17   19 1
    25   17   38 1
    26   18   39 1
    27   19   20 1
    28   19   21 1
    29   19   40 1
    30   20   41 1
    31   21   22 1
    32   21   42 1
    33   22   23 ar
    34   22   32 ar
    35   23   24 ar
    36   23   43 1
    37   24   25 ar
    38   25   26 ar
    39   25   32 ar
    40   26   27 2
    41   26   28 ar
    42   28   29 ar
    43   28   44 1
    44   29   30 1
    45   29   31 ar
    46   30   45 1
    47   30   46 1
    48   31   32 ar
@<TRIPOS>SUBSTRUCTURE
     1 GTP         1 GROUP 0 A     ****
@<TRIPOS>MOLECULE
[[[5-(2-amino-6-oxo-1~{H}-purin-9-yl)-3,4-dihydroxy-tetrahydrofuran-2-yl]methoxy-hydroxy-phosphoryl]oxy-hydroxy-phosphoryl] phosphate
   46    48     1     0     0
SMALL
USER_CHARGES

@<TRIPOS>ATOM
      1 PG         -4.3328    4.7101   -1.4950 P.3       1 GTP         1.3594
      2 O1G        -4.6452    4.3736   -2.9494 O.co2     1 GTP        -0.8909
      3 O2G        -5.2894    5.7156   -0.8628 O.co2     1 GTP        -0.8909
      4 O3G        -4.0345    3.4958   -0.6217 O.co2     1 GTP        -0.8909
      5 O3B        -2.8922    5.5073   -1.5655 O.3       1 GTP        -0.7106
      6 PB         -1.4495    5.0329   -2.1216 P.3       1 GTP         1.8242
      7 O1B        -1.4952    4.2217   -3.3828 O.2       1 GTP        -0.9138
      8 O2B        -0.6162    6.4140   -2.2266 O.3       1 GTP        -0.7900
      9 O3A        -0.7948    4.2874   -0.8470 O.3       1 GTP        -0.8086
     10 PA         -0.4418    4.8275    0.6351 P.3       1 GTP         1.7888
     11 O1A         0.5363    5.9662    0.6563 O.2       1 GTP        -0.8200
     12 O2A        -1.8895    5.1640    1.2739 O.3       1 GTP        -0.8185
     13 O5'         0.0170    3.5129    1.4592 O.3       1 GTP        -0.5679
     14 C5'        -0.8811    2.4285    1.6206 C.3       1 GTP         0.1794
     15 C4'        -0.1994    1.3333    2.4288 C.3       1 GTP         0.1313
     16 O4'        -1.1285    0.2356    2.5840 O.3       1 GTP        -0.3993
     17 C3'         1.0324    0.7610    1.7344 C.3       1 GTP         0.0846
     18 O3'         1.9175    0.2377    2.7247 O.3       1 GTP        -0.5819
     19 C2'         0.4468   -0.3802    0.9263 C.3       1 GTP         0.0567
     20 O2'         1.3993   -1.3703    0.5961 O.3       1 GTP        -0.5837
     21 C1'        -0.6159   -0.9100    1.8769 C.3       1 GTP         0.2547
     22 N9         -1.7127   -1.6108    1.2130 N.pl3     1 GTP        -0.2013
     23 C8         -2.8667   -1.0365    0.7385 C.ar      1 GTP         0.4384
     24 N7         -3.6757   -1.9196    0.1868 N.2       1 GTP        -0.6072
     25 C5         -3.0088   -3.1018    0.3164 C.ar      1 GTP         0.1855
     26 C6         -3.4148   -4.4130   -0.1079 C.ar      1 GTP         0.6502
     27 O6         -4.4753   -4.6480   -0.6732 O.2       1 GTP        -0.6193
     28 N1         -2.4377   -5.3653    0.2144 N.pl3     1 GTP        -0.5097
     29 C2         -1.2132   -5.0902    0.8680 C.ar      1 GTP         0.6454
     30 N2         -0.4066   -6.1772    1.0834 N.pl3     1 GTP        -0.8839
     31 N3         -0.8672   -3.8786    1.2457 N.2       1 GTP        -0.6390
     32 C4         -1.7966   -2.9451    0.9439 C.ar      1 GTP         0.0961
     33 HOB2        0.3355    6.3774   -2.4613 H         1 GTP         0.4357
     34 HOA2       -2.4265    5.8837    0.8794 H         1 GTP         0.4835
     35 H5'        -1.7776    2.7841    2.1389 H         1 GTP         0.0448
     36 H5''       -1.1659    2.0533    0.6322 H         1 GTP         0.0448
     37 H4'         0.0402    1.7079    3.4342 H         1 GTP         0.1246
     38 H3'         1.5907    1.4859    1.1353 H         1 GTP         0.0764
     39 HO3'        2.6839   -0.1150    2.2479 H         1 GTP         0.4062
     40 H2'        -0.0017    0.0018    0.0005 H         1 GTP         0.0706
     41 HO2'        2.0953   -0.9375    0.0709 H         1 GTP         0.4064
     42 H1'        -0.1998   -1.6319    2.6178 H         1 GTP         0.1053
     43 H8         -3.0589    0.0244    0.8247 H         1 GTP         0.0995
     44 HN1        -2.6238   -6.3307   -0.0420 H         1 GTP         0.3262
     45 HN21        0.4646   -6.0341    1.5394 H         1 GTP         0.4043
     46 HN22       -0.7235   -7.0673    0.7753 H         1 GTP         0.4043
@<TRIPOS>BOND
     1    1    2 2
     2    1    3 1
     3    1    4 1
     4    1    5 1
     5    5    6 1
     6    6    7 2
     7    6    8 1
     8    6    9 1
     9    8   33 1
    10    9   10 1
    11   10   11 2
    12   10   12 1
    13   10   13 1
    14   12   34 1
    15   13   14 1
    16   14   15 1
    17   14   35 1
    18   14   36 1
    19   15   16 1
    20   15   17 1
    21   15   37 1
    22   16   21 1
    23   17   18 1
    24   17   19 1
    25   17   38 1
    26   18   39 1
    27   19   20 1
    28   19   21 1
    29   19   40 1
    30   20   41 1
    31   21   22 1
    32   21   42 1
    33   22   23 ar
    34   22   32 ar
    35   23   24 ar
    36   23   43 1
    37   24   25 ar
    38   25   26 ar
    39   25   32 ar
    40   26   27 2
    41   26   28 ar
    42   28   29 ar
    43   28   44 1
    44   29   30 1
    45   29   31 ar
    46   30   45 1
    47   30   46 1
    48   31   32 ar
@<TRIPOS>SUBSTRUCTURE
     1 GTP         1 GROUP 0 A     ****
@<TRIPOS>MOLECULE
[[[5-(2-amino-6-oxo-1~{H}-purin-9-yl)-3,4-dihydroxy-tetrahydrofuran-2-yl]methoxy-hydroxy-phosphoryl]oxy-hydroxy-phosphoryl] phosphate
   46    48     1     0     0
SMALL
USER_CHARGES

@<TRIPOS>ATOM
      1 PG         -5.0531    7.6463   -0.6478 P.3       1 GTP         1.3594
      2 O1G        -4.1422    8.2847   -1.6911 O.co2     1 GTP        -0.8909
      3 O2G        -5.3515    8.5354    0.5549 O.co2     1 GTP        -0.8909
      4 O3G        -6.2784    6.9486   -1.2292 O.co2     1 GTP        -0.8909
      5 O3B        -4.1544    6.4117   -0.0284 O.3       1 GTP        -0.7106
      6 PB         -3.5018    5.1177   -0.7464 P.3       1 GTP         1.8242
      7 O1B        -4.4859    4.2044   -1.4158 O.2       1 GTP        -0.9138
      8 O2B        -2.3856    5.7563   -1.7258 O.3       1 GTP        -0.7900
      9 O3A        -2.6321    4.4444    0.4365 O.3       1 GTP        -0.8086
     10 PA         -3.0702    3.8637    1.8801 P.3       1 GTP         1.7888
     11 O1A        -3.7163    4.8778    2.7789 O.2       1 GTP        -0.8200
     12 O2A        -3.9995    2.5912    1.5139 O.3       1 GTP        -0.8185
     13 O5'        -1.7334    3.1724    2.4742 O.3       1 GTP        -0.5679
     14 C5'        -0.8811    2.4285    1.6206 C.3       1 GTP         0.1794
     15 C4'        -0.1994    1.3333    2.4288 C.3       1 GTP         0.1313
     16 O4'        -1.1285    0.2356    2.5840 O.3       1 GTP        -0.3993
     17 C3'         1.0324    0.7610    1.7344 C.3       1 GTP         0.0846
     18 O3'         1.9175    0.2377    2.7247 O.3       1 GTP        -0.5819
     19 C2'         0.4468   -0.3802    0.9263 C.3       1 GTP         0.0567
     20 O2'         1.3993   -1.3703    0.5961 O.3       1 GTP        -0.5837
     21 C1'        -0.6159   -0.9100    1.8769 C.3       1 GTP         0.2547
     22 N9         -1.7127   -1.6108    1.2130 N.pl3     1 GTP        -0.2013
     23 C8         -2.8667   -1.0365    0.7385 C.ar      1 GTP         0.4384
     24 N7         -3.6757   -1.9196    0.1868 N.2       1 GTP        -0.6072
     25 C5         -3.0088   -3.1018    0.3164 C.ar      1 GTP         0.1855
     26 C6         -3.4148   -4.4130   -0.1079 C.ar      1 GTP         0.6502
     27 O6         -4.4753   -4.6480   -0.6732 O.2       1 GTP        -0.6193
     28 N1         -2.4377   -5.3653    0.2144 N.pl3     1 GTP        -0.5097
     29 C2         -1.2132   -5.0902    0.8680 C.ar      1 GTP         0.6454
     30 N2         -0.4066   -6.1772    1.0834 N.pl3     1 GTP        -0.8839
     31 N3         -0.8672   -3.8786    1.2457 N.2       1 GTP        -0.6390
     32 C4         -1.7966   -2.9451    0.9439 C.ar      1 GTP         0.0961
     33 HOB2       -2.6776    6.3135   -2.4785 H         1 GTP         0.4357
     34 HOA2       -4.3291    2.0198    2.2398 H         1 GTP         0.4835
     35 H5'        -1.4794    1.9921    0.8142 H         1 GTP         0.0448
     36 H5''       -0.1361    3.1034    1.1867 H         1 GTP         0.0448
     37 H4'         0.0402    1.7079    3.4342 H         1 GTP         0.1246
     38 H3'         1.5907    1.4859    1.1353 H         1 GTP         0.0764
     39 HO3'        2.6839   -0.1150    2.2479 H         1 GTP         0.4062
     40 H2'        -0.0017    0.0018    0.0005 H         1 GTP         0.0706
     41 HO2'        2.0953   -0.9375    0.0709 H         1 GTP         0.4064
     42 H1'        -0.1998   -1.6319    2.6178 H         1 GTP         0.1053
     43 H8         -3.0589    0.0244    0.8247 H         1 GTP         0.0995
     44 HN1        -2.6238   -6.3307   -0.0420 H         1 GTP         0.3262
     45 HN21        0.4646   -6.0341    1.5394 H         1 GTP         0.4043
     46 HN22       -0.7235   -7.0673    0.7753 H         1 GTP         0.4043
@<TRIPOS>BOND
     1    1    2 2
     2    1    3 1
     3    1    4 1
     4    1    5 1
     5    5    6 1
     6    6    7 2
     7    6    8 1
     8    6    9 1
     9    8   33 1
    10    9   10 1
    11   10   11 2
    12   10   12 1
    13   10   13 1
    14   12   34 1
    15   13   14 1
    16   14   15 1
    17   14   35 1
    18   14   36 1
    19   15   16 1
    20   15   17 1
    21   15   37 1
    22   16   21 1
    23   17   18 1
    24   17   19 1
    25   17   38 1
    26   18   39 1
    27   19   20 1
    28   19   21 1
    29   19   40 1
    30   20   41 1
    31   21   22 1
    32   21   42 1
    33   22   23 ar
    34   22   32 ar
    35   23   24 ar
    36   23   43 1
    37   24   25 ar
    38   25   26 ar
    39   25   32 ar
    40   26   27 2
    41   26   28 ar
    42   28   29 ar
    43   28   44 1
    44   29   30 1
    45   29   31 ar
    46   30   45 1
    47   30   46 1
    48   31   32 ar
@<TRIPOS>SUBSTRUCTURE
     1 GTP         1 GROUP 0 A     ****
@<TRIPOS>MOLECULE
[[[5-(2-amino-6-oxo-1~{H}-purin-9-yl)-3,4-dihydroxy-tetrahydrofuran-2-yl]methoxy-hydroxy-phosphoryl]oxy-hydroxy-phosphoryl] phosphate
   46    48     1     0     0
SMALL
USER_CHARGES

@<TRIPOS>ATOM
      1 PG         -2.2490    4.6474   -4.2504 P.3       1 GTP         1.3594
      2 O1G        -1.4957    5.9098   -4.6562 O.co2     1 GTP        -0.8909
      3 O2G        -3.6769    4.8929   -3.7741 O.co2     1 GTP        -0.8909
      4 O3G        -2.1079    3.4906   -5.2343 O.co2     1 GTP        -0.8909
      5 O3B        -1.4565    4.1189   -2.9056 O.3       1 GTP        -0.7106
      6 PB          0.0849    3.6770   -2.6943 P.3       1 GTP         1.8242
      7 O1B         0.5310    2.5204   -3.5393 O.2       1 GTP        -0.9138
      8 O2B         0.9036    5.0510   -2.9284 O.3       1 GTP        -0.7900
      9 O3A         0.1811    3.4417   -1.0992 O.3       1 GTP        -0.8086
     10 PA         -0.0712    4.4471    0.1412 P.3       1 GTP         1.7888
     11 O1A         0.8293    5.6482    0.1502 O.2       1 GTP        -0.8200
     12 O2A        -1.6507    4.7834    0.0451 O.3       1 GTP        -0.8185
     13 O5'         0.0170    3.5129    1.4592 O.3       1 GTP        -0.5679
     14 C5'        -0.8811    2.4285    1.6206 C.3       1 GTP         0.1794
     15 C4'        -0.1994    1.3333    2.4288 C.3       1 GTP         0.1313
     16 O4'        -1.1285    0.2356    2.5840 O.3       1 GTP        -0.3993
     17 C3'         1.0324    0.7610    1.7344 C.3       1 GTP         0.0846
     18 O3'         1.9175    0.2377    2.7247 O.3       1 GTP        -0.5819
     19 C2'         0.4468   -0.3802    0.9263 C.3       1 GTP         0.0567
     20 O2'         1.3993   -1.3703    0.5961 O.3       1 GTP        -0.5837
     21 C1'        -0.6159   -0.9100    1.8769 C.3       1 GTP         0.2547
     22 N9         -1.7127   -1.6108    1.2130 N.pl3     1 GTP        -0.2013
     23 C8         -1.7695   -2.9586    0.9546 C.ar      1 GTP         0.4384
     24 N7         -2.8846   -3.3047    0.3416 N.2       1 GTP        -0.6072
     25 C5         -3.5626   -2.1296    0.2052 C.ar      1 GTP         0.1855
     26 C6         -4.8477   -1.8989   -0.3942 C.ar      1 GTP         0.6502
     27 O6         -5.5373   -2.7819   -0.8881 O.2       1 GTP        -0.6193
     28 N1         -5.1895   -0.5407   -0.3318 N.pl3     1 GTP        -0.5097
     29 C2         -4.3899    0.4774    0.2398 C.ar      1 GTP         0.6454
     30 N2         -4.9233    1.7390    0.1898 N.pl3     1 GTP        -0.8839
     31 N3         -3.2159    0.2369    0.7822 N.2       1 GTP        -0.6390
     32 C4         -2.8678   -1.0679    0.7322 C.ar      1 GTP         0.0961
     33 HOB2        0.9020    5.4582   -3.8207 H         1 GTP         0.4357
     34 HOA2       -1.9841    5.2773   -0.7340 H         1 GTP         0.4835
     35 H5'        -1.7776    2.7841    2.1389 H         1 GTP         0.0448
     36 H5''       -1.1659    2.0533    0.6322 H         1 GTP         0.0448
     37 H4'         0.0402    1.7079    3.4342 H         1 GTP         0.1246
     38 H3'         1.5907    1.4859    1.1353 H         1 GTP         0.0764
     39 HO3'        2.6839   -0.1150    2.2479 H         1 GTP         0.4062
     40 H2'        -0.0017    0.0018    0.0005 H         1 GTP         0.0706
     41 HO2'        2.0953   -0.9375    0.0709 H         1 GTP         0.4064
     42 H1'        -0.1998   -1.6319    2.6178 H         1 GTP         0.1053
     43 H8         -0.9713   -3.6323    1.2352 H         1 GTP         0.0995
     44 HN1        -6.0831   -0.2651   -0.7290 H         1 GTP         0.3262
     45 HN21       -4.3984    2.4878    0.5788 H         1 GTP         0.4043
     46 HN22       -5.8145    1.8572   -0.2335 H         1 GTP         0.4043
@<TRIPOS>BOND
     1    1    2 2
     2    1    3 1
     3    1    4 1
     4    1    5 1
     5    5    6 1
     6    6    7 2
     7    6    8 1
     8    6    9 1
     9    8   33 1
    10    9   10 1
    11   10   11 2
    12   10   12 1
    13   10   13 1
    14   12   34 1
    15   13   14 1
    16   14   15 1
    17   14   35 1
    18   14   36 1
    19   15   16 1
    20   15   17 1
    21   15   37 1
    22   16   21 1
    23   17   18 1
    24   17   19 1
    25   17   38 1
    26   18   39 1
    27   19   20 1
    28   19   21 1
    29   19   40 1
    30   20   41 1
    31   21   22 1
    32   21   42 1
    33   22   23 ar
    34   22   32 ar
    35   23   24 ar
    36   23   43 1
    37   24   25 ar
    38   25   26 ar
    39   25   32 ar
    40   26   27 2
    41   26   28 ar
    42   28   29 ar
    43   28   44 1
    44   29   30 1
    45   29   31 ar
    46   30   45 1
    47   30   46 1
    48   31   32 ar
@<TRIPOS>SUBSTRUCTURE
     1 GTP         1 GROUP 0 A     ****
@<TRIPOS>MOLECULE
[[[5-(2-amino-6-oxo-1~{H}-purin-9-yl)-3,4-dihydroxy-tetrahydrofuran-2-yl]methoxy-hydroxy-phosphoryl]oxy-hydroxy-phosphoryl] phosphate
   46    48     1     0     0
SMALL
USER_CHARGES

@<TRIPOS>ATOM
      1 PG         -0.3425    7.3205   -3.6550 P.3       1 GTP         1.3594
      2 O1G        -0.2133    6.4609   -4.9081 O.co2     1 GTP        -0.8909
      3 O2G         0.8856    8.1703   -3.3460 O.co2     1 GTP        -0.8909
      4 O3G        -1.6661    8.0702   -3.5438 O.co2     1 GTP        -0.8909
      5 O3B        -0.4036    6.2294   -2.4215 O.3       1 GTP        -0.7106
      6 PB         -1.4495    5.0329   -2.1216 P.3       1 GTP         1.8242
      7 O1B        -2.8738    5.4696   -1.9448 O.2       1 GTP        -0.9138
      8 O2B        -1.1969    4.0008   -3.3398 O.3       1 GTP        -0.7900
      9 O3A        -0.7948    4.2874   -0.8470 O.3       1 GTP        -0.8086
     10 PA         -0.4418    4.8275    0.6351 P.3       1 GTP         1.7888
     11 O1A         0.5363    5.9662    0.6563 O.2       1 GTP        -0.8200
     12 O2A        -1.8895    5.1640    1.2739 O.3       1 GTP        -0.8185
     13 O5'         0.0170    3.5129    1.4592 O.3       1 GTP        -0.5679
     14 C5'        -0.8811    2.4285    1.6206 C.3       1 GTP         0.1794
     15 C4'        -0.1994    1.3333    2.4288 C.3       1 GTP         0.1313
     16 O4'        -1.1285    0.2356    2.5840 O.3       1 GTP        -0.3993
     17 C3'         1.0324    0.7610    1.7344 C.3       1 GTP         0.0846
     18 O3'         1.9175    0.2377    2.7247 O.3       1 GTP        -0.5819
     19 C2'         0.4468   -0.3802    0.9263 C.3       1 GTP         0.0567
     20 O2'         1.3993   -1.3703    0.5961 O.3       1 GTP        -0.5837
     21 C1'        -0.6159   -0.9100    1.8769 C.3       1 GTP         0.2547
     22 N9         -1.7127   -1.6108    1.2130 N.pl3     1 GTP        -0.2013
     23 C8         -2.8667   -1.0365    0.7385 C.ar      1 GTP         0.4384
     24 N7         -3.6757   -1.9196    0.1868 N.2       1 GTP        -0.6072
     25 C5         -3.0088   -3.1018    0.3164 C.ar      1 GTP         0.1855
     26 C6         -3.4148   -4.4130   -0.1079 C.ar      1 GTP         0.6502
     27 O6         -4.4753   -4.6480   -0.6732 O.2       1 GTP        -0.6193
     28 N1         -2.4377   -5.3653    0.2144 N.pl3     1 GTP        -0.5097
     29 C2         -1.2132   -5.0902    0.8680 C.ar      1 GTP         0.6454
     30 N2         -0.4066   -6.1772    1.0834 N.pl3     1 GTP        -0.8839
     31 N3         -0.8672   -3.8786    1.2457 N.2       1 GTP        -0.6390
     32 C4         -1.7966   -2.9451    0.9439 C.ar      1 GTP         0.0961
     33 HOB2       -1.4229    4.2797   -4.2526 H         1 GTP         0.4357
     34 HOA2       -2.4265    5.8837    0.8794 H         1 GTP         0.4835
     35 H5'        -1.7776    2.7841    2.1389 H         1 GTP         0.0448
     36 H5''       -1.1659    2.0533    0.6322 H         1 GTP         0.0448
     37 H4'         0.0402    1.7079    3.4342 H         1 GTP         0.1246
     38 H3'         1.5907    1.4859    1.1353 H         1 GTP         0.0764
     39 HO3'        2.6839   -0.1150    2.2479 H         1 GTP         0.4062
     40 H2'        -0.0017    0.0018    0.0005 H         1 GTP         0.0706
     41 HO2'        2.0953   -0.9375    0.0709 H         1 GTP         0.4064
     42 H1'        -0.1998   -1.6319    2.6178 H         1 GTP         0.1053
     43 H8         -3.0589    0.0244    0.8247 H         1 GTP         0.0995
     44 HN1        -2.6238   -6.3307   -0.0420 H         1 GTP         0.3262
     45 HN21        0.4646   -6.0341    1.5394 H         1 GTP         0.4043
     46 HN22       -0.7235   -7.0673    0.7753 H         1 GTP         0.4043
@<TRIPOS>BOND
     1    1    2 2
     2    1    3 1
     3    1    4 1
     4    1    5 1
     5    5    6 1
     6    6    7 2
     7    6    8 1
     8    6    9 1
     9    8   33 1
    10    9   10 1
    11   10   11 2
    12   10   12 1
    13   10   13 1
    14   12   34 1
    15   13   14 1
    16   14   15 1
    17   14   35 1
    18   14   36 1
    19   15   16 1
    20   15   17 1
    21   15   37 1
    22   16   21 1
    23   17   18 1
    24   17   19 1
    25   17   38 1
    26   18   39 1
    27   19   20 1
    28   19   21 1
    29   19   40 1
    30   20   41 1
    31   21   22 1
    32   21   42 1
    33   22   23 ar
    34   22   32 ar
    35   23   24 ar
    36   23   43 1
    37   24   25 ar
    38   25   26 ar
    39   25   32 ar
    40   26   27 2
    41   26   28 ar
    42   28   29 ar
    43   28   44 1
    44   29   30 1
    45   29   31 ar
    46   30   45 1
    47   30   46 1
    48   31   32 ar
@<TRIPOS>SUBSTRUCTURE
     1 GTP         1 GROUP 0 A     ****
@<TRIPOS>MOLECULE
[[[5-(2-amino-6-oxo-1~{H}-purin-9-yl)-3,4-dihydroxy-tetrahydrofuran-2-yl]methoxy-hydroxy-phosphoryl]oxy-hydroxy-phosphoryl] phosphate
   46    48     1     0     0
SMALL
USER_CHARGES

@<TRIPOS>ATOM
      1 PG         -1.1368    8.7144    0.3227 P.3       1 GTP         1.3594
      2 O1G        -2.3693    9.4356    0.8583 O.co2     1 GTP        -0.8909
      3 O2G        -1.2108    8.3582   -1.1584 O.co2     1 GTP        -0.8909
      4 O3G         0.1881    9.3367    0.7510 O.co2     1 GTP        -0.8909
      5 O3B        -1.1546    7.2578    1.0932 O.3       1 GTP        -0.7106
      6 PB         -1.1013    6.8965    2.6687 P.3       1 GTP         1.8242
      7 O1B         0.1257    7.3782    3.3852 O.2       1 GTP        -0.9138
      8 O2B        -2.4977    7.4819    3.2345 O.3       1 GTP        -0.7900
      9 O3A        -1.3235    5.2967    2.6835 O.3       1 GTP        -0.8086
     10 PA         -2.5519    4.3888    2.1545 P.3       1 GTP         1.7888
     11 O1A        -3.8664    4.6910    2.8135 O.2       1 GTP        -0.8200
     12 O2A        -2.5288    4.6111    0.5522 O.3       1 GTP        -0.8185
     13 O5'        -2.0396    2.8622    2.3120 O.3       1 GTP        -0.5679
     14 C5'        -0.8811    2.4285    1.6206 C.3       1 GTP         0.1794
     15 C4'        -0.1994    1.3333    2.4288 C.3       1 GTP         0.1313
     16 O4'        -1.1285    0.2356    2.5840 O.3       1 GTP        -0.3993
     17 C3'         1.0324    0.7610    1.7344 C.3       1 GTP         0.0846
     18 O3'         1.9175    0.2377    2.7247 O.3       1 GTP        -0.5819
     19 C2'         0.4468   -0.3802    0.9263 C.3       1 GTP         0.0567
     20 O2'         1.3993   -1.3703    0.5961 O.3       1 GTP        -0.5837
     21 C1'        -0.6159   -0.9100    1.8769 C.3       1 GTP         0.2547
     22 N9         -1.7127   -1.6108    1.2130 N.pl3     1 GTP        -0.2013
     23 C8         -2.8667   -1.0365    0.7385 C.ar      1 GTP         0.4384
     24 N7         -3.6757   -1.9196    0.1868 N.2       1 GTP        -0.6072
     25 C5         -3.0088   -3.1018    0.3164 C.ar      1 GTP         0.1855
     26 C6         -3.4148   -4.4130   -0.1079 C.ar      1 GTP         0.6502
     27 O6         -4.4753   -4.6480   -0.6732 O.2       1 GTP        -0.6193
     28 N1         -2.4377   -5.3653    0.2144 N.pl3     1 GTP        -0.5097
     29 C2         -1.2132   -5.0902    0.8680 C.ar      1 GTP         0.6454
     30 N2         -0.4066   -6.1772    1.0834 N.pl3     1 GTP        -0.8839
     31 N3         -0.8672   -3.8786    1.2457 N.2       1 GTP        -0.6390
     32 C4         -1.7966   -2.9451    0.9439 C.ar      1 GTP         0.0961
     33 HOB2       -2.6437    8.4519    3.2264 H         1 GTP         0.4357
     34 HOA2       -2.7205    5.5039    0.1942 H         1 GTP         0.4835
     35 H5'        -1.1760    2.0498    0.6365 H         1 GTP         0.0448
     36 H5''       -0.2072    3.2811    1.4873 H         1 GTP         0.0448
     37 H4'         0.0402    1.7079    3.4342 H         1 GTP         0.1246
     38 H3'         1.5907    1.4859    1.1353 H         1 GTP         0.0764
     39 HO3'        2.6839   -0.1150    2.2479 H         1 GTP         0.4062
     40 H2'        -0.0017    0.0018    0.0005 H         1 GTP         0.0706
     41 HO2'        2.0953   -0.9375    0.0709 H         1 GTP         0.4064
     42 H1'        -0.1998   -1.6319    2.6178 H         1 GTP         0.1053
     43 H8         -3.0589    0.0244    0.8247 H         1 GTP         0.0995
     44 HN1        -2.6238   -6.3307   -0.0420 H         1 GTP         0.3262
     45 HN21        0.4646   -6.0341    1.5394 H         1 GTP         0.4043
     46 HN22       -0.7235   -7.0673    0.7753 H         1 GTP         0.4043
@<TRIPOS>BOND
     1    1    2 2
     2    1    3 1
     3    1    4 1
     4    1    5 1
     5    5    6 1
     6    6    7 2
     7    6    8 1
     8    6    9 1
     9    8   33 1
    10    9   10 1
    11   10   11 2
    12   10   12 1
    13   10   13 1
    14   12   34 1
    15   13   14 1
    16   14   15 1
    17   14   35 1
    18   14   36 1
    19   15   16 1
    20   15   17 1
    21   15   37 1
    22   16   21 1
    23   17   18 1
    24   17   19 1
    25   17   38 1
    26   18   39 1
    27   19   20 1
    28   19   21 1
    29   19   40 1
    30   20   41 1
    31   21   22 1
    32   21   42 1
    33   22   23 ar
    34   22   32 ar
    35   23   24 ar
    36   23   43 1
    37   24   25 ar
    38   25   26 ar
    39   25   32 ar
    40   26   27 2
    41   26   28 ar
    42   28   29 ar
    43   28   44 1
    44   29   30 1
    45   29   31 ar
    46   30   45 1
    47   30   46 1
    48   31   32 ar
@<TRIPOS>SUBSTRUCTURE
     1 GTP         1 GROUP 0 A     ****
@<TRIPOS>MOLECULE
[[[5-(2-amino-6-oxo-1~{H}-purin-9-yl)-3,4-dihydroxy-tetrahydrofuran-2-yl]methoxy-hydroxy-phosphoryl]oxy-hydroxy-phosphoryl] phosphate
   46    48     1     0     0
SMALL
USER_CHARGES

@<TRIPOS>ATOM
      1 PG         -5.4332    5.5308   -1.6451 P.3       1 GTP         1.3594
      2 O1G        -6.3270    5.8599   -0.4539 O.co2     1 GTP        -0.8909
      3 O2G        -5.8502    4.2844   -2.4188 O.co2     1 GTP        -0.8909
      4 O3G        -5.0964    6.7300   -2.5253 O.co2     1 GTP        -0.8909
      5 O3B        -3.9882    5.1237   -0.9654 O.3       1 GTP        -0.7106
      6 PB         -2.9910    5.9737   -0.0174 P.3       1 GTP         1.8242
      7 O1B        -2.4656    7.2391   -0.6285 O.2       1 GTP        -0.9138
      8 O2B        -3.8448    6.1731    1.3406 O.3       1 GTP        -0.7900
      9 O3A        -1.8666    4.8893    0.3938 O.3       1 GTP        -0.8086
     10 PA         -0.5521    5.0215    1.3252 P.3       1 GTP         1.7888
     11 O1A         0.4424    6.0370    0.8422 O.2       1 GTP        -0.8200
     12 O2A        -1.1552    5.3094    2.7985 O.3       1 GTP        -0.8185
     13 O5'         0.0170    3.5129    1.4592 O.3       1 GTP        -0.5679
     14 C5'        -0.8811    2.4285    1.6206 C.3       1 GTP         0.1794
     15 C4'        -0.1994    1.3333    2.4288 C.3       1 GTP         0.1313
     16 O4'        -1.1285    0.2356    2.5840 O.3       1 GTP        -0.3993
     17 C3'         1.0324    0.7610    1.7344 C.3       1 GTP         0.0846
     18 O3'         1.9175    0.2377    2.7247 O.3       1 GTP        -0.5819
     19 C2'         0.4468   -0.3802    0.9263 C.3       1 GTP         0.0567
     20 O2'         1.3993   -1.3703    0.5961 O.3       1 GTP        -0.5837
     21 C1'        -0.6159   -0.9100    1.8769 C.3       1 GTP         0.2547
     22 N9         -1.7127   -1.6108    1.2130 N.pl3     1 GTP        -0.2013
     23 C8         -1.7695   -2.9586    0.9546 C.ar      1 GTP         0.4384
     24 N7         -2.8846   -3.3047    0.3416 N.2       1 GTP        -0.6072
     25 C5         -3.5626   -2.1296    0.2052 C.ar      1 GTP         0.1855
     26 C6         -4.8477   -1.8989   -0.3942 C.ar      1 GTP         0.6502
     27 O6         -5.5373   -2.7819   -0.8881 O.2       1 GTP        -0.6193
     28 N1         -5.1895   -0.5407   -0.3318 N.pl3     1 GTP        -0.5097
     29 C2         -4.3899    0.4774    0.2398 C.ar      1 GTP         0.6454
     30 N2         -4.9233    1.7390    0.1898 N.pl3     1 GTP        -0.8839
     31 N3         -3.2159    0.2369    0.7822 N.2       1 GTP        -0.6390
     32 C4         -2.8678   -1.0679    0.7322 C.ar      1 GTP         0.0961
     33 HOB2       -3.4127    6.5911    2.1157 H         1 GTP         0.4357
     34 HOA2       -0.5415    5.3532    3.5622 H         1 GTP         0.4835
     35 H5'        -1.7776    2.7841    2.1389 H         1 GTP         0.0448
     36 H5''       -1.1659    2.0533    0.6322 H         1 GTP         0.0448
     37 H4'         0.0402    1.7079    3.4342 H         1 GTP         0.1246
     38 H3'         1.5907    1.4859    1.1353 H         1 GTP         0.0764
     39 HO3'        2.6839   -0.1150    2.2479 H         1 GTP         0.4062
     40 H2'        -0.0017    0.0018    0.0005 H         1 GTP         0.0706
     41 HO2'        2.0953   -0.9375    0.0709 H         1 GTP         0.4064
     42 H1'        -0.1998   -1.6319    2.6178 H         1 GTP         0.1053
     43 H8         -0.9713   -3.6323    1.2352 H         1 GTP         0.0995
     44 HN1        -6.0831   -0.2651   -0.7290 H         1 GTP         0.3262
     45 HN21       -4.3984    2.4878    0.5788 H         1 GTP         0.4043
     46 HN22       -5.8145    1.8572   -0.2335 H         1 GTP         0.4043
@<TRIPOS>BOND
     1    1    2 2
     2    1    3 1
     3    1    4 1
     4    1    5 1
     5    5    6 1
     6    6    7 2
     7    6    8 1
     8    6    9 1
     9    8   33 1
    10    9   10 1
    11   10   11 2
    12   10   12 1
    13   10   13 1
    14   12   34 1
    15   13   14 1
    16   14   15 1
    17   14   35 1
    18   14   36 1
    19   15   16 1
    20   15   17 1
    21   15   37 1
    22   16   21 1
    23   17   18 1
    24   17   19 1
    25   17   38 1
    26   18   39 1
    27   19   20 1
    28   19   21 1
    29   19   40 1
    30   20   41 1
    31   21   22 1
    32   21   42 1
    33   22   23 ar
    34   22   32 ar
    35   23   24 ar
    36   23   43 1
    37   24   25 ar
    38   25   26 ar
    39   25   32 ar
    40   26   27 2
    41   26   28 ar
    42   28   29 ar
    43   28   44 1
    44   29   30 1
    45   29   31 ar
    46   30   45 1
    47   30   46 1
    48   31   32 ar
@<TRIPOS>SUBSTRUCTURE
     1 GTP         1 GROUP 0 A     ****
@<TRIPOS>MOLECULE
[[[5-(2-amino-6-oxo-1~{H}-purin-9-yl)-3,4-dihydroxy-tetrahydrofuran-2-yl]methoxy-hydroxy-phosphoryl]oxy-hydroxy-phosphoryl] phosphate
   46    48     1     0     0
SMALL
USER_CHARGES

@<TRIPOS>ATOM
      1 PG         -3.5801    6.6003   -2.4497 P.3       1 GTP         1.3594
      2 O1G        -4.6675    7.4775   -1.8381 O.co2     1 GTP        -0.8909
      3 O2G        -4.1045    5.4725   -3.3323 O.co2     1 GTP        -0.8909
      4 O3G        -2.4149    7.3773   -3.0537 O.co2     1 GTP        -0.8909
      5 O3B        -2.9100    5.8280   -1.1574 O.3       1 GTP        -0.7106
      6 PB         -2.1731    6.4150    0.1572 P.3       1 GTP         1.8242
      7 O1B        -0.9484    7.2359   -0.1199 O.2       1 GTP        -0.9138
      8 O2B        -3.3575    7.1942    0.9337 O.3       1 GTP        -0.7900
      9 O3A        -1.9288    5.0963    1.0575 O.3       1 GTP        -0.8086
     10 PA         -2.9684    4.0281    1.6828 P.3       1 GTP         1.7888
     11 O1A        -3.9680    4.6267    2.6294 O.2       1 GTP        -0.8200
     12 O2A        -3.6097    3.3123    0.3815 O.3       1 GTP        -0.8185
     13 O5'        -2.0396    2.8622    2.3120 O.3       1 GTP        -0.5679
     14 C5'        -0.8811    2.4285    1.6206 C.3       1 GTP         0.1794
     15 C4'        -0.1994    1.3333    2.4288 C.3       1 GTP         0.1313
     16 O4'        -1.1285    0.2356    2.5840 O.3       1 GTP        -0.3993
     17 C3'         1.0324    0.7610    1.7344 C.3       1 GTP         0.0846
     18 O3'         1.9175    0.2377    2.7247 O.3       1 GTP        -0.5819
     19 C2'         0.4468   -0.3802    0.9263 C.3       1 GTP         0.0567
     20 O2'         1.3993   -1.3703    0.5961 O.3       1 GTP        -0.5837
     21 C1'        -0.6159   -0.9100    1.8769 C.3       1 GTP         0.2547
     22 N9         -1.7127   -1.6108    1.2130 N.pl3     1 GTP        -0.2013
     23 C8         -2.8667   -1.0365    0.7385 C.ar      1 GTP         0.4384
     24 N7         -3.6757   -1.9196    0.1868 N.2       1 GTP        -0.6072
     25 C5         -3.0088   -3.1018    0.3164 C.ar      1 GTP         0.1855
     26 C6         -3.4148   -4.4130   -0.1079 C.ar      1 GTP         0.6502
     27 O6         -4.4753   -4.6480   -0.6732 O.2       1 GTP        -0.6193
     28 N1         -2.4377   -5.3653    0.2144 N.pl3     1 GTP        -0.5097
     29 C2         -1.2132   -5.0902    0.8680 C.ar      1 GTP         0.6454
     30 N2         -0.4066   -6.1772    1.0834 N.pl3     1 GTP        -0.8839
     31 N3         -0.8672   -3.8786    1.2457 N.2       1 GTP        -0.6390
     32 C4         -1.7966   -2.9451    0.9439 C.ar      1 GTP         0.0961
     33 HOB2       -3.7541    7.9895    0.5186 H         1 GTP         0.4357
     34 HOA2       -4.2256    2.5598    0.5090 H         1 GTP         0.4835
     35 H5'        -1.1760    2.0498    0.6365 H         1 GTP         0.0448
     36 H5''       -0.2072    3.2811    1.4873 H         1 GTP         0.0448
     37 H4'         0.0402    1.7079    3.4342 H         1 GTP         0.1246
     38 H3'         1.5907    1.4859    1.1353 H         1 GTP         0.0764
     39 HO3'        2.1521    0.9800    3.3017 H         1 GTP         0.4062
     40 H2'        -0.0017    0.0018    0.0005 H         1 GTP         0.0706
     41 HO2'        0.9369   -2.0558    0.0825 H         1 GTP         0.4064
     42 H1'        -0.1998   -1.6319    2.6178 H         1 GTP         0.1053
     43 H8         -3.0589    0.0244    0.8247 H         1 GTP         0.0995
     44 HN1        -2.6238   -6.3307   -0.0420 H         1 GTP         0.3262
     45 HN21        0.4646   -6.0341    1.5394 H         1 GTP         0.4043
     46 HN22       -0.7235   -7.0673    0.7753 H         1 GTP         0.4043
@<TRIPOS>BOND
     1    1    2 2
     2    1    3 1
     3    1    4 1
     4    1    5 1
     5    5    6 1
     6    6    7 2
     7    6    8 1
     8    6    9 1
     9    8   33 1
    10    9   10 1
    11   10   11 2
    12   10   12 1
    13   10   13 1
    14   12   34 1
    15   13   14 1
    16   14   15 1
    17   14   35 1
    18   14   36 1
    19   15   16 1
    20   15   17 1
    21   15   37 1
    22   16   21 1
    23   17   18 1
    24   17   19 1
    25   17   38 1
    26   18   39 1
    27   19   20 1
    28   19   21 1
    29   19   40 1
    30   20   41 1
    31   21   22 1
    32   21   42 1
    33   22   23 ar
    34   22   32 ar
    35   23   24 ar
    36   23   43 1
    37   24   25 ar
    38   25   26 ar
    39   25   32 ar
    40   26   27 2
    41   26   28 ar
    42   28   29 ar
    43   28   44 1
    44   29   30 1
    45   29   31 ar
    46   30   45 1
    47   30   46 1
    48   31   32 ar
@<TRIPOS>SUBSTRUCTURE
     1 GTP         1 GROUP 0 A     ****
@<TRIPOS>MOLECULE
[[[5-(2-amino-6-oxo-1~{H}-purin-9-yl)-3,4-dihydroxy-tetrahydrofuran-2-yl]methoxy-hydroxy-phosphoryl]oxy-hydroxy-phosphoryl] phosphate
   46    48     1     0     0
SMALL
USER_CHARGES

@<TRIPOS>ATOM
      1 PG         -4.8180    5.7445    2.3105 P.3       1 GTP         1.3594
      2 O1G        -6.0397    5.7990    1.3993 O.co2     1 GTP        -0.8909
      3 O2G        -4.9110    6.6404    3.5412 O.co2     1 GTP        -0.8909
      4 O3G        -4.3154    4.3339    2.6001 O.co2     1 GTP        -0.8909
      5 O3B        -3.6119    6.4145    1.4094 O.3       1 GTP        -0.7106
      6 PB         -2.9910    5.9737   -0.0174 P.3       1 GTP         1.8242
      7 O1B        -3.9975    5.5005   -1.0243 O.2       1 GTP        -0.9138
      8 O2B        -2.1300    7.2660   -0.4664 O.3       1 GTP        -0.7900
      9 O3A        -1.8666    4.8893    0.3938 O.3       1 GTP        -0.8086
     10 PA         -0.5521    5.0215    1.3252 P.3       1 GTP         1.7888
     11 O1A         0.4424    6.0370    0.8422 O.2       1 GTP        -0.8200
     12 O2A        -1.1552    5.3094    2.7985 O.3       1 GTP        -0.8185
     13 O5'         0.0170    3.5129    1.4592 O.3       1 GTP        -0.5679
     14 C5'        -0.8811    2.4285    1.6206 C.3       1 GTP         0.1794
     15 C4'        -0.1994    1.3333    2.4288 C.3       1 GTP         0.1313
     16 O4'        -1.1285    0.2356    2.5840 O.3       1 GTP        -0.3993
     17 C3'         1.0324    0.7610    1.7344 C.3       1 GTP         0.0846
     18 O3'         1.9175    0.2377    2.7247 O.3       1 GTP        -0.5819
     19 C2'         0.4468   -0.3802    0.9263 C.3       1 GTP         0.0567
     20 O2'         1.3993   -1.3703    0.5961 O.3       1 GTP        -0.5837
     21 C1'        -0.6159   -0.9100    1.8769 C.3       1 GTP         0.2547
     22 N9         -1.7127   -1.6108    1.2130 N.pl3     1 GTP        -0.2013
     23 C8         -1.7695   -2.9586    0.9546 C.ar      1 GTP         0.4384
     24 N7         -2.8846   -3.3047    0.3416 N.2       1 GTP        -0.6072
     25 C5         -3.5626   -2.1296    0.2052 C.ar      1 GTP         0.1855
     26 C6         -4.8477   -1.8989   -0.3942 C.ar      1 GTP         0.6502
     27 O6         -5.5373   -2.7819   -0.8881 O.2       1 GTP        -0.6193
     28 N1         -5.1895   -0.5407   -0.3318 N.pl3     1 GTP        -0.5097
     29 C2         -4.3899    0.4774    0.2398 C.ar      1 GTP         0.6454
     30 N2         -4.9233    1.7390    0.1898 N.pl3     1 GTP        -0.8839
     31 N3         -3.2159    0.2369    0.7822 N.2       1 GTP        -0.6390
     32 C4         -2.8678   -1.0679    0.7322 C.ar      1 GTP         0.0961
     33 HOB2       -1.5761    7.2100   -1.2740 H         1 GTP         0.4357
     34 HOA2       -1.6443    6.1449    2.9561 H         1 GTP         0.4835
     35 H5'        -1.7776    2.7841    2.1389 H         1 GTP         0.0448
     36 H5''       -1.1659    2.0533    0.6322 H         1 GTP         0.0448
     37 H4'         0.0402    1.7079    3.4342 H         1 GTP         0.1246
     38 H3'         1.5907    1.4859    1.1353 H         1 GTP         0.0764
     39 HO3'        2.6839   -0.1150    2.2479 H         1 GTP         0.4062
     40 H2'        -0.0017    0.0018    0.0005 H         1 GTP         0.0706
     41 HO2'        2.0953   -0.9375    0.0709 H         1 GTP         0.4064
     42 H1'        -0.1998   -1.6319    2.6178 H         1 GTP         0.1053
     43 H8         -0.9713   -3.6323    1.2352 H         1 GTP         0.0995
     44 HN1        -6.0831   -0.2651   -0.7290 H         1 GTP         0.3262
     45 HN21       -4.3984    2.4878    0.5788 H         1 GTP         0.4043
     46 HN22       -5.8145    1.8572   -0.2335 H         1 GTP         0.4043
@<TRIPOS>BOND
     1    1    2 2
     2    1    3 1
     3    1    4 1
     4    1    5 1
     5    5    6 1
     6    6    7 2
     7    6    8 1
     8    6    9 1
     9    8   33 1
    10    9   10 1
    11   10   11 2
    12   10   12 1
    13   10   13 1
    14   12   34 1
    15   13   14 1
    16   14   15 1
    17   14   35 1
    18   14   36 1
    19   15   16 1
    20   15   17 1
    21   15   37 1
    22   16   21 1
    23   17   18 1
    24   17   19 1
    25   17   38 1
    26   18   39 1
    27   19   20 1
    28   19   21 1
    29   19   40 1
    30   20   41 1
    31   21   22 1
    32   21   42 1
    33   22   23 ar
    34   22   32 ar
    35   23   24 ar
    36   23   43 1
    37   24   25 ar
    38   25   26 ar
    39   25   32 ar
    40   26   27 2
    41   26   28 ar
    42   28   29 ar
    43   28   44 1
    44   29   30 1
    45   29   31 ar
    46   30   45 1
    47   30   46 1
    48   31   32 ar
@<TRIPOS>SUBSTRUCTURE
     1 GTP         1 GROUP 0 A     ****
@<TRIPOS>MOLECULE
[[[5-(2-amino-6-oxo-1~{H}-purin-9-yl)-3,4-dihydroxy-tetrahydrofuran-2-yl]methoxy-hydroxy-phosphoryl]oxy-hydroxy-phosphoryl] phosphate
   46    48     1     0     0
SMALL
USER_CHARGES

@<TRIPOS>ATOM
      1 PG          0.9242    8.8194    1.0835 P.3       1 GTP         1.3594
      2 O1G         0.2991    9.6276    2.2158 O.co2     1 GTP        -0.8909
      3 O2G         0.8194    9.4753   -0.2894 O.co2     1 GTP        -0.8909
      4 O3G         2.3050    8.2566    1.4042 O.co2     1 GTP        -0.8909
      5 O3B        -0.0295    7.4804    0.9689 O.3       1 GTP        -0.7106
      6 PB         -0.3725    6.3328    2.0557 P.3       1 GTP         1.8242
      7 O1B         0.8154    5.5713    2.5653 O.2       1 GTP        -0.9138
      8 O2B        -1.2121    7.1268    3.1861 O.3       1 GTP        -0.7900
      9 O3A        -1.4908    5.4418    1.3043 O.3       1 GTP        -0.8086
     10 PA         -2.5921    4.4092    1.8820 P.3       1 GTP         1.7888
     11 O1A        -3.5668    5.0260    2.8428 O.2       1 GTP        -0.8200
     12 O2A        -3.2590    3.7776    0.5503 O.3       1 GTP        -0.8185
     13 O5'        -1.7334    3.1724    2.4742 O.3       1 GTP        -0.5679
     14 C5'        -0.8811    2.4285    1.6206 C.3       1 GTP         0.1794
     15 C4'        -0.1994    1.3333    2.4288 C.3       1 GTP         0.1313
     16 O4'        -1.1285    0.2356    2.5840 O.3       1 GTP        -0.3993
     17 C3'         1.0324    0.7610    1.7344 C.3       1 GTP         0.0846
     18 O3'         1.9175    0.2377    2.7247 O.3       1 GTP        -0.5819
     19 C2'         0.4468   -0.3802    0.9263 C.3       1 GTP         0.0567
     20 O2'         1.3993   -1.3703    0.5961 O.3       1 GTP        -0.5837
     21 C1'        -0.6159   -0.9100    1.8769 C.3       1 GTP         0.2547
     22 N9         -1.7127   -1.6108    1.2130 N.pl3     1 GTP        -0.2013
     23 C8         -2.8667   -1.0365    0.7385 C.ar      1 GTP         0.4384
     24 N7         -3.6757   -1.9196    0.1868 N.2       1 GTP        -0.6072
     25 C5         -3.0088   -3.1018    0.3164 C.ar      1 GTP         0.1855
     26 C6         -3.4148   -4.4130   -0.1079 C.ar      1 GTP         0.6502
     27 O6         -4.4753   -4.6480   -0.6732 O.2       1 GTP        -0.6193
     28 N1         -2.4377   -5.3653    0.2144 N.pl3     1 GTP        -0.5097
     29 C2         -1.2132   -5.0902    0.8680 C.ar      1 GTP         0.6454
     30 N2         -0.4066   -6.1772    1.0834 N.pl3     1 GTP        -0.8839
     31 N3         -0.8672   -3.8786    1.2457 N.2       1 GTP        -0.6390
     32 C4         -1.7966   -2.9451    0.9439 C.ar      1 GTP         0.0961
     33 HOB2       -0.7595    7.8169    3.7162 H         1 GTP         0.4357
     34 HOA2       -3.9157    3.0553    0.6453 H         1 GTP         0.4835
     35 H5'        -1.4794    1.9921    0.8142 H         1 GTP         0.0448
     36 H5''       -0.1361    3.1034    1.1867 H         1 GTP         0.0448
     37 H4'         0.0402    1.7079    3.4342 H         1 GTP         0.1246
     38 H3'         1.5907    1.4859    1.1353 H         1 GTP         0.0764
     39 HO3'        2.1521    0.9800    3.3017 H         1 GTP         0.4062
     40 H2'        -0.0017    0.0018    0.0005 H         1 GTP         0.0706
     41 HO2'        0.9369   -2.0558    0.0825 H         1 GTP         0.4064
     42 H1'        -0.1998   -1.6319    2.6178 H         1 GTP         0.1053
     43 H8         -3.0589    0.0244    0.8247 H         1 GTP         0.0995
     44 HN1        -2.6238   -6.3307   -0.0420 H         1 GTP         0.3262
     45 HN21        0.4646   -6.0341    1.5394 H         1 GTP         0.4043
     46 HN22       -0.7235   -7.0673    0.7753 H         1 GTP         0.4043
@<TRIPOS>BOND
     1    1    2 2
     2    1    3 1
     3    1    4 1
     4    1    5 1
     5    5    6 1
     6    6    7 2
     7    6    8 1
     8    6    9 1
     9    8   33 1
    10    9   10 1
    11   10   11 2
    12   10   12 1
    13   10   13 1
    14   12   34 1
    15   13   14 1
    16   14   15 1
    17   14   35 1
    18   14   36 1
    19   15   16 1
    20   15   17 1
    21   15   37 1
    22   16   21 1
    23   17   18 1
    24   17   19 1
    25   17   38 1
    26   18   39 1
    27   19   20 1
    28   19   21 1
    29   19   40 1
    30   20   41 1
    31   21   22 1
    32   21   42 1
    33   22   23 ar
    34   22   32 ar
    35   23   24 ar
    36   23   43 1
    37   24   25 ar
    38   25   26 ar
    39   25   32 ar
    40   26   27 2
    41   26   28 ar
    42   28   29 ar
    43   28   44 1
    44   29   30 1
    45   29   31 ar
    46   30   45 1
    47   30   46 1
    48   31   32 ar
@<TRIPOS>SUBSTRUCTURE
     1 GTP         1 GROUP 0 A     ****
@<TRIPOS>MOLECULE
[[[5-(2-amino-6-oxo-1~{H}-purin-9-yl)-3,4-dihydroxy-tetrahydrofuran-2-yl]methoxy-hydroxy-phosphoryl]oxy-hydroxy-phosphoryl] phosphate
   46    48     1     0     0
SMALL
USER_CHARGES

@<TRIPOS>ATOM
      1 PG         -0.3425    7.3205   -3.6550 P.3       1 GTP         1.3594
      2 O1G        -0.2133    6.4609   -4.9081 O.co2     1 GTP        -0.8909
      3 O2G         0.8856    8.1703   -3.3460 O.co2     1 GTP        -0.8909
      4 O3G        -1.6661    8.0702   -3.5438 O.co2     1 GTP        -0.8909
      5 O3B        -0.4036    6.2294   -2.4215 O.3       1 GTP        -0.7106
      6 PB         -1.4495    5.0329   -2.1216 P.3       1 GTP         1.8242
      7 O1B        -2.8738    5.4696   -1.9448 O.2       1 GTP        -0.9138
      8 O2B        -1.1969    4.0008   -3.3398 O.3       1 GTP        -0.7900
      9 O3A        -0.7948    4.2874   -0.8470 O.3       1 GTP        -0.8086
     10 PA         -0.4418    4.8275    0.6351 P.3       1 GTP         1.7888
     11 O1A         0.5363    5.9662    0.6563 O.2       1 GTP        -0.8200
     12 O2A        -1.8895    5.1640    1.2739 O.3       1 GTP        -0.8185
     13 O5'         0.0170    3.5129    1.4592 O.3       1 GTP        -0.5679
     14 C5'        -0.8811    2.4285    1.6206 C.3       1 GTP         0.1794
     15 C4'        -0.1994    1.3333    2.4288 C.3       1 GTP         0.1313
     16 O4'        -1.1285    0.2356    2.5840 O.3       1 GTP        -0.3993
     17 C3'         1.0324    0.7610    1.7344 C.3       1 GTP         0.0846
     18 O3'         1.9175    0.2377    2.7247 O.3       1 GTP        -0.5819
     19 C2'         0.4468   -0.3802    0.9263 C.3       1 GTP         0.0567
     20 O2'         1.3993   -1.3703    0.5961 O.3       1 GTP        -0.5837
     21 C1'        -0.6159   -0.9100    1.8769 C.3       1 GTP         0.2547
     22 N9         -1.7127   -1.6108    1.2130 N.pl3     1 GTP        -0.2013
     23 C8         -1.7695   -2.9586    0.9546 C.ar      1 GTP         0.4384
     24 N7         -2.8846   -3.3047    0.3416 N.2       1 GTP        -0.6072
     25 C5         -3.5626   -2.1296    0.2052 C.ar      1 GTP         0.1855
     26 C6         -4.8477   -1.8989   -0.3942 C.ar      1 GTP         0.6502
     27 O6         -5.5373   -2.7819   -0.8881 O.2       1 GTP        -0.6193
     28 N1         -5.1895   -0.5407   -0.3318 N.pl3     1 GTP        -0.5097
     29 C2         -4.3899    0.4774    0.2398 C.ar      1 GTP         0.6454
     30 N2         -4.9233    1.7390    0.1898 N.pl3     1 GTP        -0.8839
     31 N3         -3.2159    0.2369    0.7822 N.2       1 GTP        -0.6390
     32 C4         -2.8678   -1.0679    0.7322 C.ar      1 GTP         0.0961
     33 HOB2       -1.4229    4.2797   -4.2526 H         1 GTP         0.4357
     34 HOA2       -2.4265    5.8837    0.8794 H         1 GTP         0.4835
     35 H5'        -1.7776    2.7841    2.1389 H         1 GTP         0.0448
     36 H5''       -1.1659    2.0533    0.6322 H         1 GTP         0.0448
     37 H4'         0.0402    1.7079    3.4342 H         1 GTP         0.1246
     38 H3'         1.5907    1.4859    1.1353 H         1 GTP         0.0764
     39 HO3'        2.6839   -0.1150    2.2479 H         1 GTP         0.4062
     40 H2'        -0.0017    0.0018    0.0005 H         1 GTP         0.0706
     41 HO2'        2.0953   -0.9375    0.0709 H         1 GTP         0.4064
     42 H1'        -0.1998   -1.6319    2.6178 H         1 GTP         0.1053
     43 H8         -0.9713   -3.6323    1.2352 H         1 GTP         0.0995
     44 HN1        -6.0831   -0.2651   -0.7290 H         1 GTP         0.3262
     45 HN21       -4.3984    2.4878    0.5788 H         1 GTP         0.4043
     46 HN22       -5.8145    1.8572   -0.2335 H         1 GTP         0.4043
@<TRIPOS>BOND
     1    1    2 2
     2    1    3 1
     3    1    4 1
     4    1    5 1
     5    5    6 1
     6    6    7 2
     7    6    8 1
     8    6    9 1
     9    8   33 1
    10    9   10 1
    11   10   11 2
    12   10   12 1
    13   10   13 1
    14   12   34 1
    15   13   14 1
    16   14   15 1
    17   14   35 1
    18   14   36 1
    19   15   16 1
    20   15   17 1
    21   15   37 1
    22   16   21 1
    23   17   18 1
    24   17   19 1
    25   17   38 1
    26   18   39 1
    27   19   20 1
    28   19   21 1
    29   19   40 1
    30   20   41 1
    31   21   22 1
    32   21   42 1
    33   22   23 ar
    34   22   32 ar
    35   23   24 ar
    36   23   43 1
    37   24   25 ar
    38   25   26 ar
    39   25   32 ar
    40   26   27 2
    41   26   28 ar
    42   28   29 ar
    43   28   44 1
    44   29   30 1
    45   29   31 ar
    46   30   45 1
    47   30   46 1
    48   31   32 ar
@<TRIPOS>SUBSTRUCTURE
     1 GTP         1 GROUP 0 A     ****
@<TRIPOS>MOLECULE
[[[5-(2-amino-6-oxo-1~{H}-purin-9-yl)-3,4-dihydroxy-tetrahydrofuran-2-yl]methoxy-hydroxy-phosphoryl]oxy-hydroxy-phosphoryl] phosphate
   46    48     1     0     0
SMALL
USER_CHARGES

@<TRIPOS>ATOM
      1 PG         -2.1574    3.8523   -4.7513 P.3       1 GTP         1.3594
      2 O1G        -3.6385    4.1275   -4.5135 O.co2     1 GTP        -0.8909
      3 O2G        -1.8547    2.4547   -5.2813 O.co2     1 GTP        -0.8909
      4 O3G        -1.4220    4.9712   -5.4816 O.co2     1 GTP        -0.8909
      5 O3B        -1.4965    3.8672   -3.2417 O.3       1 GTP        -0.7106
      6 PB         -1.4495    5.0329   -2.1216 P.3       1 GTP         1.8242
      7 O1B        -0.7570    6.2926   -2.5508 O.2       1 GTP        -0.9138
      8 O2B        -3.0006    5.2135   -1.7040 O.3       1 GTP        -0.7900
      9 O3A        -0.7948    4.2874   -0.8470 O.3       1 GTP        -0.8086
     10 PA         -0.4418    4.8275    0.6351 P.3       1 GTP         1.7888
     11 O1A         0.5363    5.9662    0.6563 O.2       1 GTP        -0.8200
     12 O2A        -1.8895    5.1640    1.2739 O.3       1 GTP        -0.8185
     13 O5'         0.0170    3.5129    1.4592 O.3       1 GTP        -0.5679
     14 C5'        -0.8811    2.4285    1.6206 C.3       1 GTP         0.1794
     15 C4'        -0.1994    1.3333    2.4288 C.3       1 GTP         0.1313
     16 O4'        -1.1285    0.2356    2.5840 O.3       1 GTP        -0.3993
     17 C3'         1.0324    0.7610    1.7344 C.3       1 GTP         0.0846
     18 O3'         1.9175    0.2377    2.7247 O.3       1 GTP        -0.5819
     19 C2'         0.4468   -0.3802    0.9263 C.3       1 GTP         0.0567
     20 O2'         1.3993   -1.3703    0.5961 O.3       1 GTP        -0.5837
     21 C1'        -0.6159   -0.9100    1.8769 C.3       1 GTP         0.2547
     22 N9         -1.7127   -1.6108    1.2130 N.pl3     1 GTP        -0.2013
     23 C8         -1.7695   -2.9586    0.9546 C.ar      1 GTP         0.4384
     24 N7         -2.8846   -3.3047    0.3416 N.2       1 GTP        -0.6072
     25 C5         -3.5626   -2.1296    0.2052 C.ar      1 GTP         0.1855
     26 C6         -4.8477   -1.8989   -0.3942 C.ar      1 GTP         0.6502
     27 O6         -5.5373   -2.7819   -0.8881 O.2       1 GTP        -0.6193
     28 N1         -5.1895   -0.5407   -0.3318 N.pl3     1 GTP        -0.5097
     29 C2         -4.3899    0.4774    0.2398 C.ar      1 GTP         0.6454
     30 N2         -4.9233    1.7390    0.1898 N.pl3     1 GTP        -0.8839
     31 N3         -3.2159    0.2369    0.7822 N.2       1 GTP        -0.6390
     32 C4         -2.8678   -1.0679    0.7322 C.ar      1 GTP         0.0961
     33 HOB2       -3.6338    5.5592   -2.3686 H         1 GTP         0.4357
     34 HOA2       -2.4265    5.8837    0.8794 H         1 GTP         0.4835
     35 H5'        -1.7776    2.7841    2.1389 H         1 GTP         0.0448
     36 H5''       -1.1659    2.0533    0.6322 H         1 GTP         0.0448
     37 H4'         0.0402    1.7079    3.4342 H         1 GTP         0.1246
     38 H3'         1.5907    1.4859    1.1353 H         1 GTP         0.0764
     39 HO3'        2.6839   -0.1150    2.2479 H         1 GTP         0.4062
     40 H2'        -0.0017    0.0018    0.0005 H         1 GTP         0.0706
     41 HO2'        0.9369   -2.0558    0.0825 H         1 GTP         0.4064
     42 H1'        -0.1998   -1.6319    2.6178 H         1 GTP         0.1053
     43 H8         -0.9713   -3.6323    1.2352 H         1 GTP         0.0995
     44 HN1        -6.0831   -0.2651   -0.7290 H         1 GTP         0.3262
     45 HN21       -4.3984    2.4878    0.5788 H         1 GTP         0.4043
     46 HN22       -5.8145    1.8572   -0.2335 H         1 GTP         0.4043
@<TRIPOS>BOND
     1    1    2 2
     2    1    3 1
     3    1    4 1
     4    1    5 1
     5    5    6 1
     6    6    7 2
     7    6    8 1
     8    6    9 1
     9    8   33 1
    10    9   10 1
    11   10   11 2
    12   10   12 1
    13   10   13 1
    14   12   34 1
    15   13   14 1
    16   14   15 1
    17   14   35 1
    18   14   36 1
    19   15   16 1
    20   15   17 1
    21   15   37 1
    22   16   21 1
    23   17   18 1
    24   17   19 1
    25   17   38 1
    26   18   39 1
    27   19   20 1
    28   19   21 1
    29   19   40 1
    30   20   41 1
    31   21   22 1
    32   21   42 1
    33   22   23 ar
    34   22   32 ar
    35   23   24 ar
    36   23   43 1
    37   24   25 ar
    38   25   26 ar
    39   25   32 ar
    40   26   27 2
    41   26   28 ar
    42   28   29 ar
    43   28   44 1
    44   29   30 1
    45   29   31 ar
    46   30   45 1
    47   30   46 1
    48   31   32 ar
@<TRIPOS>SUBSTRUCTURE
     1 GTP         1 GROUP 0 A     ****
@<TRIPOS>MOLECULE
[[[5-(2-amino-6-oxo-1~{H}-purin-9-yl)-3,4-dihydroxy-tetrahydrofuran-2-yl]methoxy-hydroxy-phosphoryl]oxy-hydroxy-phosphoryl] phosphate
   46    48     1     0     0
SMALL
USER_CHARGES

@<TRIPOS>ATOM
      1 PG          1.3327    3.7284    5.4717 P.3       1 GTP         1.3594
      2 O1G         2.3474    4.8669    5.4933 O.co2     1 GTP        -0.8909
      3 O2G         1.8959    2.3932    4.9966 O.co2     1 GTP        -0.8909
      4 O3G         0.4718    3.6332    6.7271 O.co2     1 GTP        -0.8909
      5 O3B         0.2645    4.1620    4.2942 O.3       1 GTP        -0.7106
      6 PB         -0.6841    5.4647    4.1573 P.3       1 GTP         1.8242
      7 O1B        -1.6765    5.6419    5.2683 O.2       1 GTP        -0.9138
      8 O2B         0.3694    6.6780    3.9811 O.3       1 GTP        -0.7900
      9 O3A        -1.3235    5.2967    2.6835 O.3       1 GTP        -0.8086
     10 PA         -2.5519    4.3888    2.1545 P.3       1 GTP         1.7888
     11 O1A        -3.8664    4.6910    2.8135 O.2       1 GTP        -0.8200
     12 O2A        -2.5288    4.6111    0.5522 O.3       1 GTP        -0.8185
     13 O5'        -2.0396    2.8622    2.3120 O.3       1 GTP        -0.5679
     14 C5'        -0.8811    2.4285    1.6206 C.3       1 GTP         0.1794
     15 C4'        -0.1994    1.3333    2.4288 C.3       1 GTP         0.1313
     16 O4'        -1.1285    0.2356    2.5840 O.3       1 GTP        -0.3993
     17 C3'         1.0324    0.7610    1.7344 C.3       1 GTP         0.0846
     18 O3'         1.9175    0.2377    2.7247 O.3       1 GTP        -0.5819
     19 C2'         0.4468   -0.3802    0.9263 C.3       1 GTP         0.0567
     20 O2'         1.3993   -1.3703    0.5961 O.3       1 GTP        -0.5837
     21 C1'        -0.6159   -0.9100    1.8769 C.3       1 GTP         0.2547
     22 N9         -1.7127   -1.6108    1.2130 N.pl3     1 GTP        -0.2013
     23 C8         -2.5489   -1.0812    0.2607 C.ar      1 GTP         0.4384
     24 N7         -3.4468   -1.9516   -0.1576 N.2       1 GTP        -0.6072
     25 C5         -3.1696   -3.0787    0.5579 C.ar      1 GTP         0.1855
     26 C6         -3.8307   -4.3536    0.5166 C.ar      1 GTP         0.6502
     27 O6         -4.7841   -4.6033   -0.2101 O.2       1 GTP        -0.6193
     28 N1         -3.2356   -5.2522    1.4132 N.pl3     1 GTP        -0.5097
     29 C2         -2.1338   -4.9602    2.2517 C.ar      1 GTP         0.6454
     30 N2         -1.7156   -5.9923    3.0507 N.pl3     1 GTP        -0.8839
     31 N3         -1.5477   -3.7827    2.2686 N.2       1 GTP        -0.6390
     32 C4         -2.1070   -2.9013    1.4104 C.ar      1 GTP         0.0961
     33 HOB2        0.9626    6.9037    4.7290 H         1 GTP         0.4357
     34 HOA2       -3.1459    4.0937   -0.0076 H         1 GTP         0.4835
     35 H5'        -1.1760    2.0498    0.6365 H         1 GTP         0.0448
     36 H5''       -0.2072    3.2811    1.4873 H         1 GTP         0.0448
     37 H4'         0.0402    1.7079    3.4342 H         1 GTP         0.1246
     38 H3'         1.5907    1.4859    1.1353 H         1 GTP         0.0764
     39 HO3'        2.6839   -0.1150    2.2479 H         1 GTP         0.4062
     40 H2'        -0.0017    0.0018    0.0005 H         1 GTP         0.0706
     41 HO2'        2.0953   -0.9375    0.0709 H         1 GTP         0.4064
     42 H1'        -0.1998   -1.6319    2.6178 H         1 GTP         0.1053
     43 H8         -2.4545   -0.0604   -0.0844 H         1 GTP         0.0995
     44 HN1        -3.6270   -6.1884    1.4651 H         1 GTP         0.3262
     45 HN21       -0.9445   -5.8354    3.6574 H         1 GTP         0.4043
     46 HN22       -2.1993   -6.8585    2.9930 H         1 GTP         0.4043
@<TRIPOS>BOND
     1    1    2 2
     2    1    3 1
     3    1    4 1
     4    1    5 1
     5    5    6 1
     6    6    7 2
     7    6    8 1
     8    6    9 1
     9    8   33 1
    10    9   10 1
    11   10   11 2
    12   10   12 1
    13   10   13 1
    14   12   34 1
    15   13   14 1
    16   14   15 1
    17   14   35 1
    18   14   36 1
    19   15   16 1
    20   15   17 1
    21   15   37 1
    22   16   21 1
    23   17   18 1
    24   17   19 1
    25   17   38 1
    26   18   39 1
    27   19   20 1
    28   19   21 1
    29   19   40 1
    30   20   41 1
    31   21   22 1
    32   21   42 1
    33   22   23 ar
    34   22   32 ar
    35   23   24 ar
    36   23   43 1
    37   24   25 ar
    38   25   26 ar
    39   25   32 ar
    40   26   27 2
    41   26   28 ar
    42   28   29 ar
    43   28   44 1
    44   29   30 1
    45   29   31 ar
    46   30   45 1
    47   30   46 1
    48   31   32 ar
@<TRIPOS>SUBSTRUCTURE
     1 GTP         1 GROUP 0 A     ****
@<TRIPOS>MOLECULE
[[[5-(2-amino-6-oxo-1~{H}-purin-9-yl)-3,4-dihydroxy-tetrahydrofuran-2-yl]methoxy-hydroxy-phosphoryl]oxy-hydroxy-phosphoryl] phosphate
   46    48     1     0     0
SMALL
USER_CHARGES

@<TRIPOS>ATOM
      1 PG         -1.8646    5.3614   -4.1682 P.3       1 GTP         1.3594
      2 O1G        -0.7524    6.2897   -4.6450 O.co2     1 GTP        -0.8909
      3 O2G        -3.0984    6.0810   -3.6337 O.co2     1 GTP        -0.8909
      4 O3G        -2.1746    4.2136   -5.1236 O.co2     1 GTP        -0.8909
      5 O3B        -1.2261    4.6117   -2.8468 O.3       1 GTP        -0.7106
      6 PB          0.0849    3.6770   -2.6943 P.3       1 GTP         1.8242
      7 O1B         0.0691    2.4279   -3.5250 O.2       1 GTP        -0.9138
      8 O2B         1.3053    4.6902   -3.0058 O.3       1 GTP        -0.7900
      9 O3A         0.1811    3.4417   -1.0992 O.3       1 GTP        -0.8086
     10 PA         -0.0712    4.4471    0.1412 P.3       1 GTP         1.7888
     11 O1A         0.8293    5.6482    0.1502 O.2       1 GTP        -0.8200
     12 O2A        -1.6507    4.7834    0.0451 O.3       1 GTP        -0.8185
     13 O5'         0.0170    3.5129    1.4592 O.3       1 GTP        -0.5679
     14 C5'        -0.8811    2.4285    1.6206 C.3       1 GTP         0.1794
     15 C4'        -0.1994    1.3333    2.4288 C.3       1 GTP         0.1313
     16 O4'        -1.1285    0.2356    2.5840 O.3       1 GTP        -0.3993
     17 C3'         1.0324    0.7610    1.7344 C.3       1 GTP         0.0846
     18 O3'         1.9175    0.2377    2.7247 O.3       1 GTP        -0.5819
     19 C2'         0.4468   -0.3802    0.9263 C.3       1 GTP         0.0567
     20 O2'         1.3993   -1.3703    0.5961 O.3       1 GTP        -0.5837
     21 C1'        -0.6159   -0.9100    1.8769 C.3       1 GTP         0.2547
     22 N9         -1.7127   -1.6108    1.2130 N.pl3     1 GTP        -0.2013
     23 C8         -2.8667   -1.0365    0.7385 C.ar      1 GTP         0.4384
     24 N7         -3.6757   -1.9196    0.1868 N.2       1 GTP        -0.6072
     25 C5         -3.0088   -3.1018    0.3164 C.ar      1 GTP         0.1855
     26 C6         -3.4148   -4.4130   -0.1079 C.ar      1 GTP         0.6502
     27 O6         -4.4753   -4.6480   -0.6732 O.2       1 GTP        -0.6193
     28 N1         -2.4377   -5.3653    0.2144 N.pl3     1 GTP        -0.5097
     29 C2         -1.2132   -5.0902    0.8680 C.ar      1 GTP         0.6454
     30 N2         -0.4066   -6.1772    1.0834 N.pl3     1 GTP        -0.8839
     31 N3         -0.8672   -3.8786    1.2457 N.2       1 GTP        -0.6390
     32 C4         -1.7966   -2.9451    0.9439 C.ar      1 GTP         0.0961
     33 HOB2        2.2263    4.3741   -2.8878 H         1 GTP         0.4357
     34 HOA2       -1.9841    5.2773   -0.7340 H         1 GTP         0.4835
     35 H5'        -1.7776    2.7841    2.1389 H         1 GTP         0.0448
     36 H5''       -1.1659    2.0533    0.6322 H         1 GTP         0.0448
     37 H4'         0.0402    1.7079    3.4342 H         1 GTP         0.1246
     38 H3'         1.5907    1.4859    1.1353 H         1 GTP         0.0764
     39 HO3'        2.6839   -0.1150    2.2479 H         1 GTP         0.4062
     40 H2'        -0.0017    0.0018    0.0005 H         1 GTP         0.0706
     41 HO2'        2.0953   -0.9375    0.0709 H         1 GTP         0.4064
     42 H1'        -0.1998   -1.6319    2.6178 H         1 GTP         0.1053
     43 H8         -3.0589    0.0244    0.8247 H         1 GTP         0.0995
     44 HN1        -2.6238   -6.3307   -0.0420 H         1 GTP         0.3262
     45 HN21        0.4646   -6.0341    1.5394 H         1 GTP         0.4043
     46 HN22       -0.7235   -7.0673    0.7753 H         1 GTP         0.4043
@<TRIPOS>BOND
     1    1    2 2
     2    1    3 1
     3    1    4 1
     4    1    5 1
     5    5    6 1
     6    6    7 2
     7    6    8 1
     8    6    9 1
     9    8   33 1
    10    9   10 1
    11   10   11 2
    12   10   12 1
    13   10   13 1
    14   12   34 1
    15   13   14 1
    16   14   15 1
    17   14   35 1
    18   14   36 1
    19   15   16 1
    20   15   17 1
    21   15   37 1
    22   16   21 1
    23   17   18 1
    24   17   19 1
    25   17   38 1
    26   18   39 1
    27   19   20 1
    28   19   21 1
    29   19   40 1
    30   20   41 1
    31   21   22 1
    32   21   42 1
    33   22   23 ar
    34   22   32 ar
    35   23   24 ar
    36   23   43 1
    37   24   25 ar
    38   25   26 ar
    39   25   32 ar
    40   26   27 2
    41   26   28 ar
    42   28   29 ar
    43   28   44 1
    44   29   30 1
    45   29   31 ar
    46   30   45 1
    47   30   46 1
    48   31   32 ar
@<TRIPOS>SUBSTRUCTURE
     1 GTP         1 GROUP 0 A     ****
@<TRIPOS>MOLECULE
[[[5-(2-amino-6-oxo-1~{H}-purin-9-yl)-3,4-dihydroxy-tetrahydrofuran-2-yl]methoxy-hydroxy-phosphoryl]oxy-hydroxy-phosphoryl] phosphate
   46    48     1     0     0
SMALL
USER_CHARGES

@<TRIPOS>ATOM
      1 PG         -4.4288    6.8805   -1.3543 P.3       1 GTP         1.3594
      2 O1G        -3.6335    8.0352   -1.9546 O.co2     1 GTP        -0.8909
      3 O2G        -5.1625    7.2267   -0.0630 O.co2     1 GTP        -0.8909
      4 O3G        -5.2708    6.1083   -2.3646 O.co2     1 GTP        -0.8909
      5 O3B        -3.2780    5.7958   -0.8905 O.3       1 GTP        -0.7106
      6 PB         -2.1508    5.0197   -1.7523 P.3       1 GTP         1.8242
      7 O1B        -2.6855    4.1429   -2.8459 O.2       1 GTP        -0.9138
      8 O2B        -1.1724    6.2083   -2.2453 O.3       1 GTP        -0.7900
      9 O3A        -1.2866    4.2581   -0.6199 O.3       1 GTP        -0.8086
     10 PA         -0.4418    4.8275    0.6351 P.3       1 GTP         1.7888
     11 O1A         0.6706    5.7604    0.2532 O.2       1 GTP        -0.8200
     12 O2A        -1.5721    5.4755    1.5941 O.3       1 GTP        -0.8185
     13 O5'         0.0170    3.5129    1.4592 O.3       1 GTP        -0.5679
     14 C5'        -0.8811    2.4285    1.6206 C.3       1 GTP         0.1794
     15 C4'        -0.1994    1.3333    2.4288 C.3       1 GTP         0.1313
     16 O4'        -1.1285    0.2356    2.5840 O.3       1 GTP        -0.3993
     17 C3'         1.0324    0.7610    1.7344 C.3       1 GTP         0.0846
     18 O3'         1.9175    0.2377    2.7247 O.3       1 GTP        -0.5819
     19 C2'         0.4468   -0.3802    0.9263 C.3       1 GTP         0.0567
     20 O2'         1.3993   -1.3703    0.5961 O.3       1 GTP        -0.5837
     21 C1'        -0.6159   -0.9100    1.8769 C.3       1 GTP         0.2547
     22 N9         -1.7127   -1.6108    1.2130 N.pl3     1 GTP        -0.2013
     23 C8         -1.7695   -2.9586    0.9546 C.ar      1 GTP         0.4384
     24 N7         -2.8846   -3.3047    0.3416 N.2       1 GTP        -0.6072
     25 C5         -3.5626   -2.1296    0.2052 C.ar      1 GTP         0.1855
     26 C6         -4.8477   -1.8989   -0.3942 C.ar      1 GTP         0.6502
     27 O6         -5.5373   -2.7819   -0.8881 O.2       1 GTP        -0.6193
     28 N1         -5.1895   -0.5407   -0.3318 N.pl3     1 GTP        -0.5097
     29 C2         -4.3899    0.4774    0.2398 C.ar      1 GTP         0.6454
     30 N2         -4.9233    1.7390    0.1898 N.pl3     1 GTP        -0.8839
     31 N3         -3.2159    0.2369    0.7822 N.2       1 GTP        -0.6390
     32 C4         -2.8678   -1.0679    0.7322 C.ar      1 GTP         0.0961
     33 HOB2       -1.5187    6.8789   -2.8717 H         1 GTP         0.4357
     34 HOA2       -2.0771    6.2530    1.2740 H         1 GTP         0.4835
     35 H5'        -1.7776    2.7841    2.1389 H         1 GTP         0.0448
     36 H5''       -1.1659    2.0533    0.6322 H         1 GTP         0.0448
     37 H4'         0.0402    1.7079    3.4342 H         1 GTP         0.1246
     38 H3'         1.5907    1.4859    1.1353 H         1 GTP         0.0764
     39 HO3'        2.6839   -0.1150    2.2479 H         1 GTP         0.4062
     40 H2'        -0.0017    0.0018    0.0005 H         1 GTP         0.0706
     41 HO2'        2.0953   -0.9375    0.0709 H         1 GTP         0.4064
     42 H1'        -0.1998   -1.6319    2.6178 H         1 GTP         0.1053
     43 H8         -0.9713   -3.6323    1.2352 H         1 GTP         0.0995
     44 HN1        -6.0831   -0.2651   -0.7290 H         1 GTP         0.3262
     45 HN21       -4.3984    2.4878    0.5788 H         1 GTP         0.4043
     46 HN22       -5.8145    1.8572   -0.2335 H         1 GTP         0.4043
@<TRIPOS>BOND
     1    1    2 2
     2    1    3 1
     3    1    4 1
     4    1    5 1
     5    5    6 1
     6    6    7 2
     7    6    8 1
     8    6    9 1
     9    8   33 1
    10    9   10 1
    11   10   11 2
    12   10   12 1
    13   10   13 1
    14   12   34 1
    15   13   14 1
    16   14   15 1
    17   14   35 1
    18   14   36 1
    19   15   16 1
    20   15   17 1
    21   15   37 1
    22   16   21 1
    23   17   18 1
    24   17   19 1
    25   17   38 1
    26   18   39 1
    27   19   20 1
    28   19   21 1
    29   19   40 1
    30   20   41 1
    31   21   22 1
    32   21   42 1
    33   22   23 ar
    34   22   32 ar
    35   23   24 ar
    36   23   43 1
    37   24   25 ar
    38   25   26 ar
    39   25   32 ar
    40   26   27 2
    41   26   28 ar
    42   28   29 ar
    43   28   44 1
    44   29   30 1
    45   29   31 ar
    46   30   45 1
    47   30   46 1
    48   31   32 ar
@<TRIPOS>SUBSTRUCTURE
     1 GTP         1 GROUP 0 A     ****
@<TRIPOS>MOLECULE
[[[5-(2-amino-6-oxo-1~{H}-purin-9-yl)-3,4-dihydroxy-tetrahydrofuran-2-yl]methoxy-hydroxy-phosphoryl]oxy-hydroxy-phosphoryl] phosphate
   46    48     1     0     0
SMALL
USER_CHARGES

@<TRIPOS>ATOM
      1 PG         -2.8317    8.0822    4.0090 P.3       1 GTP         1.3594
      2 O1G        -1.6964    9.0817    4.2041 O.co2     1 GTP        -0.8909
      3 O2G        -4.0657    8.3581    4.8617 O.co2     1 GTP        -0.8909
      4 O3G        -3.1385    7.7601    2.5502 O.co2     1 GTP        -0.8909
      5 O3B        -2.2320    6.6682    4.6063 O.3       1 GTP        -0.7106
      6 PB         -0.9383    5.8020    4.1685 P.3       1 GTP         1.8242
      7 O1B         0.3716    6.5251    4.2781 O.2       1 GTP        -0.9138
      8 O2B        -1.0596    4.4661    5.0706 O.3       1 GTP        -0.7900
      9 O3A        -1.3235    5.2967    2.6835 O.3       1 GTP        -0.8086
     10 PA         -2.5519    4.3888    2.1545 P.3       1 GTP         1.7888
     11 O1A        -3.8664    4.6910    2.8135 O.2       1 GTP        -0.8200
     12 O2A        -2.5288    4.6111    0.5522 O.3       1 GTP        -0.8185
     13 O5'        -2.0396    2.8622    2.3120 O.3       1 GTP        -0.5679
     14 C5'        -0.8811    2.4285    1.6206 C.3       1 GTP         0.1794
     15 C4'        -0.1994    1.3333    2.4288 C.3       1 GTP         0.1313
     16 O4'        -1.1285    0.2356    2.5840 O.3       1 GTP        -0.3993
     17 C3'         1.0324    0.7610    1.7344 C.3       1 GTP         0.0846
     18 O3'         1.9175    0.2377    2.7247 O.3       1 GTP        -0.5819
     19 C2'         0.4468   -0.3802    0.9263 C.3       1 GTP         0.0567
     20 O2'         1.3993   -1.3703    0.5961 O.3       1 GTP        -0.5837
     21 C1'        -0.6159   -0.9100    1.8769 C.3       1 GTP         0.2547
     22 N9         -1.7127   -1.6108    1.2130 N.pl3     1 GTP        -0.2013
     23 C8         -2.5489   -1.0812    0.2607 C.ar      1 GTP         0.4384
     24 N7         -3.4468   -1.9516   -0.1576 N.2       1 GTP        -0.6072
     25 C5         -3.1696   -3.0787    0.5579 C.ar      1 GTP         0.1855
     26 C6         -3.8307   -4.3536    0.5166 C.ar      1 GTP         0.6502
     27 O6         -4.7841   -4.6033   -0.2101 O.2       1 GTP        -0.6193
     28 N1         -3.2356   -5.2522    1.4132 N.pl3     1 GTP        -0.5097
     29 C2         -2.1338   -4.9602    2.2517 C.ar      1 GTP         0.6454
     30 N2         -1.7156   -5.9923    3.0507 N.pl3     1 GTP        -0.8839
     31 N3         -1.5477   -3.7827    2.2686 N.2       1 GTP        -0.6390
     32 C4         -2.1070   -2.9013    1.4104 C.ar      1 GTP         0.0961
     33 HOB2       -0.4264    3.7324    4.9195 H         1 GTP         0.4357
     34 HOA2       -3.1459    4.0937   -0.0076 H         1 GTP         0.4835
     35 H5'        -1.1760    2.0498    0.6365 H         1 GTP         0.0448
     36 H5''       -0.2072    3.2811    1.4873 H         1 GTP         0.0448
     37 H4'         0.0402    1.7079    3.4342 H         1 GTP         0.1246
     38 H3'         1.5907    1.4859    1.1353 H         1 GTP         0.0764
     39 HO3'        2.6839   -0.1150    2.2479 H         1 GTP         0.4062
     40 H2'        -0.0017    0.0018    0.0005 H         1 GTP         0.0706
     41 HO2'        2.0953   -0.9375    0.0709 H         1 GTP         0.4064
     42 H1'        -0.1998   -1.6319    2.6178 H         1 GTP         0.1053
     43 H8         -2.4545   -0.0604   -0.0844 H         1 GTP         0.0995
     44 HN1        -3.6270   -6.1884    1.4651 H         1 GTP         0.3262
     45 HN21       -0.9445   -5.8354    3.6574 H         1 GTP         0.4043
     46 HN22       -2.1993   -6.8585    2.9930 H         1 GTP         0.4043
@<TRIPOS>BOND
     1    1    2 2
     2    1    3 1
     3    1    4 1
     4    1    5 1
     5    5    6 1
     6    6    7 2
     7    6    8 1
     8    6    9 1
     9    8   33 1
    10    9   10 1
    11   10   11 2
    12   10   12 1
    13   10   13 1
    14   12   34 1
    15   13   14 1
    16   14   15 1
    17   14   35 1
    18   14   36 1
    19   15   16 1
    20   15   17 1
    21   15   37 1
    22   16   21 1
    23   17   18 1
    24   17   19 1
    25   17   38 1
    26   18   39 1
    27   19   20 1
    28   19   21 1
    29   19   40 1
    30   20   41 1
    31   21   22 1
    32   21   42 1
    33   22   23 ar
    34   22   32 ar
    35   23   24 ar
    36   23   43 1
    37   24   25 ar
    38   25   26 ar
    39   25   32 ar
    40   26   27 2
    41   26   28 ar
    42   28   29 ar
    43   28   44 1
    44   29   30 1
    45   29   31 ar
    46   30   45 1
    47   30   46 1
    48   31   32 ar
@<TRIPOS>SUBSTRUCTURE
     1 GTP         1 GROUP 0 A     ****
@<TRIPOS>MOLECULE
[[[5-(2-amino-6-oxo-1~{H}-purin-9-yl)-3,4-dihydroxy-tetrahydrofuran-2-yl]methoxy-hydroxy-phosphoryl]oxy-hydroxy-phosphoryl] phosphate
   46    48     1     0     0
SMALL
USER_CHARGES

@<TRIPOS>ATOM
      1 PG          1.4703    8.3749    2.7756 P.3       1 GTP         1.3594
      2 O1G         1.2426    8.9386    1.3769 O.co2     1 GTP        -0.8909
      3 O2G         2.8746    7.8291    3.0126 O.co2     1 GTP        -0.8909
      4 O3G         0.9452    9.2606    3.9007 O.co2     1 GTP        -0.8909
      5 O3B         0.5004    7.0440    2.8374 O.3       1 GTP        -0.7106
      6 PB         -1.1013    6.8965    2.6687 P.3       1 GTP         1.8242
      7 O1B        -1.9142    7.6642    3.6689 O.2       1 GTP        -0.9138
      8 O2B        -1.3541    7.3036    1.1249 O.3       1 GTP        -0.7900
      9 O3A        -1.3235    5.2967    2.6835 O.3       1 GTP        -0.8086
     10 PA         -2.5519    4.3888    2.1545 P.3       1 GTP         1.7888
     11 O1A        -3.8664    4.6910    2.8135 O.2       1 GTP        -0.8200
     12 O2A        -2.5288    4.6111    0.5522 O.3       1 GTP        -0.8185
     13 O5'        -2.0396    2.8622    2.3120 O.3       1 GTP        -0.5679
     14 C5'        -0.8811    2.4285    1.6206 C.3       1 GTP         0.1794
     15 C4'        -0.1994    1.3333    2.4288 C.3       1 GTP         0.1313
     16 O4'        -1.1285    0.2356    2.5840 O.3       1 GTP        -0.3993
     17 C3'         1.0324    0.7610    1.7344 C.3       1 GTP         0.0846
     18 O3'         1.9175    0.2377    2.7247 O.3       1 GTP        -0.5819
     19 C2'         0.4468   -0.3802    0.9263 C.3       1 GTP         0.0567
     20 O2'         1.3993   -1.3703    0.5961 O.3       1 GTP        -0.5837
     21 C1'        -0.6159   -0.9100    1.8769 C.3       1 GTP         0.2547
     22 N9         -1.7127   -1.6108    1.2130 N.pl3     1 GTP        -0.2013
     23 C8         -1.7695   -2.9586    0.9546 C.ar      1 GTP         0.4384
     24 N7         -2.8846   -3.3047    0.3416 N.2       1 GTP        -0.6072
     25 C5         -3.5626   -2.1296    0.2052 C.ar      1 GTP         0.1855
     26 C6         -4.8477   -1.8989   -0.3942 C.ar      1 GTP         0.6502
     27 O6         -5.5373   -2.7819   -0.8881 O.2       1 GTP        -0.6193
     28 N1         -5.1895   -0.5407   -0.3318 N.pl3     1 GTP        -0.5097
     29 C2         -4.3899    0.4774    0.2398 C.ar      1 GTP         0.6454
     30 N2         -4.9233    1.7390    0.1898 N.pl3     1 GTP        -0.8839
     31 N3         -3.2159    0.2369    0.7822 N.2       1 GTP        -0.6390
     32 C4         -2.8678   -1.0679    0.7322 C.ar      1 GTP         0.0961
     33 HOB2       -1.1777    8.2262    0.8424 H         1 GTP         0.4357
     34 HOA2       -2.7205    5.5039    0.1942 H         1 GTP         0.4835
     35 H5'        -1.1760    2.0498    0.6365 H         1 GTP         0.0448
     36 H5''       -0.2072    3.2811    1.4873 H         1 GTP         0.0448
     37 H4'         0.0402    1.7079    3.4342 H         1 GTP         0.1246
     38 H3'         1.5907    1.4859    1.1353 H         1 GTP         0.0764
     39 HO3'        2.6839   -0.1150    2.2479 H         1 GTP         0.4062
     40 H2'        -0.0017    0.0018    0.0005 H         1 GTP         0.0706
     41 HO2'        0.9369   -2.0558    0.0825 H         1 GTP         0.4064
     42 H1'        -0.1998   -1.6319    2.6178 H         1 GTP         0.1053
     43 H8         -0.9713   -3.6323    1.2352 H         1 GTP         0.0995
     44 HN1        -6.0831   -0.2651   -0.7290 H         1 GTP         0.3262
     45 HN21       -4.3984    2.4878    0.5788 H         1 GTP         0.4043
     46 HN22       -5.8145    1.8572   -0.2335 H         1 GTP         0.4043
@<TRIPOS>BOND
     1    1    2 2
     2    1    3 1
     3    1    4 1
     4    1    5 1
     5    5    6 1
     6    6    7 2
     7    6    8 1
     8    6    9 1
     9    8   33 1
    10    9   10 1
    11   10   11 2
    12   10   12 1
    13   10   13 1
    14   12   34 1
    15   13   14 1
    16   14   15 1
    17   14   35 1
    18   14   36 1
    19   15   16 1
    20   15   17 1
    21   15   37 1
    22   16   21 1
    23   17   18 1
    24   17   19 1
    25   17   38 1
    26   18   39 1
    27   19   20 1
    28   19   21 1
    29   19   40 1
    30   20   41 1
    31   21   22 1
    32   21   42 1
    33   22   23 ar
    34   22   32 ar
    35   23   24 ar
    36   23   43 1
    37   24   25 ar
    38   25   26 ar
    39   25   32 ar
    40   26   27 2
    41   26   28 ar
    42   28   29 ar
    43   28   44 1
    44   29   30 1
    45   29   31 ar
    46   30   45 1
    47   30   46 1
    48   31   32 ar
@<TRIPOS>SUBSTRUCTURE
     1 GTP         1 GROUP 0 A     ****
@<TRIPOS>MOLECULE
[[[5-(2-amino-6-oxo-1~{H}-purin-9-yl)-3,4-dihydroxy-tetrahydrofuran-2-yl]methoxy-hydroxy-phosphoryl]oxy-hydroxy-phosphoryl] phosphate
   46    48     1     0     0
SMALL
USER_CHARGES

@<TRIPOS>ATOM
      1 PG          1.0058    4.4805    6.5983 P.3       1 GTP         1.3594
      2 O1G         0.1783    5.1790    7.6723 O.co2     1 GTP        -0.8909
      3 O2G         2.4973    4.4010    6.9062 O.co2     1 GTP        -0.8909
      4 O3G         0.4009    3.1749    6.0924 O.co2     1 GTP        -0.8909
      5 O3B         0.9116    5.4877    5.2973 O.3       1 GTP        -0.7106
      6 PB         -0.3676    6.0076    4.4555 P.3       1 GTP         1.8242
      7 O1B        -1.3791    6.7751    5.2546 O.2       1 GTP        -0.9138
      8 O2B         0.2979    6.8243    3.2295 O.3       1 GTP        -0.7900
      9 O3A        -0.9197    4.6580    3.7607 O.3       1 GTP        -0.8086
     10 PA         -2.1753    4.4068    2.7741 P.3       1 GTP         1.7888
     11 O1A        -3.5039    4.7809    3.3645 O.2       1 GTP        -0.8200
     12 O2A        -1.7757    5.2186    1.4330 O.3       1 GTP        -0.8185
     13 O5'        -2.0396    2.8622    2.3120 O.3       1 GTP        -0.5679
     14 C5'        -0.8811    2.4285    1.6206 C.3       1 GTP         0.1794
     15 C4'        -0.1994    1.3333    2.4288 C.3       1 GTP         0.1313
     16 O4'        -1.1285    0.2356    2.5840 O.3       1 GTP        -0.3993
     17 C3'         1.0324    0.7610    1.7344 C.3       1 GTP         0.0846
     18 O3'         1.9175    0.2377    2.7247 O.3       1 GTP        -0.5819
     19 C2'         0.4468   -0.3802    0.9263 C.3       1 GTP         0.0567
     20 O2'         1.3993   -1.3703    0.5961 O.3       1 GTP        -0.5837
     21 C1'        -0.6159   -0.9100    1.8769 C.3       1 GTP         0.2547
     22 N9         -1.7127   -1.6108    1.2130 N.pl3     1 GTP        -0.2013
     23 C8         -2.8667   -1.0365    0.7385 C.ar      1 GTP         0.4384
     24 N7         -3.6757   -1.9196    0.1868 N.2       1 GTP        -0.6072
     25 C5         -3.0088   -3.1018    0.3164 C.ar      1 GTP         0.1855
     26 C6         -3.4148   -4.4130   -0.1079 C.ar      1 GTP         0.6502
     27 O6         -4.4753   -4.6480   -0.6732 O.2       1 GTP        -0.6193
     28 N1         -2.4377   -5.3653    0.2144 N.pl3     1 GTP        -0.5097
     29 C2         -1.2132   -5.0902    0.8680 C.ar      1 GTP         0.6454
     30 N2         -0.4066   -6.1772    1.0834 N.pl3     1 GTP        -0.8839
     31 N3         -0.8672   -3.8786    1.2457 N.2       1 GTP        -0.6390
     32 C4         -1.7966   -2.9451    0.9439 C.ar      1 GTP         0.0961
     33 HOB2       -0.2828    7.1681    2.5176 H         1 GTP         0.4357
     34 HOA2       -1.6971    6.1953    1.4752 H         1 GTP         0.4835
     35 H5'        -1.1760    2.0498    0.6365 H         1 GTP         0.0448
     36 H5''       -0.2072    3.2811    1.4873 H         1 GTP         0.0448
     37 H4'         0.0402    1.7079    3.4342 H         1 GTP         0.1246
     38 H3'         1.5907    1.4859    1.1353 H         1 GTP         0.0764
     39 HO3'        2.6839   -0.1150    2.2479 H         1 GTP         0.4062
     40 H2'        -0.0017    0.0018    0.0005 H         1 GTP         0.0706
     41 HO2'        0.9369   -2.0558    0.0825 H         1 GTP         0.4064
     42 H1'        -0.1998   -1.6319    2.6178 H         1 GTP         0.1053
     43 H8         -3.0589    0.0244    0.8247 H         1 GTP         0.0995
     44 HN1        -2.6238   -6.3307   -0.0420 H         1 GTP         0.3262
     45 HN21        0.4646   -6.0341    1.5394 H         1 GTP         0.4043
     46 HN22       -0.7235   -7.0673    0.7753 H         1 GTP         0.4043
@<TRIPOS>BOND
     1    1    2 2
     2    1    3 1
     3    1    4 1
     4    1    5 1
     5    5    6 1
     6    6    7 2
     7    6    8 1
     8    6    9 1
     9    8   33 1
    10    9   10 1
    11   10   11 2
    12   10   12 1
    13   10   13 1
    14   12   34 1
    15   13   14 1
    16   14   15 1
    17   14   35 1
    18   14   36 1
    19   15   16 1
    20   15   17 1
    21   15   37 1
    22   16   21 1
    23   17   18 1
    24   17   19 1
    25   17   38 1
    26   18   39 1
    27   19   20 1
    28   19   21 1
    29   19   40 1
    30   20   41 1
    31   21   22 1
    32   21   42 1
    33   22   23 ar
    34   22   32 ar
    35   23   24 ar
    36   23   43 1
    37   24   25 ar
    38   25   26 ar
    39   25   32 ar
    40   26   27 2
    41   26   28 ar
    42   28   29 ar
    43   28   44 1
    44   29   30 1
    45   29   31 ar
    46   30   45 1
    47   30   46 1
    48   31   32 ar
@<TRIPOS>SUBSTRUCTURE
     1 GTP         1 GROUP 0 A     ****
@<TRIPOS>MOLECULE
[[[5-(2-amino-6-oxo-1~{H}-purin-9-yl)-3,4-dihydroxy-tetrahydrofuran-2-yl]methoxy-hydroxy-phosphoryl]oxy-hydroxy-phosphoryl] phosphate
   46    48     1     0     0
SMALL
USER_CHARGES

@<TRIPOS>ATOM
      1 PG         -5.0230    3.7806   -3.0988 P.3       1 GTP         1.3594
      2 O1G        -6.2446    4.5847   -2.6661 O.co2     1 GTP        -0.8909
      3 O2G        -5.2991    2.3010   -3.3446 O.co2     1 GTP        -0.8909
      4 O3G        -4.1854    4.4495   -4.1837 O.co2     1 GTP        -0.8909
      5 O3B        -4.0397    3.7972   -1.7764 O.3       1 GTP        -0.7106
      6 PB         -3.3675    5.0316   -0.9764 P.3       1 GTP         1.8242
      7 O1B        -2.4526    5.8917   -1.7972 O.2       1 GTP        -0.9138
      8 O2B        -4.6382    5.7999   -0.3375 O.3       1 GTP        -0.7900
      9 O3A        -2.6785    4.3104    0.2941 O.3       1 GTP        -0.8086
     10 PA         -3.3133    3.4213    1.4856 P.3       1 GTP         1.7888
     11 O1A        -4.3403    4.1427    2.3091 O.2       1 GTP        -0.8200
     12 O2A        -3.8571    2.0995    0.7277 O.3       1 GTP        -0.8185
     13 O5'        -2.0396    2.8622    2.3120 O.3       1 GTP        -0.5679
     14 C5'        -0.8811    2.4285    1.6206 C.3       1 GTP         0.1794
     15 C4'        -0.1994    1.3333    2.4288 C.3       1 GTP         0.1313
     16 O4'        -1.1285    0.2356    2.5840 O.3       1 GTP        -0.3993
     17 C3'         1.0324    0.7610    1.7344 C.3       1 GTP         0.0846
     18 O3'         1.9175    0.2377    2.7247 O.3       1 GTP        -0.5819
     19 C2'         0.4468   -0.3802    0.9263 C.3       1 GTP         0.0567
     20 O2'         1.3993   -1.3703    0.5961 O.3       1 GTP        -0.5837
     21 C1'        -0.6159   -0.9100    1.8769 C.3       1 GTP         0.2547
     22 N9         -1.7127   -1.6108    1.2130 N.pl3     1 GTP        -0.2013
     23 C8         -2.5489   -1.0812    0.2607 C.ar      1 GTP         0.4384
     24 N7         -3.4468   -1.9516   -0.1576 N.2       1 GTP        -0.6072
     25 C5         -3.1696   -3.0787    0.5579 C.ar      1 GTP         0.1855
     26 C6         -3.8307   -4.3536    0.5166 C.ar      1 GTP         0.6502
     27 O6         -4.7841   -4.6033   -0.2101 O.2       1 GTP        -0.6193
     28 N1         -3.2356   -5.2522    1.4132 N.pl3     1 GTP        -0.5097
     29 C2         -2.1338   -4.9602    2.2517 C.ar      1 GTP         0.6454
     30 N2         -1.7156   -5.9923    3.0507 N.pl3     1 GTP        -0.8839
     31 N3         -1.5477   -3.7827    2.2686 N.2       1 GTP        -0.6390
     32 C4         -2.1070   -2.9013    1.4104 C.ar      1 GTP         0.0961
     33 HOB2       -5.2791    6.2372   -0.9376 H         1 GTP         0.4357
     34 HOA2       -4.5895    2.1905    0.0817 H         1 GTP         0.4835
     35 H5'        -1.1760    2.0498    0.6365 H         1 GTP         0.0448
     36 H5''       -0.2072    3.2811    1.4873 H         1 GTP         0.0448
     37 H4'         0.0402    1.7079    3.4342 H         1 GTP         0.1246
     38 H3'         1.5907    1.4859    1.1353 H         1 GTP         0.0764
     39 HO3'        2.6839   -0.1150    2.2479 H         1 GTP         0.4062
     40 H2'        -0.0017    0.0018    0.0005 H         1 GTP         0.0706
     41 HO2'        2.0953   -0.9375    0.0709 H         1 GTP         0.4064
     42 H1'        -0.1998   -1.6319    2.6178 H         1 GTP         0.1053
     43 H8         -2.4545   -0.0604   -0.0844 H         1 GTP         0.0995
     44 HN1        -3.6270   -6.1884    1.4651 H         1 GTP         0.3262
     45 HN21       -0.9445   -5.8354    3.6574 H         1 GTP         0.4043
     46 HN22       -2.1993   -6.8585    2.9930 H         1 GTP         0.4043
@<TRIPOS>BOND
     1    1    2 2
     2    1    3 1
     3    1    4 1
     4    1    5 1
     5    5    6 1
     6    6    7 2
     7    6    8 1
     8    6    9 1
     9    8   33 1
    10    9   10 1
    11   10   11 2
    12   10   12 1
    13   10   13 1
    14   12   34 1
    15   13   14 1
    16   14   15 1
    17   14   35 1
    18   14   36 1
    19   15   16 1
    20   15   17 1
    21   15   37 1
    22   16   21 1
    23   17   18 1
    24   17   19 1
    25   17   38 1
    26   18   39 1
    27   19   20 1
    28   19   21 1
    29   19   40 1
    30   20   41 1
    31   21   22 1
    32   21   42 1
    33   22   23 ar
    34   22   32 ar
    35   23   24 ar
    36   23   43 1
    37   24   25 ar
    38   25   26 ar
    39   25   32 ar
    40   26   27 2
    41   26   28 ar
    42   28   29 ar
    43   28   44 1
    44   29   30 1
    45   29   31 ar
    46   30   45 1
    47   30   46 1
    48   31   32 ar
@<TRIPOS>SUBSTRUCTURE
     1 GTP         1 GROUP 0 A     ****
@<TRIPOS>MOLECULE
[[[5-(2-amino-6-oxo-1~{H}-purin-9-yl)-3,4-dihydroxy-tetrahydrofuran-2-yl]methoxy-hydroxy-phosphoryl]oxy-hydroxy-phosphoryl] phosphate
   46    48     1     0     0
SMALL
USER_CHARGES

@<TRIPOS>ATOM
      1 PG          2.7070    6.3895    2.6983 P.3       1 GTP         1.3594
      2 O1G         2.6474    7.4730    3.7701 O.co2     1 GTP        -0.8909
      3 O2G         3.9705    6.4183    1.8448 O.co2     1 GTP        -0.8909
      4 O3G         2.3159    4.9999    3.1905 O.co2     1 GTP        -0.8909
      5 O3B         1.4991    6.7903    1.6514 O.3       1 GTP        -0.7106
      6 PB         -0.0932    6.9472    1.8871 P.3       1 GTP         1.8242
      7 O1B        -0.4820    7.9861    2.8971 O.2       1 GTP        -0.9138
      8 O2B        -0.6699    7.1923    0.3971 O.3       1 GTP        -0.7900
      9 O3A        -0.5603    5.4405    2.2346 O.3       1 GTP        -0.8086
     10 PA         -2.0144    4.7371    2.1731 P.3       1 GTP         1.7888
     11 O1A        -3.0449    5.3805    3.0550 O.2       1 GTP        -0.8200
     12 O2A        -2.3736    4.7398    0.5957 O.3       1 GTP        -0.8185
     13 O5'        -1.7334    3.1724    2.4742 O.3       1 GTP        -0.5679
     14 C5'        -0.8811    2.4285    1.6206 C.3       1 GTP         0.1794
     15 C4'        -0.1994    1.3333    2.4288 C.3       1 GTP         0.1313
     16 O4'        -1.1285    0.2356    2.5840 O.3       1 GTP        -0.3993
     17 C3'         1.0324    0.7610    1.7344 C.3       1 GTP         0.0846
     18 O3'         1.9175    0.2377    2.7247 O.3       1 GTP        -0.5819
     19 C2'         0.4468   -0.3802    0.9263 C.3       1 GTP         0.0567
     20 O2'         1.3993   -1.3703    0.5961 O.3       1 GTP        -0.5837
     21 C1'        -0.6159   -0.9100    1.8769 C.3       1 GTP         0.2547
     22 N9         -1.7127   -1.6108    1.2130 N.pl3     1 GTP        -0.2013
     23 C8         -2.8667   -1.0365    0.7385 C.ar      1 GTP         0.4384
     24 N7         -3.6757   -1.9196    0.1868 N.2       1 GTP        -0.6072
     25 C5         -3.0088   -3.1018    0.3164 C.ar      1 GTP         0.1855
     26 C6         -3.4148   -4.4130   -0.1079 C.ar      1 GTP         0.6502
     27 O6         -4.4753   -4.6480   -0.6732 O.2       1 GTP        -0.6193
     28 N1         -2.4377   -5.3653    0.2144 N.pl3     1 GTP        -0.5097
     29 C2         -1.2132   -5.0902    0.8680 C.ar      1 GTP         0.6454
     30 N2         -0.4066   -6.1772    1.0834 N.pl3     1 GTP        -0.8839
     31 N3         -0.8672   -3.8786    1.2457 N.2       1 GTP        -0.6390
     32 C4         -1.7966   -2.9451    0.9439 C.ar      1 GTP         0.0961
     33 HOB2       -0.4258    8.0159   -0.0766 H         1 GTP         0.4357
     34 HOA2       -2.5046    5.5986    0.1404 H         1 GTP         0.4835
     35 H5'        -1.4794    1.9921    0.8142 H         1 GTP         0.0448
     36 H5''       -0.1361    3.1034    1.1867 H         1 GTP         0.0448
     37 H4'         0.0402    1.7079    3.4342 H         1 GTP         0.1246
     38 H3'         1.5907    1.4859    1.1353 H         1 GTP         0.0764
     39 HO3'        2.6839   -0.1150    2.2479 H         1 GTP         0.4062
     40 H2'        -0.0017    0.0018    0.0005 H         1 GTP         0.0706
     41 HO2'        0.9369   -2.0558    0.0825 H         1 GTP         0.4064
     42 H1'        -0.1998   -1.6319    2.6178 H         1 GTP         0.1053
     43 H8         -3.0589    0.0244    0.8247 H         1 GTP         0.0995
     44 HN1        -2.6238   -6.3307   -0.0420 H         1 GTP         0.3262
     45 HN21        0.4646   -6.0341    1.5394 H         1 GTP         0.4043
     46 HN22       -0.7235   -7.0673    0.7753 H         1 GTP         0.4043
@<TRIPOS>BOND
     1    1    2 2
     2    1    3 1
     3    1    4 1
     4    1    5 1
     5    5    6 1
     6    6    7 2
     7    6    8 1
     8    6    9 1
     9    8   33 1
    10    9   10 1
    11   10   11 2
    12   10   12 1
    13   10   13 1
    14   12   34 1
    15   13   14 1
    16   14   15 1
    17   14   35 1
    18   14   36 1
    19   15   16 1
    20   15   17 1
    21   15   37 1
    22   16   21 1
    23   17   18 1
    24   17   19 1
    25   17   38 1
    26   18   39 1
    27   19   20 1
    28   19   21 1
    29   19   40 1
    30   20   41 1
    31   21   22 1
    32   21   42 1
    33   22   23 ar
    34   22   32 ar
    35   23   24 ar
    36   23   43 1
    37   24   25 ar
    38   25   26 ar
    39   25   32 ar
    40   26   27 2
    41   26   28 ar
    42   28   29 ar
    43   28   44 1
    44   29   30 1
    45   29   31 ar
    46   30   45 1
    47   30   46 1
    48   31   32 ar
@<TRIPOS>SUBSTRUCTURE
     1 GTP         1 GROUP 0 A     ****
@<TRIPOS>MOLECULE
[[[5-(2-amino-6-oxo-1~{H}-purin-9-yl)-3,4-dihydroxy-tetrahydrofuran-2-yl]methoxy-hydroxy-phosphoryl]oxy-hydroxy-phosphoryl] phosphate
   46    48     1     0     0
SMALL
USER_CHARGES

@<TRIPOS>ATOM
      1 PG         -1.9086    8.8238    0.5607 P.3       1 GTP         1.3594
      2 O1G        -2.8786    9.5124    1.5152 O.co2     1 GTP        -0.8909
      3 O2G        -2.4839    8.5382   -0.8225 O.co2     1 GTP        -0.8909
      4 O3G        -0.5099    9.4317    0.5433 O.co2     1 GTP        -0.8909
      5 O3B        -1.6809    7.3321    1.2231 O.3       1 GTP        -0.7106
      6 PB         -1.1013    6.8965    2.6687 P.3       1 GTP         1.8242
      7 O1B         0.3012    7.3498    2.9486 O.2       1 GTP        -0.9138
      8 O2B        -2.2168    7.4472    3.7008 O.3       1 GTP        -0.7900
      9 O3A        -1.3235    5.2967    2.6835 O.3       1 GTP        -0.8086
     10 PA         -2.5519    4.3888    2.1545 P.3       1 GTP         1.7888
     11 O1A        -3.8664    4.6910    2.8135 O.2       1 GTP        -0.8200
     12 O2A        -2.5288    4.6111    0.5522 O.3       1 GTP        -0.8185
     13 O5'        -2.0396    2.8622    2.3120 O.3       1 GTP        -0.5679
     14 C5'        -0.8811    2.4285    1.6206 C.3       1 GTP         0.1794
     15 C4'        -0.1994    1.3333    2.4288 C.3       1 GTP         0.1313
     16 O4'        -1.1285    0.2356    2.5840 O.3       1 GTP        -0.3993
     17 C3'         1.0324    0.7610    1.7344 C.3       1 GTP         0.0846
     18 O3'         1.9175    0.2377    2.7247 O.3       1 GTP        -0.5819
     19 C2'         0.4468   -0.3802    0.9263 C.3       1 GTP         0.0567
     20 O2'         1.3993   -1.3703    0.5961 O.3       1 GTP        -0.5837
     21 C1'        -0.6159   -0.9100    1.8769 C.3       1 GTP         0.2547
     22 N9         -1.7127   -1.6108    1.2130 N.pl3     1 GTP        -0.2013
     23 C8         -1.7695   -2.9586    0.9546 C.ar      1 GTP         0.4384
     24 N7         -2.8846   -3.3047    0.3416 N.2       1 GTP        -0.6072
     25 C5         -3.5626   -2.1296    0.2052 C.ar      1 GTP         0.1855
     26 C6         -4.8477   -1.8989   -0.3942 C.ar      1 GTP         0.6502
     27 O6         -5.5373   -2.7819   -0.8881 O.2       1 GTP        -0.6193
     28 N1         -5.1895   -0.5407   -0.3318 N.pl3     1 GTP        -0.5097
     29 C2         -4.3899    0.4774    0.2398 C.ar      1 GTP         0.6454
     30 N2         -4.9233    1.7390    0.1898 N.pl3     1 GTP        -0.8839
     31 N3         -3.2159    0.2369    0.7822 N.2       1 GTP        -0.6390
     32 C4         -2.8678   -1.0679    0.7322 C.ar      1 GTP         0.0961
     33 HOB2       -2.1337    7.2249    4.6525 H         1 GTP         0.4357
     34 HOA2       -3.1459    4.0937   -0.0076 H         1 GTP         0.4835
     35 H5'        -1.1760    2.0498    0.6365 H         1 GTP         0.0448
     36 H5''       -0.2072    3.2811    1.4873 H         1 GTP         0.0448
     37 H4'         0.0402    1.7079    3.4342 H         1 GTP         0.1246
     38 H3'         1.5907    1.4859    1.1353 H         1 GTP         0.0764
     39 HO3'        2.6839   -0.1150    2.2479 H         1 GTP         0.4062
     40 H2'        -0.0017    0.0018    0.0005 H         1 GTP         0.0706
     41 HO2'        0.9369   -2.0558    0.0825 H         1 GTP         0.4064
     42 H1'        -0.1998   -1.6319    2.6178 H         1 GTP         0.1053
     43 H8         -0.9713   -3.6323    1.2352 H         1 GTP         0.0995
     44 HN1        -6.0831   -0.2651   -0.7290 H         1 GTP         0.3262
     45 HN21       -4.3984    2.4878    0.5788 H         1 GTP         0.4043
     46 HN22       -5.8145    1.8572   -0.2335 H         1 GTP         0.4043
@<TRIPOS>BOND
     1    1    2 2
     2    1    3 1
     3    1    4 1
     4    1    5 1
     5    5    6 1
     6    6    7 2
     7    6    8 1
     8    6    9 1
     9    8   33 1
    10    9   10 1
    11   10   11 2
    12   10   12 1
    13   10   13 1
    14   12   34 1
    15   13   14 1
    16   14   15 1
    17   14   35 1
    18   14   36 1
    19   15   16 1
    20   15   17 1
    21   15   37 1
    22   16   21 1
    23   17   18 1
    24   17   19 1
    25   17   38 1
    26   18   39 1
    27   19   20 1
    28   19   21 1
    29   19   40 1
    30   20   41 1
    31   21   22 1
    32   21   42 1
    33   22   23 ar
    34   22   32 ar
    35   23   24 ar
    36   23   43 1
    37   24   25 ar
    38   25   26 ar
    39   25   32 ar
    40   26   27 2
    41   26   28 ar
    42   28   29 ar
    43   28   44 1
    44   29   30 1
    45   29   31 ar
    46   30   45 1
    47   30   46 1
    48   31   32 ar
@<TRIPOS>SUBSTRUCTURE
     1 GTP         1 GROUP 0 A     ****
@<TRIPOS>MOLECULE
[[[5-(2-amino-6-oxo-1~{H}-purin-9-yl)-3,4-dihydroxy-tetrahydrofuran-2-yl]methoxy-hydroxy-phosphoryl]oxy-hydroxy-phosphoryl] phosphate
   46    48     1     0     0
SMALL
USER_CHARGES

@<TRIPOS>ATOM
      1 PG         -0.2119    6.2997    6.2880 P.3       1 GTP         1.3594
      2 O1G         0.3689    4.9705    6.7592 O.co2     1 GTP        -0.8909
      3 O2G        -1.5703    6.6414    6.8912 O.co2     1 GTP        -0.8909
      4 O3G         0.7837    7.4551    6.2937 O.co2     1 GTP        -0.8909
      5 O3B        -0.5257    6.0588    4.6882 O.3       1 GTP        -0.7106
      6 PB          0.4593    5.6668    3.4668 P.3       1 GTP         1.8242
      7 O1B         1.5658    6.6467    3.2094 O.2       1 GTP        -0.9138
      8 O2B         0.9439    4.1710    3.8420 O.3       1 GTP        -0.7900
      9 O3A        -0.5603    5.4405    2.2346 O.3       1 GTP        -0.8086
     10 PA         -2.0144    4.7371    2.1731 P.3       1 GTP         1.7888
     11 O1A        -3.0449    5.3805    3.0550 O.2       1 GTP        -0.8200
     12 O2A        -2.3736    4.7398    0.5957 O.3       1 GTP        -0.8185
     13 O5'        -1.7334    3.1724    2.4742 O.3       1 GTP        -0.5679
     14 C5'        -0.8811    2.4285    1.6206 C.3       1 GTP         0.1794
     15 C4'        -0.1994    1.3333    2.4288 C.3       1 GTP         0.1313
     16 O4'        -1.1285    0.2356    2.5840 O.3       1 GTP        -0.3993
     17 C3'         1.0324    0.7610    1.7344 C.3       1 GTP         0.0846
     18 O3'         1.9175    0.2377    2.7247 O.3       1 GTP        -0.5819
     19 C2'         0.4468   -0.3802    0.9263 C.3       1 GTP         0.0567
     20 O2'         1.3993   -1.3703    0.5961 O.3       1 GTP        -0.5837
     21 C1'        -0.6159   -0.9100    1.8769 C.3       1 GTP         0.2547
     22 N9         -1.7127   -1.6108    1.2130 N.pl3     1 GTP        -0.2013
     23 C8         -2.8667   -1.0365    0.7385 C.ar      1 GTP         0.4384
     24 N7         -3.6757   -1.9196    0.1868 N.2       1 GTP        -0.6072
     25 C5         -3.0088   -3.1018    0.3164 C.ar      1 GTP         0.1855
     26 C6         -3.4148   -4.4130   -0.1079 C.ar      1 GTP         0.6502
     27 O6         -4.4753   -4.6480   -0.6732 O.2       1 GTP        -0.6193
     28 N1         -2.4377   -5.3653    0.2144 N.pl3     1 GTP        -0.5097
     29 C2         -1.2132   -5.0902    0.8680 C.ar      1 GTP         0.6454
     30 N2         -0.4066   -6.1772    1.0834 N.pl3     1 GTP        -0.8839
     31 N3         -0.8672   -3.8786    1.2457 N.2       1 GTP        -0.6390
     32 C4         -1.7966   -2.9451    0.9439 C.ar      1 GTP         0.0961
     33 HOB2        1.4897    3.6732    3.1967 H         1 GTP         0.4357
     34 HOA2       -2.5046    5.5986    0.1404 H         1 GTP         0.4835
     35 H5'        -1.4794    1.9921    0.8142 H         1 GTP         0.0448
     36 H5''       -0.1361    3.1034    1.1867 H         1 GTP         0.0448
     37 H4'         0.0402    1.7079    3.4342 H         1 GTP         0.1246
     38 H3'         1.5907    1.4859    1.1353 H         1 GTP         0.0764
     39 HO3'        2.1521    0.9800    3.3017 H         1 GTP         0.4062
     40 H2'        -0.0017    0.0018    0.0005 H         1 GTP         0.0706
     41 HO2'        0.9369   -2.0558    0.0825 H         1 GTP         0.4064
     42 H1'        -0.1998   -1.6319    2.6178 H         1 GTP         0.1053
     43 H8         -3.0589    0.0244    0.8247 H         1 GTP         0.0995
     44 HN1        -2.6238   -6.3307   -0.0420 H         1 GTP         0.3262
     45 HN21        0.4646   -6.0341    1.5394 H         1 GTP         0.4043
     46 HN22       -0.7235   -7.0673    0.7753 H         1 GTP         0.4043
@<TRIPOS>BOND
     1    1    2 2
     2    1    3 1
     3    1    4 1
     4    1    5 1
     5    5    6 1
     6    6    7 2
     7    6    8 1
     8    6    9 1
     9    8   33 1
    10    9   10 1
    11   10   11 2
    12   10   12 1
    13   10   13 1
    14   12   34 1
    15   13   14 1
    16   14   15 1
    17   14   35 1
    18   14   36 1
    19   15   16 1
    20   15   17 1
    21   15   37 1
    22   16   21 1
    23   17   18 1
    24   17   19 1
    25   17   38 1
    26   18   39 1
    27   19   20 1
    28   19   21 1
    29   19   40 1
    30   20   41 1
    31   21   22 1
    32   21   42 1
    33   22   23 ar
    34   22   32 ar
    35   23   24 ar
    36   23   43 1
    37   24   25 ar
    38   25   26 ar
    39   25   32 ar
    40   26   27 2
    41   26   28 ar
    42   28   29 ar
    43   28   44 1
    44   29   30 1
    45   29   31 ar
    46   30   45 1
    47   30   46 1
    48   31   32 ar
@<TRIPOS>SUBSTRUCTURE
     1 GTP         1 GROUP 0 A     ****
@<TRIPOS>MOLECULE
[[[5-(2-amino-6-oxo-1~{H}-purin-9-yl)-3,4-dihydroxy-tetrahydrofuran-2-yl]methoxy-hydroxy-phosphoryl]oxy-hydroxy-phosphoryl] phosphate
   46    48     1     0     0
SMALL
USER_CHARGES

@<TRIPOS>ATOM
      1 PG         -2.0649    6.2801    6.6550 P.3       1 GTP         1.3594
      2 O1G        -1.7986    4.9176    7.2863 O.co2     1 GTP        -0.8909
      3 O2G        -3.4920    6.7876    6.8333 O.co2     1 GTP        -0.8909
      4 O3G        -0.9896    7.3233    6.9405 O.co2     1 GTP        -0.8909
      5 O3B        -1.9288    6.0081    5.0353 O.3       1 GTP        -0.7106
      6 PB         -0.6841    5.4647    4.1573 P.3       1 GTP         1.8242
      7 O1B         0.5527    6.3110    4.2249 O.2       1 GTP        -0.9138
      8 O2B        -0.5003    3.9428    4.6703 O.3       1 GTP        -0.7900
      9 O3A        -1.3235    5.2967    2.6835 O.3       1 GTP        -0.8086
     10 PA         -2.5519    4.3888    2.1545 P.3       1 GTP         1.7888
     11 O1A        -3.8664    4.6910    2.8135 O.2       1 GTP        -0.8200
     12 O2A        -2.5288    4.6111    0.5522 O.3       1 GTP        -0.8185
     13 O5'        -2.0396    2.8622    2.3120 O.3       1 GTP        -0.5679
     14 C5'        -0.8811    2.4285    1.6206 C.3       1 GTP         0.1794
     15 C4'        -0.1994    1.3333    2.4288 C.3       1 GTP         0.1313
     16 O4'        -1.1285    0.2356    2.5840 O.3       1 GTP        -0.3993
     17 C3'         1.0324    0.7610    1.7344 C.3       1 GTP         0.0846
     18 O3'         1.9175    0.2377    2.7247 O.3       1 GTP        -0.5819
     19 C2'         0.4468   -0.3802    0.9263 C.3       1 GTP         0.0567
     20 O2'         1.3993   -1.3703    0.5961 O.3       1 GTP        -0.5837
     21 C1'        -0.6159   -0.9100    1.8769 C.3       1 GTP         0.2547
     22 N9         -1.7127   -1.6108    1.2130 N.pl3     1 GTP        -0.2013
     23 C8         -2.5489   -1.0812    0.2607 C.ar      1 GTP         0.4384
     24 N7         -3.4468   -1.9516   -0.1576 N.2       1 GTP        -0.6072
     25 C5         -3.1696   -3.0787    0.5579 C.ar      1 GTP         0.1855
     26 C6         -3.8307   -4.3536    0.5166 C.ar      1 GTP         0.6502
     27 O6         -4.7841   -4.6033   -0.2101 O.2       1 GTP        -0.6193
     28 N1         -3.2356   -5.2522    1.4132 N.pl3     1 GTP        -0.5097
     29 C2         -2.1338   -4.9602    2.2517 C.ar      1 GTP         0.6454
     30 N2         -1.7156   -5.9923    3.0507 N.pl3     1 GTP        -0.8839
     31 N3         -1.5477   -3.7827    2.2686 N.2       1 GTP        -0.6390
     32 C4         -2.1070   -2.9013    1.4104 C.ar      1 GTP         0.0961
     33 HOB2       -0.2148    3.7851    5.5953 H         1 GTP         0.4357
     34 HOA2       -3.1459    4.0937   -0.0076 H         1 GTP         0.4835
     35 H5'        -1.1760    2.0498    0.6365 H         1 GTP         0.0448
     36 H5''       -0.2072    3.2811    1.4873 H         1 GTP         0.0448
     37 H4'         0.0402    1.7079    3.4342 H         1 GTP         0.1246
     38 H3'         1.5907    1.4859    1.1353 H         1 GTP         0.0764
     39 HO3'        2.6839   -0.1150    2.2479 H         1 GTP         0.4062
     40 H2'        -0.0017    0.0018    0.0005 H         1 GTP         0.0706
     41 HO2'        2.0953   -0.9375    0.0709 H         1 GTP         0.4064
     42 H1'        -0.1998   -1.6319    2.6178 H         1 GTP         0.1053
     43 H8         -2.4545   -0.0604   -0.0844 H         1 GTP         0.0995
     44 HN1        -3.6270   -6.1884    1.4651 H         1 GTP         0.3262
     45 HN21       -0.9445   -5.8354    3.6574 H         1 GTP         0.4043
     46 HN22       -2.1993   -6.8585    2.9930 H         1 GTP         0.4043
@<TRIPOS>BOND
     1    1    2 2
     2    1    3 1
     3    1    4 1
     4    1    5 1
     5    5    6 1
     6    6    7 2
     7    6    8 1
     8    6    9 1
     9    8   33 1
    10    9   10 1
    11   10   11 2
    12   10   12 1
    13   10   13 1
    14   12   34 1
    15   13   14 1
    16   14   15 1
    17   14   35 1
    18   14   36 1
    19   15   16 1
    20   15   17 1
    21   15   37 1
    22   16   21 1
    23   17   18 1
    24   17   19 1
    25   17   38 1
    26   18   39 1
    27   19   20 1
    28   19   21 1
    29   19   40 1
    30   20   41 1
    31   21   22 1
    32   21   42 1
    33   22   23 ar
    34   22   32 ar
    35   23   24 ar
    36   23   43 1
    37   24   25 ar
    38   25   26 ar
    39   25   32 ar
    40   26   27 2
    41   26   28 ar
    42   28   29 ar
    43   28   44 1
    44   29   30 1
    45   29   31 ar
    46   30   45 1
    47   30   46 1
    48   31   32 ar
@<TRIPOS>SUBSTRUCTURE
     1 GTP         1 GROUP 0 A     ****
@<TRIPOS>MOLECULE
[[[5-(2-amino-6-oxo-1~{H}-purin-9-yl)-3,4-dihydroxy-tetrahydrofuran-2-yl]methoxy-hydroxy-phosphoryl]oxy-hydroxy-phosphoryl] phosphate
   46    48     1     0     0
SMALL
USER_CHARGES

@<TRIPOS>ATOM
      1 PG         -0.2270    9.3405    3.6376 P.3       1 GTP         1.3594
      2 O1G         1.2939    9.4521    3.6573 O.co2     1 GTP        -0.8909
      3 O2G        -0.8859    9.4856    5.0053 O.co2     1 GTP        -0.8909
      4 O3G        -0.8996   10.1456    2.5306 O.co2     1 GTP        -0.8909
      5 O3B        -0.5113    7.7738    3.2128 O.3       1 GTP        -0.7106
      6 PB         -0.0932    6.9472    1.8871 P.3       1 GTP         1.8242
      7 O1B        -0.6309    7.5028    0.6015 O.2       1 GTP        -0.9138
      8 O2B         1.5191    6.8791    1.9815 O.3       1 GTP        -0.7900
      9 O3A        -0.5603    5.4405    2.2346 O.3       1 GTP        -0.8086
     10 PA         -2.0144    4.7371    2.1731 P.3       1 GTP         1.7888
     11 O1A        -3.0449    5.3805    3.0550 O.2       1 GTP        -0.8200
     12 O2A        -2.3736    4.7398    0.5957 O.3       1 GTP        -0.8185
     13 O5'        -1.7334    3.1724    2.4742 O.3       1 GTP        -0.5679
     14 C5'        -0.8811    2.4285    1.6206 C.3       1 GTP         0.1794
     15 C4'        -0.1994    1.3333    2.4288 C.3       1 GTP         0.1313
     16 O4'        -1.1285    0.2356    2.5840 O.3       1 GTP        -0.3993
     17 C3'         1.0324    0.7610    1.7344 C.3       1 GTP         0.0846
     18 O3'         1.9175    0.2377    2.7247 O.3       1 GTP        -0.5819
     19 C2'         0.4468   -0.3802    0.9263 C.3       1 GTP         0.0567
     20 O2'         1.3993   -1.3703    0.5961 O.3       1 GTP        -0.5837
     21 C1'        -0.6159   -0.9100    1.8769 C.3       1 GTP         0.2547
     22 N9         -1.7127   -1.6108    1.2130 N.pl3     1 GTP        -0.2013
     23 C8         -2.8667   -1.0365    0.7385 C.ar      1 GTP         0.4384
     24 N7         -3.6757   -1.9196    0.1868 N.2       1 GTP        -0.6072
     25 C5         -3.0088   -3.1018    0.3164 C.ar      1 GTP         0.1855
     26 C6         -3.4148   -4.4130   -0.1079 C.ar      1 GTP         0.6502
     27 O6         -4.4753   -4.6480   -0.6732 O.2       1 GTP        -0.6193
     28 N1         -2.4377   -5.3653    0.2144 N.pl3     1 GTP        -0.5097
     29 C2         -1.2132   -5.0902    0.8680 C.ar      1 GTP         0.6454
     30 N2         -0.4066   -6.1772    1.0834 N.pl3     1 GTP        -0.8839
     31 N3         -0.8672   -3.8786    1.2457 N.2       1 GTP        -0.6390
     32 C4         -1.7966   -2.9451    0.9439 C.ar      1 GTP         0.0961
     33 HOB2        2.0107    6.3420    1.3242 H         1 GTP         0.4357
     34 HOA2       -2.5046    5.5986    0.1404 H         1 GTP         0.4835
     35 H5'        -1.4794    1.9921    0.8142 H         1 GTP         0.0448
     36 H5''       -0.1361    3.1034    1.1867 H         1 GTP         0.0448
     37 H4'         0.0402    1.7079    3.4342 H         1 GTP         0.1246
     38 H3'         1.5907    1.4859    1.1353 H         1 GTP         0.0764
     39 HO3'        2.6839   -0.1150    2.2479 H         1 GTP         0.4062
     40 H2'        -0.0017    0.0018    0.0005 H         1 GTP         0.0706
     41 HO2'        2.0953   -0.9375    0.0709 H         1 GTP         0.4064
     42 H1'        -0.1998   -1.6319    2.6178 H         1 GTP         0.1053
     43 H8         -3.0589    0.0244    0.8247 H         1 GTP         0.0995
     44 HN1        -2.6238   -6.3307   -0.0420 H         1 GTP         0.3262
     45 HN21        0.4646   -6.0341    1.5394 H         1 GTP         0.4043
     46 HN22       -0.7235   -7.0673    0.7753 H         1 GTP         0.4043
@<TRIPOS>BOND
     1    1    2 2
     2    1    3 1
     3    1    4 1
     4    1    5 1
     5    5    6 1
     6    6    7 2
     7    6    8 1
     8    6    9 1
     9    8   33 1
    10    9   10 1
    11   10   11 2
    12   10   12 1
    13   10   13 1
    14   12   34 1
    15   13   14 1
    16   14   15 1
    17   14   35 1
    18   14   36 1
    19   15   16 1
    20   15   17 1
    21   15   37 1
    22   16   21 1
    23   17   18 1
    24   17   19 1
    25   17   38 1
    26   18   39 1
    27   19   20 1
    28   19   21 1
    29   19   40 1
    30   20   41 1
    31   21   22 1
    32   21   42 1
    33   22   23 ar
    34   22   32 ar
    35   23   24 ar
    36   23   43 1
    37   24   25 ar
    38   25   26 ar
    39   25   32 ar
    40   26   27 2
    41   26   28 ar
    42   28   29 ar
    43   28   44 1
    44   29   30 1
    45   29   31 ar
    46   30   45 1
    47   30   46 1
    48   31   32 ar
@<TRIPOS>SUBSTRUCTURE
     1 GTP         1 GROUP 0 A     ****
@<TRIPOS>MOLECULE
[[[5-(2-amino-6-oxo-1~{H}-purin-9-yl)-3,4-dihydroxy-tetrahydrofuran-2-yl]methoxy-hydroxy-phosphoryl]oxy-hydroxy-phosphoryl] phosphate
   46    48     1     0     0
SMALL
USER_CHARGES

@<TRIPOS>ATOM
      1 PG         -2.6232    8.4676   -1.5843 P.3       1 GTP         1.3594
      2 O1G        -3.5050    7.9314   -2.7073 O.co2     1 GTP        -0.8909
      3 O2G        -1.3253    9.1133   -2.0578 O.co2     1 GTP        -0.8909
      4 O3G        -3.3740    9.2730   -0.5290 O.co2     1 GTP        -0.8909
      5 O3B        -2.1348    7.1177   -0.7750 O.3       1 GTP        -0.7106
      6 PB         -2.9910    5.9737   -0.0174 P.3       1 GTP         1.8242
      7 O1B        -3.8449    6.4690    1.1122 O.2       1 GTP        -0.9138
      8 O2B        -3.7969    5.2522   -1.2187 O.3       1 GTP        -0.7900
      9 O3A        -1.8666    4.8893    0.3938 O.3       1 GTP        -0.8086
     10 PA         -0.5521    5.0215    1.3252 P.3       1 GTP         1.7888
     11 O1A         0.4424    6.0370    0.8422 O.2       1 GTP        -0.8200
     12 O2A        -1.1552    5.3094    2.7985 O.3       1 GTP        -0.8185
     13 O5'         0.0170    3.5129    1.4592 O.3       1 GTP        -0.5679
     14 C5'        -0.8811    2.4285    1.6206 C.3       1 GTP         0.1794
     15 C4'        -0.1994    1.3333    2.4288 C.3       1 GTP         0.1313
     16 O4'        -1.1285    0.2356    2.5840 O.3       1 GTP        -0.3993
     17 C3'         1.0324    0.7610    1.7344 C.3       1 GTP         0.0846
     18 O3'         1.9175    0.2377    2.7247 O.3       1 GTP        -0.5819
     19 C2'         0.4468   -0.3802    0.9263 C.3       1 GTP         0.0567
     20 O2'         1.3993   -1.3703    0.5961 O.3       1 GTP        -0.5837
     21 C1'        -0.6159   -0.9100    1.8769 C.3       1 GTP         0.2547
     22 N9         -1.7127   -1.6108    1.2130 N.pl3     1 GTP        -0.2013
     23 C8         -1.7695   -2.9586    0.9546 C.ar      1 GTP         0.4384
     24 N7         -2.8846   -3.3047    0.3416 N.2       1 GTP        -0.6072
     25 C5         -3.5626   -2.1296    0.2052 C.ar      1 GTP         0.1855
     26 C6         -4.8477   -1.8989   -0.3942 C.ar      1 GTP         0.6502
     27 O6         -5.5373   -2.7819   -0.8881 O.2       1 GTP        -0.6193
     28 N1         -5.1895   -0.5407   -0.3318 N.pl3     1 GTP        -0.5097
     29 C2         -4.3899    0.4774    0.2398 C.ar      1 GTP         0.6454
     30 N2         -4.9233    1.7390    0.1898 N.pl3     1 GTP        -0.8839
     31 N3         -3.2159    0.2369    0.7822 N.2       1 GTP        -0.6390
     32 C4         -2.8678   -1.0679    0.7322 C.ar      1 GTP         0.0961
     33 HOB2       -4.3286    4.4522   -1.0200 H         1 GTP         0.4357
     34 HOA2       -0.5415    5.3532    3.5622 H         1 GTP         0.4835
     35 H5'        -1.7776    2.7841    2.1389 H         1 GTP         0.0448
     36 H5''       -1.1659    2.0533    0.6322 H         1 GTP         0.0448
     37 H4'         0.0402    1.7079    3.4342 H         1 GTP         0.1246
     38 H3'         1.5907    1.4859    1.1353 H         1 GTP         0.0764
     39 HO3'        2.6839   -0.1150    2.2479 H         1 GTP         0.4062
     40 H2'        -0.0017    0.0018    0.0005 H         1 GTP         0.0706
     41 HO2'        2.0953   -0.9375    0.0709 H         1 GTP         0.4064
     42 H1'        -0.1998   -1.6319    2.6178 H         1 GTP         0.1053
     43 H8         -0.9713   -3.6323    1.2352 H         1 GTP         0.0995
     44 HN1        -6.0831   -0.2651   -0.7290 H         1 GTP         0.3262
     45 HN21       -4.3984    2.4878    0.5788 H         1 GTP         0.4043
     46 HN22       -5.8145    1.8572   -0.2335 H         1 GTP         0.4043
@<TRIPOS>BOND
     1    1    2 2
     2    1    3 1
     3    1    4 1
     4    1    5 1
     5    5    6 1
     6    6    7 2
     7    6    8 1
     8    6    9 1
     9    8   33 1
    10    9   10 1
    11   10   11 2
    12   10   12 1
    13   10   13 1
    14   12   34 1
    15   13   14 1
    16   14   15 1
    17   14   35 1
    18   14   36 1
    19   15   16 1
    20   15   17 1
    21   15   37 1
    22   16   21 1
    23   17   18 1
    24   17   19 1
    25   17   38 1
    26   18   39 1
    27   19   20 1
    28   19   21 1
    29   19   40 1
    30   20   41 1
    31   21   22 1
    32   21   42 1
    33   22   23 ar
    34   22   32 ar
    35   23   24 ar
    36   23   43 1
    37   24   25 ar
    38   25   26 ar
    39   25   32 ar
    40   26   27 2
    41   26   28 ar
    42   28   29 ar
    43   28   44 1
    44   29   30 1
    45   29   31 ar
    46   30   45 1
    47   30   46 1
    48   31   32 ar
@<TRIPOS>SUBSTRUCTURE
     1 GTP         1 GROUP 0 A     ****
@<TRIPOS>MOLECULE
[[[5-(2-amino-6-oxo-1~{H}-purin-9-yl)-3,4-dihydroxy-tetrahydrofuran-2-yl]methoxy-hydroxy-phosphoryl]oxy-hydroxy-phosphoryl] phosphate
   46    48     1     0     0
SMALL
USER_CHARGES

@<TRIPOS>ATOM
      1 PG          0.0279    1.9430   -4.9747 P.3       1 GTP         1.3594
      2 O1G        -0.9879    2.9175   -5.5617 O.co2     1 GTP        -0.8909
      3 O2G        -0.4235    0.4863   -4.9781 O.co2     1 GTP        -0.8909
      4 O3G         1.4562    2.1565   -5.4654 O.co2     1 GTP        -0.8909
      5 O3B         0.0965    2.3444   -3.3779 O.3       1 GTP        -0.7106
      6 PB          0.5018    3.7334   -2.6552 P.3       1 GTP         1.8242
      7 O1B         1.8947    4.2108   -2.9424 O.2       1 GTP        -0.9138
      8 O2B        -0.6748    4.7465   -3.1048 O.3       1 GTP        -0.7900
      9 O3A         0.1811    3.4417   -1.0992 O.3       1 GTP        -0.8086
     10 PA         -0.0712    4.4471    0.1412 P.3       1 GTP         1.7888
     11 O1A         0.8293    5.6482    0.1502 O.2       1 GTP        -0.8200
     12 O2A        -1.6507    4.7834    0.0451 O.3       1 GTP        -0.8185
     13 O5'         0.0170    3.5129    1.4592 O.3       1 GTP        -0.5679
     14 C5'        -0.8811    2.4285    1.6206 C.3       1 GTP         0.1794
     15 C4'        -0.1994    1.3333    2.4288 C.3       1 GTP         0.1313
     16 O4'        -1.1285    0.2356    2.5840 O.3       1 GTP        -0.3993
     17 C3'         1.0324    0.7610    1.7344 C.3       1 GTP         0.0846
     18 O3'         1.9175    0.2377    2.7247 O.3       1 GTP        -0.5819
     19 C2'         0.4468   -0.3802    0.9263 C.3       1 GTP         0.0567
     20 O2'         1.3993   -1.3703    0.5961 O.3       1 GTP        -0.5837
     21 C1'        -0.6159   -0.9100    1.8769 C.3       1 GTP         0.2547
     22 N9         -1.7127   -1.6108    1.2130 N.pl3     1 GTP        -0.2013
     23 C8         -2.8667   -1.0365    0.7385 C.ar      1 GTP         0.4384
     24 N7         -3.6757   -1.9196    0.1868 N.2       1 GTP        -0.6072
     25 C5         -3.0088   -3.1018    0.3164 C.ar      1 GTP         0.1855
     26 C6         -3.4148   -4.4130   -0.1079 C.ar      1 GTP         0.6502
     27 O6         -4.4753   -4.6480   -0.6732 O.2       1 GTP        -0.6193
     28 N1         -2.4377   -5.3653    0.2144 N.pl3     1 GTP        -0.5097
     29 C2         -1.2132   -5.0902    0.8680 C.ar      1 GTP         0.6454
     30 N2         -0.4066   -6.1772    1.0834 N.pl3     1 GTP        -0.8839
     31 N3         -0.8672   -3.8786    1.2457 N.2       1 GTP        -0.6390
     32 C4         -1.7966   -2.9451    0.9439 C.ar      1 GTP         0.0961
     33 HOB2       -0.7005    5.6465   -2.7156 H         1 GTP         0.4357
     34 HOA2       -1.9841    5.2773   -0.7340 H         1 GTP         0.4835
     35 H5'        -1.7776    2.7841    2.1389 H         1 GTP         0.0448
     36 H5''       -1.1659    2.0533    0.6322 H         1 GTP         0.0448
     37 H4'         0.0402    1.7079    3.4342 H         1 GTP         0.1246
     38 H3'         1.5907    1.4859    1.1353 H         1 GTP         0.0764
     39 HO3'        2.6839   -0.1150    2.2479 H         1 GTP         0.4062
     40 H2'        -0.0017    0.0018    0.0005 H         1 GTP         0.0706
     41 HO2'        2.0953   -0.9375    0.0709 H         1 GTP         0.4064
     42 H1'        -0.1998   -1.6319    2.6178 H         1 GTP         0.1053
     43 H8         -3.0589    0.0244    0.8247 H         1 GTP         0.0995
     44 HN1        -2.6238   -6.3307   -0.0420 H         1 GTP         0.3262
     45 HN21        0.4646   -6.0341    1.5394 H         1 GTP         0.4043
     46 HN22       -0.7235   -7.0673    0.7753 H         1 GTP         0.4043
@<TRIPOS>BOND
     1    1    2 2
     2    1    3 1
     3    1    4 1
     4    1    5 1
     5    5    6 1
     6    6    7 2
     7    6    8 1
     8    6    9 1
     9    8   33 1
    10    9   10 1
    11   10   11 2
    12   10   12 1
    13   10   13 1
    14   12   34 1
    15   13   14 1
    16   14   15 1
    17   14   35 1
    18   14   36 1
    19   15   16 1
    20   15   17 1
    21   15   37 1
    22   16   21 1
    23   17   18 1
    24   17   19 1
    25   17   38 1
    26   18   39 1
    27   19   20 1
    28   19   21 1
    29   19   40 1
    30   20   41 1
    31   21   22 1
    32   21   42 1
    33   22   23 ar
    34   22   32 ar
    35   23   24 ar
    36   23   43 1
    37   24   25 ar
    38   25   26 ar
    39   25   32 ar
    40   26   27 2
    41   26   28 ar
    42   28   29 ar
    43   28   44 1
    44   29   30 1
    45   29   31 ar
    46   30   45 1
    47   30   46 1
    48   31   32 ar
@<TRIPOS>SUBSTRUCTURE
     1 GTP         1 GROUP 0 A     ****
@<TRIPOS>MOLECULE
[[[5-(2-amino-6-oxo-1~{H}-purin-9-yl)-3,4-dihydroxy-tetrahydrofuran-2-yl]methoxy-hydroxy-phosphoryl]oxy-hydroxy-phosphoryl] phosphate
   46    48     1     0     0
SMALL
USER_CHARGES

@<TRIPOS>ATOM
      1 PG         -2.7064    8.9670    4.0639 P.3       1 GTP         1.3594
      2 O1G        -1.5136    9.3543    4.9318 O.co2     1 GTP        -0.8909
      3 O2G        -4.0147    8.8030    4.8303 O.co2     1 GTP        -0.8909
      4 O3G        -2.8324    9.7750    2.7765 O.co2     1 GTP        -0.8909
      5 O3B        -2.3478    7.4462    3.5403 O.3       1 GTP        -0.7106
      6 PB         -1.1013    6.8965    2.6687 P.3       1 GTP         1.8242
      7 O1B        -0.9644    7.5104    1.3067 O.2       1 GTP        -0.9138
      8 O2B         0.1659    7.1157    3.6482 O.3       1 GTP        -0.7900
      9 O3A        -1.3235    5.2967    2.6835 O.3       1 GTP        -0.8086
     10 PA         -2.5519    4.3888    2.1545 P.3       1 GTP         1.7888
     11 O1A        -3.8664    4.6910    2.8135 O.2       1 GTP        -0.8200
     12 O2A        -2.5288    4.6111    0.5522 O.3       1 GTP        -0.8185
     13 O5'        -2.0396    2.8622    2.3120 O.3       1 GTP        -0.5679
     14 C5'        -0.8811    2.4285    1.6206 C.3       1 GTP         0.1794
     15 C4'        -0.1994    1.3333    2.4288 C.3       1 GTP         0.1313
     16 O4'        -1.1285    0.2356    2.5840 O.3       1 GTP        -0.3993
     17 C3'         1.0324    0.7610    1.7344 C.3       1 GTP         0.0846
     18 O3'         1.9175    0.2377    2.7247 O.3       1 GTP        -0.5819
     19 C2'         0.4468   -0.3802    0.9263 C.3       1 GTP         0.0567
     20 O2'         1.3993   -1.3703    0.5961 O.3       1 GTP        -0.5837
     21 C1'        -0.6159   -0.9100    1.8769 C.3       1 GTP         0.2547
     22 N9         -1.7127   -1.6108    1.2130 N.pl3     1 GTP        -0.2013
     23 C8         -2.5489   -1.0812    0.2607 C.ar      1 GTP         0.4384
     24 N7         -3.4468   -1.9516   -0.1576 N.2       1 GTP        -0.6072
     25 C5         -3.1696   -3.0787    0.5579 C.ar      1 GTP         0.1855
     26 C6         -3.8307   -4.3536    0.5166 C.ar      1 GTP         0.6502
     27 O6         -4.7841   -4.6033   -0.2101 O.2       1 GTP        -0.6193
     28 N1         -3.2356   -5.2522    1.4132 N.pl3     1 GTP        -0.5097
     29 C2         -2.1338   -4.9602    2.2517 C.ar      1 GTP         0.6454
     30 N2         -1.7156   -5.9923    3.0507 N.pl3     1 GTP        -0.8839
     31 N3         -1.5477   -3.7827    2.2686 N.2       1 GTP        -0.6390
     32 C4         -2.1070   -2.9013    1.4104 C.ar      1 GTP         0.0961
     33 HOB2        0.4337    8.0304    3.8801 H         1 GTP         0.4357
     34 HOA2       -2.7205    5.5039    0.1942 H         1 GTP         0.4835
     35 H5'        -1.1760    2.0498    0.6365 H         1 GTP         0.0448
     36 H5''       -0.2072    3.2811    1.4873 H         1 GTP         0.0448
     37 H4'         0.0402    1.7079    3.4342 H         1 GTP         0.1246
     38 H3'         1.5907    1.4859    1.1353 H         1 GTP         0.0764
     39 HO3'        2.6839   -0.1150    2.2479 H         1 GTP         0.4062
     40 H2'        -0.0017    0.0018    0.0005 H         1 GTP         0.0706
     41 HO2'        2.0953   -0.9375    0.0709 H         1 GTP         0.4064
     42 H1'        -0.1998   -1.6319    2.6178 H         1 GTP         0.1053
     43 H8         -2.4545   -0.0604   -0.0844 H         1 GTP         0.0995
     44 HN1        -3.6270   -6.1884    1.4651 H         1 GTP         0.3262
     45 HN21       -0.9445   -5.8354    3.6574 H         1 GTP         0.4043
     46 HN22       -2.1993   -6.8585    2.9930 H         1 GTP         0.4043
@<TRIPOS>BOND
     1    1    2 2
     2    1    3 1
     3    1    4 1
     4    1    5 1
     5    5    6 1
     6    6    7 2
     7    6    8 1
     8    6    9 1
     9    8   33 1
    10    9   10 1
    11   10   11 2
    12   10   12 1
    13   10   13 1
    14   12   34 1
    15   13   14 1
    16   14   15 1
    17   14   35 1
    18   14   36 1
    19   15   16 1
    20   15   17 1
    21   15   37 1
    22   16   21 1
    23   17   18 1
    24   17   19 1
    25   17   38 1
    26   18   39 1
    27   19   20 1
    28   19   21 1
    29   19   40 1
    30   20   41 1
    31   21   22 1
    32   21   42 1
    33   22   23 ar
    34   22   32 ar
    35   23   24 ar
    36   23   43 1
    37   24   25 ar
    38   25   26 ar
    39   25   32 ar
    40   26   27 2
    41   26   28 ar
    42   28   29 ar
    43   28   44 1
    44   29   30 1
    45   29   31 ar
    46   30   45 1
    47   30   46 1
    48   31   32 ar
@<TRIPOS>SUBSTRUCTURE
     1 GTP         1 GROUP 0 A     ****
@<TRIPOS>MOLECULE
[[[5-(2-amino-6-oxo-1~{H}-purin-9-yl)-3,4-dihydroxy-tetrahydrofuran-2-yl]methoxy-hydroxy-phosphoryl]oxy-hydroxy-phosphoryl] phosphate
   46    48     1     0     0
SMALL
USER_CHARGES

@<TRIPOS>ATOM
      1 PG         -1.8362    9.2808    0.3897 P.3       1 GTP         1.3594
      2 O1G        -0.6199    9.4868   -0.5071 O.co2     1 GTP        -0.8909
      3 O2G        -1.7496    9.9871    1.7386 O.co2     1 GTP        -0.8909
      4 O3G        -3.1745    9.4519   -0.3214 O.co2     1 GTP        -0.8909
      5 O3B        -1.7931    7.6770    0.7663 O.3       1 GTP        -0.7106
      6 PB         -1.8454    6.3683   -0.1824 P.3       1 GTP         1.8242
      7 O1B        -3.0842    6.2453   -1.0197 O.2       1 GTP        -0.9138
      8 O2B        -0.4627    6.4542   -1.0153 O.3       1 GTP        -0.7900
      9 O3A        -1.5923    5.1560    0.8546 O.3       1 GTP        -0.8086
     10 PA         -2.5921    4.4092    1.8820 P.3       1 GTP         1.7888
     11 O1A        -3.2000    5.3146    2.9137 O.2       1 GTP        -0.8200
     12 O2A        -3.6575    3.6739    0.9117 O.3       1 GTP        -0.8185
     13 O5'        -1.7334    3.1724    2.4742 O.3       1 GTP        -0.5679
     14 C5'        -0.8811    2.4285    1.6206 C.3       1 GTP         0.1794
     15 C4'        -0.1994    1.3333    2.4288 C.3       1 GTP         0.1313
     16 O4'        -1.1285    0.2356    2.5840 O.3       1 GTP        -0.3993
     17 C3'         1.0324    0.7610    1.7344 C.3       1 GTP         0.0846
     18 O3'         1.9175    0.2377    2.7247 O.3       1 GTP        -0.5819
     19 C2'         0.4468   -0.3802    0.9263 C.3       1 GTP         0.0567
     20 O2'         1.3993   -1.3703    0.5961 O.3       1 GTP        -0.5837
     21 C1'        -0.6159   -0.9100    1.8769 C.3       1 GTP         0.2547
     22 N9         -1.7127   -1.6108    1.2130 N.pl3     1 GTP        -0.2013
     23 C8         -2.8667   -1.0365    0.7385 C.ar      1 GTP         0.4384
     24 N7         -3.6757   -1.9196    0.1868 N.2       1 GTP        -0.6072
     25 C5         -3.0088   -3.1018    0.3164 C.ar      1 GTP         0.1855
     26 C6         -3.4148   -4.4130   -0.1079 C.ar      1 GTP         0.6502
     27 O6         -4.4753   -4.6480   -0.6732 O.2       1 GTP        -0.6193
     28 N1         -2.4377   -5.3653    0.2144 N.pl3     1 GTP        -0.5097
     29 C2         -1.2132   -5.0902    0.8680 C.ar      1 GTP         0.6454
     30 N2         -0.4066   -6.1772    1.0834 N.pl3     1 GTP        -0.8839
     31 N3         -0.8672   -3.8786    1.2457 N.2       1 GTP        -0.6390
     32 C4         -1.7966   -2.9451    0.9439 C.ar      1 GTP         0.0961
     33 HOB2       -0.3356    7.1921   -1.6490 H         1 GTP         0.4357
     34 HOA2       -4.2518    4.2228    0.3571 H         1 GTP         0.4835
     35 H5'        -1.4794    1.9921    0.8142 H         1 GTP         0.0448
     36 H5''       -0.1361    3.1034    1.1867 H         1 GTP         0.0448
     37 H4'         0.0402    1.7079    3.4342 H         1 GTP         0.1246
     38 H3'         1.5907    1.4859    1.1353 H         1 GTP         0.0764
     39 HO3'        2.1521    0.9800    3.3017 H         1 GTP         0.4062
     40 H2'        -0.0017    0.0018    0.0005 H         1 GTP         0.0706
     41 HO2'        0.9369   -2.0558    0.0825 H         1 GTP         0.4064
     42 H1'        -0.1998   -1.6319    2.6178 H         1 GTP         0.1053
     43 H8         -3.0589    0.0244    0.8247 H         1 GTP         0.0995
     44 HN1        -2.6238   -6.3307   -0.0420 H         1 GTP         0.3262
     45 HN21        0.4646   -6.0341    1.5394 H         1 GTP         0.4043
     46 HN22       -0.7235   -7.0673    0.7753 H         1 GTP         0.4043
@<TRIPOS>BOND
     1    1    2 2
     2    1    3 1
     3    1    4 1
     4    1    5 1
     5    5    6 1
     6    6    7 2
     7    6    8 1
     8    6    9 1
     9    8   33 1
    10    9   10 1
    11   10   11 2
    12   10   12 1
    13   10   13 1
    14   12   34 1
    15   13   14 1
    16   14   15 1
    17   14   35 1
    18   14   36 1
    19   15   16 1
    20   15   17 1
    21   15   37 1
    22   16   21 1
    23   17   18 1
    24   17   19 1
    25   17   38 1
    26   18   39 1
    27   19   20 1
    28   19   21 1
    29   19   40 1
    30   20   41 1
    31   21   22 1
    32   21   42 1
    33   22   23 ar
    34   22   32 ar
    35   23   24 ar
    36   23   43 1
    37   24   25 ar
    38   25   26 ar
    39   25   32 ar
    40   26   27 2
    41   26   28 ar
    42   28   29 ar
    43   28   44 1
    44   29   30 1
    45   29   31 ar
    46   30   45 1
    47   30   46 1
    48   31   32 ar
@<TRIPOS>SUBSTRUCTURE
     1 GTP         1 GROUP 0 A     ****
@<TRIPOS>MOLECULE
[[[5-(2-amino-6-oxo-1~{H}-purin-9-yl)-3,4-dihydroxy-tetrahydrofuran-2-yl]methoxy-hydroxy-phosphoryl]oxy-hydroxy-phosphoryl] phosphate
   46    48     1     0     0
SMALL
USER_CHARGES

@<TRIPOS>ATOM
      1 PG          1.2895    8.4073    3.5697 P.3       1 GTP         1.3594
      2 O1G         1.5520    8.9027    2.1514 O.co2     1 GTP        -0.8909
      3 O2G         2.5276    7.8892    4.2940 O.co2     1 GTP        -0.8909
      4 O3G         0.4187    9.3384    4.4069 O.co2     1 GTP        -0.8909
      5 O3B         0.3493    7.0698    3.3627 O.3       1 GTP        -0.7106
      6 PB         -1.1013    6.8965    2.6687 P.3       1 GTP         1.8242
      7 O1B        -2.2011    7.7006    3.2967 O.2       1 GTP        -0.9138
      8 O2B        -0.8140    7.2284    1.1130 O.3       1 GTP        -0.7900
      9 O3A        -1.3235    5.2967    2.6835 O.3       1 GTP        -0.8086
     10 PA         -2.5519    4.3888    2.1545 P.3       1 GTP         1.7888
     11 O1A        -3.8664    4.6910    2.8135 O.2       1 GTP        -0.8200
     12 O2A        -2.5288    4.6111    0.5522 O.3       1 GTP        -0.8185
     13 O5'        -2.0396    2.8622    2.3120 O.3       1 GTP        -0.5679
     14 C5'        -0.8811    2.4285    1.6206 C.3       1 GTP         0.1794
     15 C4'        -0.1994    1.3333    2.4288 C.3       1 GTP         0.1313
     16 O4'        -1.1285    0.2356    2.5840 O.3       1 GTP        -0.3993
     17 C3'         1.0324    0.7610    1.7344 C.3       1 GTP         0.0846
     18 O3'         1.9175    0.2377    2.7247 O.3       1 GTP        -0.5819
     19 C2'         0.4468   -0.3802    0.9263 C.3       1 GTP         0.0567
     20 O2'         1.3993   -1.3703    0.5961 O.3       1 GTP        -0.5837
     21 C1'        -0.6159   -0.9100    1.8769 C.3       1 GTP         0.2547
     22 N9         -1.7127   -1.6108    1.2130 N.pl3     1 GTP        -0.2013
     23 C8         -2.5489   -1.0812    0.2607 C.ar      1 GTP         0.4384
     24 N7         -3.4468   -1.9516   -0.1576 N.2       1 GTP        -0.6072
     25 C5         -3.1696   -3.0787    0.5579 C.ar      1 GTP         0.1855
     26 C6         -3.8307   -4.3536    0.5166 C.ar      1 GTP         0.6502
     27 O6         -4.7841   -4.6033   -0.2101 O.2       1 GTP        -0.6193
     28 N1         -3.2356   -5.2522    1.4132 N.pl3     1 GTP        -0.5097
     29 C2         -2.1338   -4.9602    2.2517 C.ar      1 GTP         0.6454
     30 N2         -1.7156   -5.9923    3.0507 N.pl3     1 GTP        -0.8839
     31 N3         -1.5477   -3.7827    2.2686 N.2       1 GTP        -0.6390
     32 C4         -2.1070   -2.9013    1.4104 C.ar      1 GTP         0.0961
     33 HOB2       -1.5352    7.1030    0.4600 H         1 GTP         0.4357
     34 HOA2       -3.1459    4.0937   -0.0076 H         1 GTP         0.4835
     35 H5'        -1.1760    2.0498    0.6365 H         1 GTP         0.0448
     36 H5''       -0.2072    3.2811    1.4873 H         1 GTP         0.0448
     37 H4'         0.0402    1.7079    3.4342 H         1 GTP         0.1246
     38 H3'         1.5907    1.4859    1.1353 H         1 GTP         0.0764
     39 HO3'        2.6839   -0.1150    2.2479 H         1 GTP         0.4062
     40 H2'        -0.0017    0.0018    0.0005 H         1 GTP         0.0706
     41 HO2'        0.9369   -2.0558    0.0825 H         1 GTP         0.4064
     42 H1'        -0.1998   -1.6319    2.6178 H         1 GTP         0.1053
     43 H8         -2.4545   -0.0604   -0.0844 H         1 GTP         0.0995
     44 HN1        -3.6270   -6.1884    1.4651 H         1 GTP         0.3262
     45 HN21       -0.9445   -5.8354    3.6574 H         1 GTP         0.4043
     46 HN22       -2.1993   -6.8585    2.9930 H         1 GTP         0.4043
@<TRIPOS>BOND
     1    1    2 2
     2    1    3 1
     3    1    4 1
     4    1    5 1
     5    5    6 1
     6    6    7 2
     7    6    8 1
     8    6    9 1
     9    8   33 1
    10    9   10 1
    11   10   11 2
    12   10   12 1
    13   10   13 1
    14   12   34 1
    15   13   14 1
    16   14   15 1
    17   14   35 1
    18   14   36 1
    19   15   16 1
    20   15   17 1
    21   15   37 1
    22   16   21 1
    23   17   18 1
    24   17   19 1
    25   17   38 1
    26   18   39 1
    27   19   20 1
    28   19   21 1
    29   19   40 1
    30   20   41 1
    31   21   22 1
    32   21   42 1
    33   22   23 ar
    34   22   32 ar
    35   23   24 ar
    36   23   43 1
    37   24   25 ar
    38   25   26 ar
    39   25   32 ar
    40   26   27 2
    41   26   28 ar
    42   28   29 ar
    43   28   44 1
    44   29   30 1
    45   29   31 ar
    46   30   45 1
    47   30   46 1
    48   31   32 ar
@<TRIPOS>SUBSTRUCTURE
     1 GTP         1 GROUP 0 A     ****
@<TRIPOS>MOLECULE
[[[5-(2-amino-6-oxo-1~{H}-purin-9-yl)-3,4-dihydroxy-tetrahydrofuran-2-yl]methoxy-hydroxy-phosphoryl]oxy-hydroxy-phosphoryl] phosphate
   46    48     1     0     0
SMALL
USER_CHARGES

@<TRIPOS>ATOM
      1 PG         -2.1574    3.8523   -4.7513 P.3       1 GTP         1.3594
      2 O1G        -3.6385    4.1275   -4.5135 O.co2     1 GTP        -0.8909
      3 O2G        -1.8547    2.4547   -5.2813 O.co2     1 GTP        -0.8909
      4 O3G        -1.4220    4.9712   -5.4816 O.co2     1 GTP        -0.8909
      5 O3B        -1.4965    3.8672   -3.2417 O.3       1 GTP        -0.7106
      6 PB         -1.4495    5.0329   -2.1216 P.3       1 GTP         1.8242
      7 O1B        -0.7570    6.2926   -2.5508 O.2       1 GTP        -0.9138
      8 O2B        -3.0006    5.2135   -1.7040 O.3       1 GTP        -0.7900
      9 O3A        -0.7948    4.2874   -0.8470 O.3       1 GTP        -0.8086
     10 PA         -0.4418    4.8275    0.6351 P.3       1 GTP         1.7888
     11 O1A         0.5363    5.9662    0.6563 O.2       1 GTP        -0.8200
     12 O2A        -1.8895    5.1640    1.2739 O.3       1 GTP        -0.8185
     13 O5'         0.0170    3.5129    1.4592 O.3       1 GTP        -0.5679
     14 C5'        -0.8811    2.4285    1.6206 C.3       1 GTP         0.1794
     15 C4'        -0.1994    1.3333    2.4288 C.3       1 GTP         0.1313
     16 O4'        -1.1285    0.2356    2.5840 O.3       1 GTP        -0.3993
     17 C3'         1.0324    0.7610    1.7344 C.3       1 GTP         0.0846
     18 O3'         1.9175    0.2377    2.7247 O.3       1 GTP        -0.5819
     19 C2'         0.4468   -0.3802    0.9263 C.3       1 GTP         0.0567
     20 O2'         1.3993   -1.3703    0.5961 O.3       1 GTP        -0.5837
     21 C1'        -0.6159   -0.9100    1.8769 C.3       1 GTP         0.2547
     22 N9         -1.7127   -1.6108    1.2130 N.pl3     1 GTP        -0.2013
     23 C8         -2.5489   -1.0812    0.2607 C.ar      1 GTP         0.4384
     24 N7         -3.4468   -1.9516   -0.1576 N.2       1 GTP        -0.6072
     25 C5         -3.1696   -3.0787    0.5579 C.ar      1 GTP         0.1855
     26 C6         -3.8307   -4.3536    0.5166 C.ar      1 GTP         0.6502
     27 O6         -4.7841   -4.6033   -0.2101 O.2       1 GTP        -0.6193
     28 N1         -3.2356   -5.2522    1.4132 N.pl3     1 GTP        -0.5097
     29 C2         -2.1338   -4.9602    2.2517 C.ar      1 GTP         0.6454
     30 N2         -1.7156   -5.9923    3.0507 N.pl3     1 GTP        -0.8839
     31 N3         -1.5477   -3.7827    2.2686 N.2       1 GTP        -0.6390
     32 C4         -2.1070   -2.9013    1.4104 C.ar      1 GTP         0.0961
     33 HOB2       -3.2254    5.8140   -0.9617 H         1 GTP         0.4357
     34 HOA2       -1.9407    5.4416    2.2132 H         1 GTP         0.4835
     35 H5'        -1.7776    2.7841    2.1389 H         1 GTP         0.0448
     36 H5''       -1.1659    2.0533    0.6322 H         1 GTP         0.0448
     37 H4'         0.0402    1.7079    3.4342 H         1 GTP         0.1246
     38 H3'         1.5907    1.4859    1.1353 H         1 GTP         0.0764
     39 HO3'        2.6839   -0.1150    2.2479 H         1 GTP         0.4062
     40 H2'        -0.0017    0.0018    0.0005 H         1 GTP         0.0706
     41 HO2'        2.0953   -0.9375    0.0709 H         1 GTP         0.4064
     42 H1'        -0.1998   -1.6319    2.6178 H         1 GTP         0.1053
     43 H8         -2.4545   -0.0604   -0.0844 H         1 GTP         0.0995
     44 HN1        -3.6270   -6.1884    1.4651 H         1 GTP         0.3262
     45 HN21       -0.9445   -5.8354    3.6574 H         1 GTP         0.4043
     46 HN22       -2.1993   -6.8585    2.9930 H         1 GTP         0.4043
@<TRIPOS>BOND
     1    1    2 2
     2    1    3 1
     3    1    4 1
     4    1    5 1
     5    5    6 1
     6    6    7 2
     7    6    8 1
     8    6    9 1
     9    8   33 1
    10    9   10 1
    11   10   11 2
    12   10   12 1
    13   10   13 1
    14   12   34 1
    15   13   14 1
    16   14   15 1
    17   14   35 1
    18   14   36 1
    19   15   16 1
    20   15   17 1
    21   15   37 1
    22   16   21 1
    23   17   18 1
    24   17   19 1
    25   17   38 1
    26   18   39 1
    27   19   20 1
    28   19   21 1
    29   19   40 1
    30   20   41 1
    31   21   22 1
    32   21   42 1
    33   22   23 ar
    34   22   32 ar
    35   23   24 ar
    36   23   43 1
    37   24   25 ar
    38   25   26 ar
    39   25   32 ar
    40   26   27 2
    41   26   28 ar
    42   28   29 ar
    43   28   44 1
    44   29   30 1
    45   29   31 ar
    46   30   45 1
    47   30   46 1
    48   31   32 ar
@<TRIPOS>SUBSTRUCTURE
     1 GTP         1 GROUP 0 A     ****
@<TRIPOS>MOLECULE
[[[5-(2-amino-6-oxo-1~{H}-purin-9-yl)-3,4-dihydroxy-tetrahydrofuran-2-yl]methoxy-hydroxy-phosphoryl]oxy-hydroxy-phosphoryl] phosphate
   46    48     1     0     0
SMALL
USER_CHARGES

@<TRIPOS>ATOM
      1 PG          1.1231    6.5178    1.8331 P.3       1 GTP         1.3594
      2 O1G         1.5981    6.9659    0.4548 O.co2     1 GTP        -0.8909
      3 O2G         2.0120    5.4698    2.4945 O.co2     1 GTP        -0.8909
      4 O3G         0.7108    7.6605    2.7552 O.co2     1 GTP        -0.8909
      5 O3B        -0.2898    5.7238    1.5347 O.3       1 GTP        -0.7106
      6 PB         -1.6638    6.2348    0.8518 P.3       1 GTP         1.8242
      7 O1B        -2.3332    7.3761    1.5588 O.2       1 GTP        -0.9138
      8 O2B        -1.2327    6.5357   -0.6768 O.3       1 GTP        -0.7900
      9 O3A        -2.5412    4.8830    0.7425 O.3       1 GTP        -0.8086
     10 PA         -3.0702    3.8637    1.8801 P.3       1 GTP         1.7888
     11 O1A        -3.9677    4.4980    2.9027 O.2       1 GTP        -0.8200
     12 O2A        -3.7480    2.6639    1.0327 O.3       1 GTP        -0.8185
     13 O5'        -1.7334    3.1724    2.4742 O.3       1 GTP        -0.5679
     14 C5'        -0.8811    2.4285    1.6206 C.3       1 GTP         0.1794
     15 C4'        -0.1994    1.3333    2.4288 C.3       1 GTP         0.1313
     16 O4'        -1.1285    0.2356    2.5840 O.3       1 GTP        -0.3993
     17 C3'         1.0324    0.7610    1.7344 C.3       1 GTP         0.0846
     18 O3'         1.9175    0.2377    2.7247 O.3       1 GTP        -0.5819
     19 C2'         0.4468   -0.3802    0.9263 C.3       1 GTP         0.0567
     20 O2'         1.3993   -1.3703    0.5961 O.3       1 GTP        -0.5837
     21 C1'        -0.6159   -0.9100    1.8769 C.3       1 GTP         0.2547
     22 N9         -1.7127   -1.6108    1.2130 N.pl3     1 GTP        -0.2013
     23 C8         -2.5489   -1.0812    0.2607 C.ar      1 GTP         0.4384
     24 N7         -3.4468   -1.9516   -0.1576 N.2       1 GTP        -0.6072
     25 C5         -3.1696   -3.0787    0.5579 C.ar      1 GTP         0.1855
     26 C6         -3.8307   -4.3536    0.5166 C.ar      1 GTP         0.6502
     27 O6         -4.7841   -4.6033   -0.2101 O.2       1 GTP        -0.6193
     28 N1         -3.2356   -5.2522    1.4132 N.pl3     1 GTP        -0.5097
     29 C2         -2.1338   -4.9602    2.2517 C.ar      1 GTP         0.6454
     30 N2         -1.7156   -5.9923    3.0507 N.pl3     1 GTP        -0.8839
     31 N3         -1.5477   -3.7827    2.2686 N.2       1 GTP        -0.6390
     32 C4         -2.1070   -2.9013    1.4104 C.ar      1 GTP         0.0961
     33 HOB2       -0.6018    7.2648   -0.8572 H         1 GTP         0.4357
     34 HOA2       -4.0801    1.8743    1.5104 H         1 GTP         0.4835
     35 H5'        -1.4794    1.9921    0.8142 H         1 GTP         0.0448
     36 H5''       -0.1361    3.1034    1.1867 H         1 GTP         0.0448
     37 H4'         0.0402    1.7079    3.4342 H         1 GTP         0.1246
     38 H3'         1.5907    1.4859    1.1353 H         1 GTP         0.0764
     39 HO3'        2.1521    0.9800    3.3017 H         1 GTP         0.4062
     40 H2'        -0.0017    0.0018    0.0005 H         1 GTP         0.0706
     41 HO2'        2.0953   -0.9375    0.0709 H         1 GTP         0.4064
     42 H1'        -0.1998   -1.6319    2.6178 H         1 GTP         0.1053
     43 H8         -2.4545   -0.0604   -0.0844 H         1 GTP         0.0995
     44 HN1        -3.6270   -6.1884    1.4651 H         1 GTP         0.3262
     45 HN21       -0.9445   -5.8354    3.6574 H         1 GTP         0.4043
     46 HN22       -2.1993   -6.8585    2.9930 H         1 GTP         0.4043
@<TRIPOS>BOND
     1    1    2 2
     2    1    3 1
     3    1    4 1
     4    1    5 1
     5    5    6 1
     6    6    7 2
     7    6    8 1
     8    6    9 1
     9    8   33 1
    10    9   10 1
    11   10   11 2
    12   10   12 1
    13   10   13 1
    14   12   34 1
    15   13   14 1
    16   14   15 1
    17   14   35 1
    18   14   36 1
    19   15   16 1
    20   15   17 1
    21   15   37 1
    22   16   21 1
    23   17   18 1
    24   17   19 1
    25   17   38 1
    26   18   39 1
    27   19   20 1
    28   19   21 1
    29   19   40 1
    30   20   41 1
    31   21   22 1
    32   21   42 1
    33   22   23 ar
    34   22   32 ar
    35   23   24 ar
    36   23   43 1
    37   24   25 ar
    38   25   26 ar
    39   25   32 ar
    40   26   27 2
    41   26   28 ar
    42   28   29 ar
    43   28   44 1
    44   29   30 1
    45   29   31 ar
    46   30   45 1
    47   30   46 1
    48   31   32 ar
@<TRIPOS>SUBSTRUCTURE
     1 GTP         1 GROUP 0 A     ****
@<TRIPOS>MOLECULE
[[[5-(2-amino-6-oxo-1~{H}-purin-9-yl)-3,4-dihydroxy-tetrahydrofuran-2-yl]methoxy-hydroxy-phosphoryl]oxy-hydroxy-phosphoryl] phosphate
   46    48     1     0     0
SMALL
USER_CHARGES

@<TRIPOS>ATOM
      1 PG         -6.2448    4.3965   -1.6214 P.3       1 GTP         1.3594
      2 O1G        -6.7762    5.7600   -1.1917 O.co2     1 GTP        -0.8909
      3 O2G        -7.1072    3.2183   -1.1809 O.co2     1 GTP        -0.8909
      4 O3G        -5.7923    4.3312   -3.0765 O.co2     1 GTP        -0.8909
      5 O3B        -4.8470    4.2202   -0.7665 O.3       1 GTP        -0.7106
      6 PB         -3.5018    5.1177   -0.7464 P.3       1 GTP         1.8242
      7 O1B        -2.8014    5.2343   -2.0680 O.2       1 GTP        -0.9138
      8 O2B        -3.9958    6.5184   -0.1082 O.3       1 GTP        -0.7900
      9 O3A        -2.6321    4.4444    0.4365 O.3       1 GTP        -0.8086
     10 PA         -3.0702    3.8637    1.8801 P.3       1 GTP         1.7888
     11 O1A        -3.7163    4.8778    2.7789 O.2       1 GTP        -0.8200
     12 O2A        -3.9995    2.5912    1.5139 O.3       1 GTP        -0.8185
     13 O5'        -1.7334    3.1724    2.4742 O.3       1 GTP        -0.5679
     14 C5'        -0.8811    2.4285    1.6206 C.3       1 GTP         0.1794
     15 C4'        -0.1994    1.3333    2.4288 C.3       1 GTP         0.1313
     16 O4'        -1.1285    0.2356    2.5840 O.3       1 GTP        -0.3993
     17 C3'         1.0324    0.7610    1.7344 C.3       1 GTP         0.0846
     18 O3'         1.9175    0.2377    2.7247 O.3       1 GTP        -0.5819
     19 C2'         0.4468   -0.3802    0.9263 C.3       1 GTP         0.0567
     20 O2'         1.3993   -1.3703    0.5961 O.3       1 GTP        -0.5837
     21 C1'        -0.6159   -0.9100    1.8769 C.3       1 GTP         0.2547
     22 N9         -1.7127   -1.6108    1.2130 N.pl3     1 GTP        -0.2013
     23 C8         -2.8667   -1.0365    0.7385 C.ar      1 GTP         0.4384
     24 N7         -3.6757   -1.9196    0.1868 N.2       1 GTP        -0.6072
     25 C5         -3.0088   -3.1018    0.3164 C.ar      1 GTP         0.1855
     26 C6         -3.4148   -4.4130   -0.1079 C.ar      1 GTP         0.6502
     27 O6         -4.4753   -4.6480   -0.6732 O.2       1 GTP        -0.6193
     28 N1         -2.4377   -5.3653    0.2144 N.pl3     1 GTP        -0.5097
     29 C2         -1.2132   -5.0902    0.8680 C.ar      1 GTP         0.6454
     30 N2         -0.4066   -6.1772    1.0834 N.pl3     1 GTP        -0.8839
     31 N3         -0.8672   -3.8786    1.2457 N.2       1 GTP        -0.6390
     32 C4         -1.7966   -2.9451    0.9439 C.ar      1 GTP         0.0961
     33 HOB2       -3.3295    7.2097    0.0923 H         1 GTP         0.4357
     34 HOA2       -4.8501    2.7427    1.0497 H         1 GTP         0.4835
     35 H5'        -1.4794    1.9921    0.8142 H         1 GTP         0.0448
     36 H5''       -0.1361    3.1034    1.1867 H         1 GTP         0.0448
     37 H4'         0.0402    1.7079    3.4342 H         1 GTP         0.1246
     38 H3'         1.5907    1.4859    1.1353 H         1 GTP         0.0764
     39 HO3'        2.1521    0.9800    3.3017 H         1 GTP         0.4062
     40 H2'        -0.0017    0.0018    0.0005 H         1 GTP         0.0706
     41 HO2'        0.9369   -2.0558    0.0825 H         1 GTP         0.4064
     42 H1'        -0.1998   -1.6319    2.6178 H         1 GTP         0.1053
     43 H8         -3.0589    0.0244    0.8247 H         1 GTP         0.0995
     44 HN1        -2.6238   -6.3307   -0.0420 H         1 GTP         0.3262
     45 HN21        0.4646   -6.0341    1.5394 H         1 GTP         0.4043
     46 HN22       -0.7235   -7.0673    0.7753 H         1 GTP         0.4043
@<TRIPOS>BOND
     1    1    2 2
     2    1    3 1
     3    1    4 1
     4    1    5 1
     5    5    6 1
     6    6    7 2
     7    6    8 1
     8    6    9 1
     9    8   33 1
    10    9   10 1
    11   10   11 2
    12   10   12 1
    13   10   13 1
    14   12   34 1
    15   13   14 1
    16   14   15 1
    17   14   35 1
    18   14   36 1
    19   15   16 1
    20   15   17 1
    21   15   37 1
    22   16   21 1
    23   17   18 1
    24   17   19 1
    25   17   38 1
    26   18   39 1
    27   19   20 1
    28   19   21 1
    29   19   40 1
    30   20   41 1
    31   21   22 1
    32   21   42 1
    33   22   23 ar
    34   22   32 ar
    35   23   24 ar
    36   23   43 1
    37   24   25 ar
    38   25   26 ar
    39   25   32 ar
    40   26   27 2
    41   26   28 ar
    42   28   29 ar
    43   28   44 1
    44   29   30 1
    45   29   31 ar
    46   30   45 1
    47   30   46 1
    48   31   32 ar
@<TRIPOS>SUBSTRUCTURE
     1 GTP         1 GROUP 0 A     ****
@<TRIPOS>MOLECULE
[[[5-(2-amino-6-oxo-1~{H}-purin-9-yl)-3,4-dihydroxy-tetrahydrofuran-2-yl]methoxy-hydroxy-phosphoryl]oxy-hydroxy-phosphoryl] phosphate
   46    48     1     0     0
SMALL
USER_CHARGES

@<TRIPOS>ATOM
      1 PG         -2.8246    5.2829   -3.6315 P.3       1 GTP         1.3594
      2 O1G        -4.0147    4.4013   -3.9954 O.co2     1 GTP        -0.8909
      3 O2G        -1.5229    4.9012   -4.3286 O.co2     1 GTP        -0.8909
      4 O3G        -3.1259    6.7780   -3.6441 O.co2     1 GTP        -0.8909
      5 O3B        -2.5474    4.9509   -2.0413 O.3       1 GTP        -0.7106
      6 PB         -3.5018    5.1177   -0.7464 P.3       1 GTP         1.8242
      7 O1B        -3.9652    6.5197   -0.4807 O.2       1 GTP        -0.9138
      8 O2B        -4.6824    4.0457   -1.0109 O.3       1 GTP        -0.7900
      9 O3A        -2.6321    4.4444    0.4365 O.3       1 GTP        -0.8086
     10 PA         -3.0702    3.8637    1.8801 P.3       1 GTP         1.7888
     11 O1A        -3.7163    4.8778    2.7789 O.2       1 GTP        -0.8200
     12 O2A        -3.9995    2.5912    1.5139 O.3       1 GTP        -0.8185
     13 O5'        -1.7334    3.1724    2.4742 O.3       1 GTP        -0.5679
     14 C5'        -0.8811    2.4285    1.6206 C.3       1 GTP         0.1794
     15 C4'        -0.1994    1.3333    2.4288 C.3       1 GTP         0.1313
     16 O4'        -1.1285    0.2356    2.5840 O.3       1 GTP        -0.3993
     17 C3'         1.0324    0.7610    1.7344 C.3       1 GTP         0.0846
     18 O3'         1.9175    0.2377    2.7247 O.3       1 GTP        -0.5819
     19 C2'         0.4468   -0.3802    0.9263 C.3       1 GTP         0.0567
     20 O2'         1.3993   -1.3703    0.5961 O.3       1 GTP        -0.5837
     21 C1'        -0.6159   -0.9100    1.8769 C.3       1 GTP         0.2547
     22 N9         -1.7127   -1.6108    1.2130 N.pl3     1 GTP        -0.2013
     23 C8         -2.8667   -1.0365    0.7385 C.ar      1 GTP         0.4384
     24 N7         -3.6757   -1.9196    0.1868 N.2       1 GTP        -0.6072
     25 C5         -3.0088   -3.1018    0.3164 C.ar      1 GTP         0.1855
     26 C6         -3.4148   -4.4130   -0.1079 C.ar      1 GTP         0.6502
     27 O6         -4.4753   -4.6480   -0.6732 O.2       1 GTP        -0.6193
     28 N1         -2.4377   -5.3653    0.2144 N.pl3     1 GTP        -0.5097
     29 C2         -1.2132   -5.0902    0.8680 C.ar      1 GTP         0.6454
     30 N2         -0.4066   -6.1772    1.0834 N.pl3     1 GTP        -0.8839
     31 N3         -0.8672   -3.8786    1.2457 N.2       1 GTP        -0.6390
     32 C4         -1.7966   -2.9451    0.9439 C.ar      1 GTP         0.0961
     33 HOB2       -5.3508    3.8932   -0.3094 H         1 GTP         0.4357
     34 HOA2       -4.3291    2.0198    2.2398 H         1 GTP         0.4835
     35 H5'        -1.4794    1.9921    0.8142 H         1 GTP         0.0448
     36 H5''       -0.1361    3.1034    1.1867 H         1 GTP         0.0448
     37 H4'         0.0402    1.7079    3.4342 H         1 GTP         0.1246
     38 H3'         1.5907    1.4859    1.1353 H         1 GTP         0.0764
     39 HO3'        2.1521    0.9800    3.3017 H         1 GTP         0.4062
     40 H2'        -0.0017    0.0018    0.0005 H         1 GTP         0.0706
     41 HO2'        0.9369   -2.0558    0.0825 H         1 GTP         0.4064
     42 H1'        -0.1998   -1.6319    2.6178 H         1 GTP         0.1053
     43 H8         -3.0589    0.0244    0.8247 H         1 GTP         0.0995
     44 HN1        -2.6238   -6.3307   -0.0420 H         1 GTP         0.3262
     45 HN21        0.4646   -6.0341    1.5394 H         1 GTP         0.4043
     46 HN22       -0.7235   -7.0673    0.7753 H         1 GTP         0.4043
@<TRIPOS>BOND
     1    1    2 2
     2    1    3 1
     3    1    4 1
     4    1    5 1
     5    5    6 1
     6    6    7 2
     7    6    8 1
     8    6    9 1
     9    8   33 1
    10    9   10 1
    11   10   11 2
    12   10   12 1
    13   10   13 1
    14   12   34 1
    15   13   14 1
    16   14   15 1
    17   14   35 1
    18   14   36 1
    19   15   16 1
    20   15   17 1
    21   15   37 1
    22   16   21 1
    23   17   18 1
    24   17   19 1
    25   17   38 1
    26   18   39 1
    27   19   20 1
    28   19   21 1
    29   19   40 1
    30   20   41 1
    31   21   22 1
    32   21   42 1
    33   22   23 ar
    34   22   32 ar
    35   23   24 ar
    36   23   43 1
    37   24   25 ar
    38   25   26 ar
    39   25   32 ar
    40   26   27 2
    41   26   28 ar
    42   28   29 ar
    43   28   44 1
    44   29   30 1
    45   29   31 ar
    46   30   45 1
    47   30   46 1
    48   31   32 ar
@<TRIPOS>SUBSTRUCTURE
     1 GTP         1 GROUP 0 A     ****
@<TRIPOS>MOLECULE
[[[5-(2-amino-6-oxo-1~{H}-purin-9-yl)-3,4-dihydroxy-tetrahydrofuran-2-yl]methoxy-hydroxy-phosphoryl]oxy-hydroxy-phosphoryl] phosphate
   46    48     1     0     0
SMALL
USER_CHARGES

@<TRIPOS>ATOM
      1 PG         -4.5645    6.5495   -1.5600 P.3       1 GTP         1.3594
      2 O1G        -3.9638    7.8966   -1.9481 O.co2     1 GTP        -0.8909
      3 O2G        -5.9514    6.6371   -0.9318 O.co2     1 GTP        -0.8909
      4 O3G        -4.4296    5.4720   -2.6309 O.co2     1 GTP        -0.8909
      5 O3B        -3.5973    6.0131   -0.3383 O.3       1 GTP        -0.7106
      6 PB         -2.0111    5.6986   -0.3084 P.3       1 GTP         1.8242
      7 O1B        -1.5597    4.6401   -1.2709 O.2       1 GTP        -0.9138
      8 O2B        -1.3373    7.1519   -0.5246 O.3       1 GTP        -0.7900
      9 O3A        -1.7328    5.3762    1.2497 O.3       1 GTP        -0.8086
     10 PA         -0.3726    4.9772    2.0265 P.3       1 GTP         1.7888
     11 O1A         0.7144    6.0080    1.9291 O.2       1 GTP        -0.8200
     12 O2A        -0.8720    4.6574    3.5317 O.3       1 GTP        -0.8185
     13 O5'         0.0170    3.5129    1.4592 O.3       1 GTP        -0.5679
     14 C5'        -0.8811    2.4285    1.6206 C.3       1 GTP         0.1794
     15 C4'        -0.1994    1.3333    2.4288 C.3       1 GTP         0.1313
     16 O4'        -1.1285    0.2356    2.5840 O.3       1 GTP        -0.3993
     17 C3'         1.0324    0.7610    1.7344 C.3       1 GTP         0.0846
     18 O3'         1.9175    0.2377    2.7247 O.3       1 GTP        -0.5819
     19 C2'         0.4468   -0.3802    0.9263 C.3       1 GTP         0.0567
     20 O2'         1.3993   -1.3703    0.5961 O.3       1 GTP        -0.5837
     21 C1'        -0.6159   -0.9100    1.8769 C.3       1 GTP         0.2547
     22 N9         -1.7127   -1.6108    1.2130 N.pl3     1 GTP        -0.2013
     23 C8         -2.8667   -1.0365    0.7385 C.ar      1 GTP         0.4384
     24 N7         -3.6757   -1.9196    0.1868 N.2       1 GTP        -0.6072
     25 C5         -3.0088   -3.1018    0.3164 C.ar      1 GTP         0.1855
     26 C6         -3.4148   -4.4130   -0.1079 C.ar      1 GTP         0.6502
     27 O6         -4.4753   -4.6480   -0.6732 O.2       1 GTP        -0.6193
     28 N1         -2.4377   -5.3653    0.2144 N.pl3     1 GTP        -0.5097
     29 C2         -1.2132   -5.0902    0.8680 C.ar      1 GTP         0.6454
     30 N2         -0.4066   -6.1772    1.0834 N.pl3     1 GTP        -0.8839
     31 N3         -0.8672   -3.8786    1.2457 N.2       1 GTP        -0.6390
     32 C4         -1.7966   -2.9451    0.9439 C.ar      1 GTP         0.0961
     33 HOB2       -1.4640    7.6109   -1.3821 H         1 GTP         0.4357
     34 HOA2       -0.2247    4.3137    4.1835 H         1 GTP         0.4835
     35 H5'        -1.7776    2.7841    2.1389 H         1 GTP         0.0448
     36 H5''       -1.1659    2.0533    0.6322 H         1 GTP         0.0448
     37 H4'         0.0402    1.7079    3.4342 H         1 GTP         0.1246
     38 H3'         1.5907    1.4859    1.1353 H         1 GTP         0.0764
     39 HO3'        2.6839   -0.1150    2.2479 H         1 GTP         0.4062
     40 H2'        -0.0017    0.0018    0.0005 H         1 GTP         0.0706
     41 HO2'        2.0953   -0.9375    0.0709 H         1 GTP         0.4064
     42 H1'        -0.1998   -1.6319    2.6178 H         1 GTP         0.1053
     43 H8         -3.0589    0.0244    0.8247 H         1 GTP         0.0995
     44 HN1        -2.6238   -6.3307   -0.0420 H         1 GTP         0.3262
     45 HN21        0.4646   -6.0341    1.5394 H         1 GTP         0.4043
     46 HN22       -0.7235   -7.0673    0.7753 H         1 GTP         0.4043
@<TRIPOS>BOND
     1    1    2 2
     2    1    3 1
     3    1    4 1
     4    1    5 1
     5    5    6 1
     6    6    7 2
     7    6    8 1
     8    6    9 1
     9    8   33 1
    10    9   10 1
    11   10   11 2
    12   10   12 1
    13   10   13 1
    14   12   34 1
    15   13   14 1
    16   14   15 1
    17   14   35 1
    18   14   36 1
    19   15   16 1
    20   15   17 1
    21   15   37 1
    22   16   21 1
    23   17   18 1
    24   17   19 1
    25   17   38 1
    26   18   39 1
    27   19   20 1
    28   19   21 1
    29   19   40 1
    30   20   41 1
    31   21   22 1
    32   21   42 1
    33   22   23 ar
    34   22   32 ar
    35   23   24 ar
    36   23   43 1
    37   24   25 ar
    38   25   26 ar
    39   25   32 ar
    40   26   27 2
    41   26   28 ar
    42   28   29 ar
    43   28   44 1
    44   29   30 1
    45   29   31 ar
    46   30   45 1
    47   30   46 1
    48   31   32 ar
@<TRIPOS>SUBSTRUCTURE
     1 GTP         1 GROUP 0 A     ****
@<TRIPOS>MOLECULE
[[[5-(2-amino-6-oxo-1~{H}-purin-9-yl)-3,4-dihydroxy-tetrahydrofuran-2-yl]methoxy-hydroxy-phosphoryl]oxy-hydroxy-phosphoryl] phosphate
   46    48     1     0     0
SMALL
USER_CHARGES

@<TRIPOS>ATOM
      1 PG          2.1605    6.5606    0.9123 P.3       1 GTP         1.3594
      2 O1G         3.5198    6.8403    1.5447 O.co2     1 GTP        -0.8909
      3 O2G         1.7644    7.5413   -0.1864 O.co2     1 GTP        -0.8909
      4 O3G         1.9239    5.0960    0.5587 O.co2     1 GTP        -0.8909
      5 O3B         1.0834    6.8513    2.1252 O.3       1 GTP        -0.7106
      6 PB          0.9262    6.1691    3.5831 P.3       1 GTP         1.8242
      7 O1B         2.2191    5.8792    4.2866 O.2       1 GTP        -0.9138
      8 O2B        -0.0658    7.1788    4.3638 O.3       1 GTP        -0.7900
      9 O3A         0.0009    4.8793    3.2842 O.3       1 GTP        -0.8086
     10 PA         -1.4917    4.7595    2.6755 P.3       1 GTP         1.7888
     11 O1A        -2.5419    5.4666    3.4823 O.2       1 GTP        -0.8200
     12 O2A        -1.3289    5.2929    1.1568 O.3       1 GTP        -0.8185
     13 O5'        -1.7334    3.1724    2.4742 O.3       1 GTP        -0.5679
     14 C5'        -0.8811    2.4285    1.6206 C.3       1 GTP         0.1794
     15 C4'        -0.1994    1.3333    2.4288 C.3       1 GTP         0.1313
     16 O4'        -1.1285    0.2356    2.5840 O.3       1 GTP        -0.3993
     17 C3'         1.0324    0.7610    1.7344 C.3       1 GTP         0.0846
     18 O3'         1.9175    0.2377    2.7247 O.3       1 GTP        -0.5819
     19 C2'         0.4468   -0.3802    0.9263 C.3       1 GTP         0.0567
     20 O2'         1.3993   -1.3703    0.5961 O.3       1 GTP        -0.5837
     21 C1'        -0.6159   -0.9100    1.8769 C.3       1 GTP         0.2547
     22 N9         -1.7127   -1.6108    1.2130 N.pl3     1 GTP        -0.2013
     23 C8         -2.8667   -1.0365    0.7385 C.ar      1 GTP         0.4384
     24 N7         -3.6757   -1.9196    0.1868 N.2       1 GTP        -0.6072
     25 C5         -3.0088   -3.1018    0.3164 C.ar      1 GTP         0.1855
     26 C6         -3.4148   -4.4130   -0.1079 C.ar      1 GTP         0.6502
     27 O6         -4.4753   -4.6480   -0.6732 O.2       1 GTP        -0.6193
     28 N1         -2.4377   -5.3653    0.2144 N.pl3     1 GTP        -0.5097
     29 C2         -1.2132   -5.0902    0.8680 C.ar      1 GTP         0.6454
     30 N2         -0.4066   -6.1772    1.0834 N.pl3     1 GTP        -0.8839
     31 N3         -0.8672   -3.8786    1.2457 N.2       1 GTP        -0.6390
     32 C4         -1.7966   -2.9451    0.9439 C.ar      1 GTP         0.0961
     33 HOB2       -0.3886    6.9312    5.2564 H         1 GTP         0.4357
     34 HOA2       -1.0848    6.2309    1.0069 H         1 GTP         0.4835
     35 H5'        -1.4794    1.9921    0.8142 H         1 GTP         0.0448
     36 H5''       -0.1361    3.1034    1.1867 H         1 GTP         0.0448
     37 H4'         0.0402    1.7079    3.4342 H         1 GTP         0.1246
     38 H3'         1.5907    1.4859    1.1353 H         1 GTP         0.0764
     39 HO3'        2.6839   -0.1150    2.2479 H         1 GTP         0.4062
     40 H2'        -0.0017    0.0018    0.0005 H         1 GTP         0.0706
     41 HO2'        0.9369   -2.0558    0.0825 H         1 GTP         0.4064
     42 H1'        -0.1998   -1.6319    2.6178 H         1 GTP         0.1053
     43 H8         -3.0589    0.0244    0.8247 H         1 GTP         0.0995
     44 HN1        -2.6238   -6.3307   -0.0420 H         1 GTP         0.3262
     45 HN21        0.4646   -6.0341    1.5394 H         1 GTP         0.4043
     46 HN22       -0.7235   -7.0673    0.7753 H         1 GTP         0.4043
@<TRIPOS>BOND
     1    1    2 2
     2    1    3 1
     3    1    4 1
     4    1    5 1
     5    5    6 1
     6    6    7 2
     7    6    8 1
     8    6    9 1
     9    8   33 1
    10    9   10 1
    11   10   11 2
    12   10   12 1
    13   10   13 1
    14   12   34 1
    15   13   14 1
    16   14   15 1
    17   14   35 1
    18   14   36 1
    19   15   16 1
    20   15   17 1
    21   15   37 1
    22   16   21 1
    23   17   18 1
    24   17   19 1
    25   17   38 1
    26   18   39 1
    27   19   20 1
    28   19   21 1
    29   19   40 1
    30   20   41 1
    31   21   22 1
    32   21   42 1
    33   22   23 ar
    34   22   32 ar
    35   23   24 ar
    36   23   43 1
    37   24   25 ar
    38   25   26 ar
    39   25   32 ar
    40   26   27 2
    41   26   28 ar
    42   28   29 ar
    43   28   44 1
    44   29   30 1
    45   29   31 ar
    46   30   45 1
    47   30   46 1
    48   31   32 ar
@<TRIPOS>SUBSTRUCTURE
     1 GTP         1 GROUP 0 A     ****
@<TRIPOS>MOLECULE
[[[5-(2-amino-6-oxo-1~{H}-purin-9-yl)-3,4-dihydroxy-tetrahydrofuran-2-yl]methoxy-hydroxy-phosphoryl]oxy-hydroxy-phosphoryl] phosphate
   46    48     1     0     0
SMALL
USER_CHARGES

@<TRIPOS>ATOM
      1 PG          1.3927    4.9974   -7.6447 P.3       1 GTP         1.3594
      2 O1G         0.2179    5.6514   -8.3646 O.co2     1 GTP        -0.8909
      3 O2G         2.3509    4.2437   -8.5610 O.co2     1 GTP        -0.8909
      4 O3G         2.0811    5.8977   -6.6240 O.co2     1 GTP        -0.8909
      5 O3B         0.6977    3.8198   -6.7250 O.3       1 GTP        -0.7106
      6 PB         -0.4102    3.9139   -5.5506 P.3       1 GTP         1.8242
      7 O1B        -0.0072    4.7448   -4.3684 O.2       1 GTP        -0.9138
      8 O2B        -1.7344    4.4233   -6.3252 O.3       1 GTP        -0.7900
      9 O3A        -0.7297    2.3641   -5.2260 O.3       1 GTP        -0.8086
     10 PA         -1.9948    1.6690   -4.4986 P.3       1 GTP         1.7888
     11 O1A        -3.3074    1.9129   -5.1851 O.2       1 GTP        -0.8200
     12 O2A        -1.5649    0.1132   -4.3887 O.3       1 GTP        -0.8185
     13 O5'        -1.9197    2.1711   -2.9623 O.3       1 GTP        -0.5679
     14 C5'        -0.7794    1.8744   -2.1748 C.3       1 GTP         0.1794
     15 C4'        -0.9699    2.4597   -0.7819 C.3       1 GTP         0.1313
     16 O4'        -2.1475    1.8640   -0.2014 O.3       1 GTP        -0.3993
     17 C3'         0.1697    2.1347    0.1695 C.3       1 GTP         0.0846
     18 O3'         0.1809    3.0982    1.2223 O.3       1 GTP        -0.5819
     19 C2'        -0.2543    0.7880    0.7187 C.3       1 GTP         0.0567
     20 O2'         0.3606    0.4944    1.9582 O.3       1 GTP        -0.5837
     21 C1'        -1.7682    0.9516    0.8548 C.3       1 GTP         0.2547
     22 N9         -2.5926   -0.2553    0.7436 N.pl3     1 GTP        -0.2013
     23 C8         -2.6452   -1.0991   -0.3390 C.ar      1 GTP         0.4384
     24 N7         -3.4784   -2.1038   -0.1511 N.2       1 GTP        -0.6072
     25 C5         -3.9746   -1.8891    1.1006 C.ar      1 GTP         0.1855
     26 C6         -4.9304   -2.6719    1.8339 C.ar      1 GTP         0.6502
     27 O6         -5.4514   -3.6918    1.4006 O.2       1 GTP        -0.6193
     28 N1         -5.1744   -2.1074    3.0937 N.pl3     1 GTP        -0.5097
     29 C2         -4.5705   -0.9283    3.5913 C.ar      1 GTP         0.6454
     30 N2         -4.9586   -0.5585    4.8528 N.pl3     1 GTP        -0.8839
     31 N3         -3.6977   -0.2309    2.8969 N.2       1 GTP        -0.6390
     32 C4         -3.4485   -0.7590    1.6783 C.ar      1 GTP         0.0961
     33 HOB2       -2.5817    4.4743   -5.8335 H         1 GTP         0.4357
     34 HOA2       -2.1506   -0.5080   -3.9060 H         1 GTP         0.4835
     35 H5'        -0.6593    0.7875   -2.1194 H         1 GTP         0.0448
     36 H5''        0.1051    2.3070   -2.6536 H         1 GTP         0.0448
     37 H4'        -1.1468    3.5409   -0.8523 H         1 GTP         0.1246
     38 H3'         1.1601    2.1310   -0.2934 H         1 GTP         0.0764
     39 HO3'        0.3098    3.9616    0.8017 H         1 GTP         0.4062
     40 H2'        -0.0024   -0.0091    0.0062 H         1 GTP         0.0706
     41 HO2'        1.3225    0.4909    1.8095 H         1 GTP         0.4064
     42 H1'        -2.0584    1.4255    1.8301 H         1 GTP         0.1053
     43 H8         -2.0566   -0.9287   -1.2303 H         1 GTP         0.0995
     44 HN1        -5.8383   -2.5831    3.6982 H         1 GTP         0.3262
     45 HN21       -5.6223   -1.1263    5.3266 H         1 GTP         0.4043
     46 HN22       -4.5618    0.2635    5.2457 H         1 GTP         0.4043
@<TRIPOS>BOND
     1    1    2 2
     2    1    3 1
     3    1    4 1
     4    1    5 1
     5    5    6 1
     6    6    7 2
     7    6    8 1
     8    6    9 1
     9    8   33 1
    10    9   10 1
    11   10   11 2
    12   10   12 1
    13   10   13 1
    14   12   34 1
    15   13   14 1
    16   14   15 1
    17   14   35 1
    18   14   36 1
    19   15   16 1
    20   15   17 1
    21   15   37 1
    22   16   21 1
    23   17   18 1
    24   17   19 1
    25   17   38 1
    26   18   39 1
    27   19   20 1
    28   19   21 1
    29   19   40 1
    30   20   41 1
    31   21   22 1
    32   21   42 1
    33   22   23 ar
    34   22   32 ar
    35   23   24 ar
    36   23   43 1
    37   24   25 ar
    38   25   26 ar
    39   25   32 ar
    40   26   27 2
    41   26   28 ar
    42   28   29 ar
    43   28   44 1
    44   29   30 1
    45   29   31 ar
    46   30   45 1
    47   30   46 1
    48   31   32 ar
@<TRIPOS>SUBSTRUCTURE
     1 GTP         1 GROUP 0 A     ****
@<TRIPOS>MOLECULE
[[[5-(2-amino-6-oxo-1~{H}-purin-9-yl)-3,4-dihydroxy-tetrahydrofuran-2-yl]methoxy-hydroxy-phosphoryl]oxy-hydroxy-phosphoryl] phosphate
   46    48     1     0     0
SMALL
USER_CHARGES

@<TRIPOS>ATOM
      1 PG         -4.7111    7.5821    1.7893 P.3       1 GTP         1.3594
      2 O1G        -4.0627    8.8762    1.3088 O.co2     1 GTP        -0.8909
      3 O2G        -4.8622    7.4789    3.3033 O.co2     1 GTP        -0.8909
      4 O3G        -5.9565    7.1779    1.0072 O.co2     1 GTP        -0.8909
      5 O3B        -3.6119    6.4145    1.4094 O.3       1 GTP        -0.7106
      6 PB         -2.9910    5.9737   -0.0174 P.3       1 GTP         1.8242
      7 O1B        -3.9975    5.5005   -1.0243 O.2       1 GTP        -0.9138
      8 O2B        -2.1300    7.2660   -0.4664 O.3       1 GTP        -0.7900
      9 O3A        -1.8666    4.8893    0.3938 O.3       1 GTP        -0.8086
     10 PA         -0.5521    5.0215    1.3252 P.3       1 GTP         1.7888
     11 O1A         0.4424    6.0370    0.8422 O.2       1 GTP        -0.8200
     12 O2A        -1.1552    5.3094    2.7985 O.3       1 GTP        -0.8185
     13 O5'         0.0170    3.5129    1.4592 O.3       1 GTP        -0.5679
     14 C5'        -0.8811    2.4285    1.6206 C.3       1 GTP         0.1794
     15 C4'        -0.1994    1.3333    2.4288 C.3       1 GTP         0.1313
     16 O4'        -1.1285    0.2356    2.5840 O.3       1 GTP        -0.3993
     17 C3'         1.0324    0.7610    1.7344 C.3       1 GTP         0.0846
     18 O3'         1.9175    0.2377    2.7247 O.3       1 GTP        -0.5819
     19 C2'         0.4468   -0.3802    0.9263 C.3       1 GTP         0.0567
     20 O2'         1.3993   -1.3703    0.5961 O.3       1 GTP        -0.5837
     21 C1'        -0.6159   -0.9100    1.8769 C.3       1 GTP         0.2547
     22 N9         -1.7127   -1.6108    1.2130 N.pl3     1 GTP        -0.2013
     23 C8         -2.8667   -1.0365    0.7385 C.ar      1 GTP         0.4384
     24 N7         -3.6757   -1.9196    0.1868 N.2       1 GTP        -0.6072
     25 C5         -3.0088   -3.1018    0.3164 C.ar      1 GTP         0.1855
     26 C6         -3.4148   -4.4130   -0.1079 C.ar      1 GTP         0.6502
     27 O6         -4.4753   -4.6480   -0.6732 O.2       1 GTP        -0.6193
     28 N1         -2.4377   -5.3653    0.2144 N.pl3     1 GTP        -0.5097
     29 C2         -1.2132   -5.0902    0.8680 C.ar      1 GTP         0.6454
     30 N2         -0.4066   -6.1772    1.0834 N.pl3     1 GTP        -0.8839
     31 N3         -0.8672   -3.8786    1.2457 N.2       1 GTP        -0.6390
     32 C4         -1.7966   -2.9451    0.9439 C.ar      1 GTP         0.0961
     33 HOB2       -2.6004    8.1024   -0.6695 H         1 GTP         0.4357
     34 HOA2       -1.6443    6.1449    2.9561 H         1 GTP         0.4835
     35 H5'        -1.7776    2.7841    2.1389 H         1 GTP         0.0448
     36 H5''       -1.1659    2.0533    0.6322 H         1 GTP         0.0448
     37 H4'         0.0402    1.7079    3.4342 H         1 GTP         0.1246
     38 H3'         1.5907    1.4859    1.1353 H         1 GTP         0.0764
     39 HO3'        2.6839   -0.1150    2.2479 H         1 GTP         0.4062
     40 H2'        -0.0017    0.0018    0.0005 H         1 GTP         0.0706
     41 HO2'        2.0953   -0.9375    0.0709 H         1 GTP         0.4064
     42 H1'        -0.1998   -1.6319    2.6178 H         1 GTP         0.1053
     43 H8         -3.0589    0.0244    0.8247 H         1 GTP         0.0995
     44 HN1        -2.6238   -6.3307   -0.0420 H         1 GTP         0.3262
     45 HN21        0.4646   -6.0341    1.5394 H         1 GTP         0.4043
     46 HN22       -0.7235   -7.0673    0.7753 H         1 GTP         0.4043
@<TRIPOS>BOND
     1    1    2 2
     2    1    3 1
     3    1    4 1
     4    1    5 1
     5    5    6 1
     6    6    7 2
     7    6    8 1
     8    6    9 1
     9    8   33 1
    10    9   10 1
    11   10   11 2
    12   10   12 1
    13   10   13 1
    14   12   34 1
    15   13   14 1
    16   14   15 1
    17   14   35 1
    18   14   36 1
    19   15   16 1
    20   15   17 1
    21   15   37 1
    22   16   21 1
    23   17   18 1
    24   17   19 1
    25   17   38 1
    26   18   39 1
    27   19   20 1
    28   19   21 1
    29   19   40 1
    30   20   41 1
    31   21   22 1
    32   21   42 1
    33   22   23 ar
    34   22   32 ar
    35   23   24 ar
    36   23   43 1
    37   24   25 ar
    38   25   26 ar
    39   25   32 ar
    40   26   27 2
    41   26   28 ar
    42   28   29 ar
    43   28   44 1
    44   29   30 1
    45   29   31 ar
    46   30   45 1
    47   30   46 1
    48   31   32 ar
@<TRIPOS>SUBSTRUCTURE
     1 GTP         1 GROUP 0 A     ****
@<TRIPOS>MOLECULE
[[[5-(2-amino-6-oxo-1~{H}-purin-9-yl)-3,4-dihydroxy-tetrahydrofuran-2-yl]methoxy-hydroxy-phosphoryl]oxy-hydroxy-phosphoryl] phosphate
   46    48     1     0     0
SMALL
USER_CHARGES

@<TRIPOS>ATOM
      1 PG         -0.8821    8.0760   -1.3412 P.3       1 GTP         1.3594
      2 O1G        -1.7049    9.2057   -0.7307 O.co2     1 GTP        -0.8909
      3 O2G        -1.0705    7.9023   -2.8445 O.co2     1 GTP        -0.8909
      4 O3G         0.5730    8.0443   -0.8852 O.co2     1 GTP        -0.8909
      5 O3B        -1.5286    6.7076   -0.6889 O.3       1 GTP        -0.7106
      6 PB         -1.6638    6.2348    0.8518 P.3       1 GTP         1.8242
      7 O1B        -0.3626    6.0949    1.5852 O.2       1 GTP        -0.9138
      8 O2B        -2.6932    7.3089    1.4840 O.3       1 GTP        -0.7900
      9 O3A        -2.5412    4.8830    0.7425 O.3       1 GTP        -0.8086
     10 PA         -3.0702    3.8637    1.8801 P.3       1 GTP         1.7888
     11 O1A        -3.9677    4.4980    2.9027 O.2       1 GTP        -0.8200
     12 O2A        -3.7480    2.6639    1.0327 O.3       1 GTP        -0.8185
     13 O5'        -1.7334    3.1724    2.4742 O.3       1 GTP        -0.5679
     14 C5'        -0.8811    2.4285    1.6206 C.3       1 GTP         0.1794
     15 C4'        -0.1994    1.3333    2.4288 C.3       1 GTP         0.1313
     16 O4'        -1.1285    0.2356    2.5840 O.3       1 GTP        -0.3993
     17 C3'         1.0324    0.7610    1.7344 C.3       1 GTP         0.0846
     18 O3'         1.9175    0.2377    2.7247 O.3       1 GTP        -0.5819
     19 C2'         0.4468   -0.3802    0.9263 C.3       1 GTP         0.0567
     20 O2'         1.3993   -1.3703    0.5961 O.3       1 GTP        -0.5837
     21 C1'        -0.6159   -0.9100    1.8769 C.3       1 GTP         0.2547
     22 N9         -1.7127   -1.6108    1.2130 N.pl3     1 GTP        -0.2013
     23 C8         -2.5489   -1.0812    0.2607 C.ar      1 GTP         0.4384
     24 N7         -3.4468   -1.9516   -0.1576 N.2       1 GTP        -0.6072
     25 C5         -3.1696   -3.0787    0.5579 C.ar      1 GTP         0.1855
     26 C6         -3.8307   -4.3536    0.5166 C.ar      1 GTP         0.6502
     27 O6         -4.7841   -4.6033   -0.2101 O.2       1 GTP        -0.6193
     28 N1         -3.2356   -5.2522    1.4132 N.pl3     1 GTP        -0.5097
     29 C2         -2.1338   -4.9602    2.2517 C.ar      1 GTP         0.6454
     30 N2         -1.7156   -5.9923    3.0507 N.pl3     1 GTP        -0.8839
     31 N3         -1.5477   -3.7827    2.2686 N.2       1 GTP        -0.6390
     32 C4         -2.1070   -2.9013    1.4104 C.ar      1 GTP         0.0961
     33 HOB2       -3.0086    7.1794    2.4037 H         1 GTP         0.4357
     34 HOA2       -4.0801    1.8743    1.5104 H         1 GTP         0.4835
     35 H5'        -1.4794    1.9921    0.8142 H         1 GTP         0.0448
     36 H5''       -0.1361    3.1034    1.1867 H         1 GTP         0.0448
     37 H4'         0.0402    1.7079    3.4342 H         1 GTP         0.1246
     38 H3'         1.5907    1.4859    1.1353 H         1 GTP         0.0764
     39 HO3'        2.6839   -0.1150    2.2479 H         1 GTP         0.4062
     40 H2'        -0.0017    0.0018    0.0005 H         1 GTP         0.0706
     41 HO2'        2.0953   -0.9375    0.0709 H         1 GTP         0.4064
     42 H1'        -0.1998   -1.6319    2.6178 H         1 GTP         0.1053
     43 H8         -2.4545   -0.0604   -0.0844 H         1 GTP         0.0995
     44 HN1        -3.6270   -6.1884    1.4651 H         1 GTP         0.3262
     45 HN21       -0.9445   -5.8354    3.6574 H         1 GTP         0.4043
     46 HN22       -2.1993   -6.8585    2.9930 H         1 GTP         0.4043
@<TRIPOS>BOND
     1    1    2 2
     2    1    3 1
     3    1    4 1
     4    1    5 1
     5    5    6 1
     6    6    7 2
     7    6    8 1
     8    6    9 1
     9    8   33 1
    10    9   10 1
    11   10   11 2
    12   10   12 1
    13   10   13 1
    14   12   34 1
    15   13   14 1
    16   14   15 1
    17   14   35 1
    18   14   36 1
    19   15   16 1
    20   15   17 1
    21   15   37 1
    22   16   21 1
    23   17   18 1
    24   17   19 1
    25   17   38 1
    26   18   39 1
    27   19   20 1
    28   19   21 1
    29   19   40 1
    30   20   41 1
    31   21   22 1
    32   21   42 1
    33   22   23 ar
    34   22   32 ar
    35   23   24 ar
    36   23   43 1
    37   24   25 ar
    38   25   26 ar
    39   25   32 ar
    40   26   27 2
    41   26   28 ar
    42   28   29 ar
    43   28   44 1
    44   29   30 1
    45   29   31 ar
    46   30   45 1
    47   30   46 1
    48   31   32 ar
@<TRIPOS>SUBSTRUCTURE
     1 GTP         1 GROUP 0 A     ****
@<TRIPOS>MOLECULE
[[[5-(2-amino-6-oxo-1~{H}-purin-9-yl)-3,4-dihydroxy-tetrahydrofuran-2-yl]methoxy-hydroxy-phosphoryl]oxy-hydroxy-phosphoryl] phosphate
   46    48     1     0     0
SMALL
USER_CHARGES

@<TRIPOS>ATOM
      1 PG         -4.3657    3.9198   -3.3937 P.3       1 GTP         1.3594
      2 O1G        -5.3612    4.8833   -2.7559 O.co2     1 GTP        -0.8909
      3 O2G        -4.8574    2.4793   -3.4887 O.co2     1 GTP        -0.8909
      4 O3G        -3.7162    4.4446   -4.6700 O.co2     1 GTP        -0.8909
      5 O3B        -3.1201    3.8546   -2.3166 O.3       1 GTP        -0.7106
      6 PB         -2.1508    5.0197   -1.7523 P.3       1 GTP         1.8242
      7 O1B        -1.3463    5.7329   -2.7986 O.2       1 GTP        -0.9138
      8 O2B        -3.1525    5.9603   -0.9008 O.3       1 GTP        -0.7900
      9 O3A        -1.2866    4.2581   -0.6199 O.3       1 GTP        -0.8086
     10 PA         -0.4418    4.8275    0.6351 P.3       1 GTP         1.7888
     11 O1A         0.6706    5.7604    0.2532 O.2       1 GTP        -0.8200
     12 O2A        -1.5721    5.4755    1.5941 O.3       1 GTP        -0.8185
     13 O5'         0.0170    3.5129    1.4592 O.3       1 GTP        -0.5679
     14 C5'        -0.8811    2.4285    1.6206 C.3       1 GTP         0.1794
     15 C4'        -0.1994    1.3333    2.4288 C.3       1 GTP         0.1313
     16 O4'        -1.1285    0.2356    2.5840 O.3       1 GTP        -0.3993
     17 C3'         1.0324    0.7610    1.7344 C.3       1 GTP         0.0846
     18 O3'         1.9175    0.2377    2.7247 O.3       1 GTP        -0.5819
     19 C2'         0.4468   -0.3802    0.9263 C.3       1 GTP         0.0567
     20 O2'         1.3993   -1.3703    0.5961 O.3       1 GTP        -0.5837
     21 C1'        -0.6159   -0.9100    1.8769 C.3       1 GTP         0.2547
     22 N9         -1.7127   -1.6108    1.2130 N.pl3     1 GTP        -0.2013
     23 C8         -2.8667   -1.0365    0.7385 C.ar      1 GTP         0.4384
     24 N7         -3.6757   -1.9196    0.1868 N.2       1 GTP        -0.6072
     25 C5         -3.0088   -3.1018    0.3164 C.ar      1 GTP         0.1855
     26 C6         -3.4148   -4.4130   -0.1079 C.ar      1 GTP         0.6502
     27 O6         -4.4753   -4.6480   -0.6732 O.2       1 GTP        -0.6193
     28 N1         -2.4377   -5.3653    0.2144 N.pl3     1 GTP        -0.5097
     29 C2         -1.2132   -5.0902    0.8680 C.ar      1 GTP         0.6454
     30 N2         -0.4066   -6.1772    1.0834 N.pl3     1 GTP        -0.8839
     31 N3         -0.8672   -3.8786    1.2457 N.2       1 GTP        -0.6390
     32 C4         -1.7966   -2.9451    0.9439 C.ar      1 GTP         0.0961
     33 HOB2       -3.8552    6.4553   -1.3735 H         1 GTP         0.4357
     34 HOA2       -2.0771    6.2530    1.2740 H         1 GTP         0.4835
     35 H5'        -1.7776    2.7841    2.1389 H         1 GTP         0.0448
     36 H5''       -1.1659    2.0533    0.6322 H         1 GTP         0.0448
     37 H4'         0.0402    1.7079    3.4342 H         1 GTP         0.1246
     38 H3'         1.5907    1.4859    1.1353 H         1 GTP         0.0764
     39 HO3'        2.1521    0.9800    3.3017 H         1 GTP         0.4062
     40 H2'        -0.0017    0.0018    0.0005 H         1 GTP         0.0706
     41 HO2'        0.9369   -2.0558    0.0825 H         1 GTP         0.4064
     42 H1'        -0.1998   -1.6319    2.6178 H         1 GTP         0.1053
     43 H8         -3.0589    0.0244    0.8247 H         1 GTP         0.0995
     44 HN1        -2.6238   -6.3307   -0.0420 H         1 GTP         0.3262
     45 HN21        0.4646   -6.0341    1.5394 H         1 GTP         0.4043
     46 HN22       -0.7235   -7.0673    0.7753 H         1 GTP         0.4043
@<TRIPOS>BOND
     1    1    2 2
     2    1    3 1
     3    1    4 1
     4    1    5 1
     5    5    6 1
     6    6    7 2
     7    6    8 1
     8    6    9 1
     9    8   33 1
    10    9   10 1
    11   10   11 2
    12   10   12 1
    13   10   13 1
    14   12   34 1
    15   13   14 1
    16   14   15 1
    17   14   35 1
    18   14   36 1
    19   15   16 1
    20   15   17 1
    21   15   37 1
    22   16   21 1
    23   17   18 1
    24   17   19 1
    25   17   38 1
    26   18   39 1
    27   19   20 1
    28   19   21 1
    29   19   40 1
    30   20   41 1
    31   21   22 1
    32   21   42 1
    33   22   23 ar
    34   22   32 ar
    35   23   24 ar
    36   23   43 1
    37   24   25 ar
    38   25   26 ar
    39   25   32 ar
    40   26   27 2
    41   26   28 ar
    42   28   29 ar
    43   28   44 1
    44   29   30 1
    45   29   31 ar
    46   30   45 1
    47   30   46 1
    48   31   32 ar
@<TRIPOS>SUBSTRUCTURE
     1 GTP         1 GROUP 0 A     ****
@<TRIPOS>MOLECULE
[[[5-(2-amino-6-oxo-1~{H}-purin-9-yl)-3,4-dihydroxy-tetrahydrofuran-2-yl]methoxy-hydroxy-phosphoryl]oxy-hydroxy-phosphoryl] phosphate
   46    48     1     0     0
SMALL
USER_CHARGES

@<TRIPOS>ATOM
      1 PG         -2.8643    7.9857   -2.1959 P.3       1 GTP         1.3594
      2 O1G        -4.0200    7.3132   -2.9293 O.co2     1 GTP        -0.8909
      3 O2G        -1.6824    8.3526   -3.0872 O.co2     1 GTP        -0.8909
      4 O3G        -3.2908    9.0914   -1.2358 O.co2     1 GTP        -0.8909
      5 O3B        -2.2761    6.8086   -1.2038 O.3       1 GTP        -0.7106
      6 PB         -2.9910    5.9737   -0.0174 P.3       1 GTP         1.8242
      7 O1B        -3.5178    6.8083    1.1124 O.2       1 GTP        -0.9138
      8 O2B        -4.1030    5.0954   -0.7953 O.3       1 GTP        -0.7900
      9 O3A        -1.8666    4.8893    0.3938 O.3       1 GTP        -0.8086
     10 PA         -0.5521    5.0215    1.3252 P.3       1 GTP         1.7888
     11 O1A         0.4424    6.0370    0.8422 O.2       1 GTP        -0.8200
     12 O2A        -1.1552    5.3094    2.7985 O.3       1 GTP        -0.8185
     13 O5'         0.0170    3.5129    1.4592 O.3       1 GTP        -0.5679
     14 C5'        -0.8811    2.4285    1.6206 C.3       1 GTP         0.1794
     15 C4'        -0.1994    1.3333    2.4288 C.3       1 GTP         0.1313
     16 O4'        -1.1285    0.2356    2.5840 O.3       1 GTP        -0.3993
     17 C3'         1.0324    0.7610    1.7344 C.3       1 GTP         0.0846
     18 O3'         1.9175    0.2377    2.7247 O.3       1 GTP        -0.5819
     19 C2'         0.4468   -0.3802    0.9263 C.3       1 GTP         0.0567
     20 O2'         1.3993   -1.3703    0.5961 O.3       1 GTP        -0.5837
     21 C1'        -0.6159   -0.9100    1.8769 C.3       1 GTP         0.2547
     22 N9         -1.7127   -1.6108    1.2130 N.pl3     1 GTP        -0.2013
     23 C8         -2.8667   -1.0365    0.7385 C.ar      1 GTP         0.4384
     24 N7         -3.6757   -1.9196    0.1868 N.2       1 GTP        -0.6072
     25 C5         -3.0088   -3.1018    0.3164 C.ar      1 GTP         0.1855
     26 C6         -3.4148   -4.4130   -0.1079 C.ar      1 GTP         0.6502
     27 O6         -4.4753   -4.6480   -0.6732 O.2       1 GTP        -0.6193
     28 N1         -2.4377   -5.3653    0.2144 N.pl3     1 GTP        -0.5097
     29 C2         -1.2132   -5.0902    0.8680 C.ar      1 GTP         0.6454
     30 N2         -0.4066   -6.1772    1.0834 N.pl3     1 GTP        -0.8839
     31 N3         -0.8672   -3.8786    1.2457 N.2       1 GTP        -0.6390
     32 C4         -1.7966   -2.9451    0.9439 C.ar      1 GTP         0.0961
     33 HOB2       -4.6176    4.4285   -0.2927 H         1 GTP         0.4357
     34 HOA2       -0.5415    5.3532    3.5622 H         1 GTP         0.4835
     35 H5'        -1.7776    2.7841    2.1389 H         1 GTP         0.0448
     36 H5''       -1.1659    2.0533    0.6322 H         1 GTP         0.0448
     37 H4'         0.0402    1.7079    3.4342 H         1 GTP         0.1246
     38 H3'         1.5907    1.4859    1.1353 H         1 GTP         0.0764
     39 HO3'        2.1521    0.9800    3.3017 H         1 GTP         0.4062
     40 H2'        -0.0017    0.0018    0.0005 H         1 GTP         0.0706
     41 HO2'        2.0953   -0.9375    0.0709 H         1 GTP         0.4064
     42 H1'        -0.1998   -1.6319    2.6178 H         1 GTP         0.1053
     43 H8         -3.0589    0.0244    0.8247 H         1 GTP         0.0995
     44 HN1        -2.6238   -6.3307   -0.0420 H         1 GTP         0.3262
     45 HN21        0.4646   -6.0341    1.5394 H         1 GTP         0.4043
     46 HN22       -0.7235   -7.0673    0.7753 H         1 GTP         0.4043
@<TRIPOS>BOND
     1    1    2 2
     2    1    3 1
     3    1    4 1
     4    1    5 1
     5    5    6 1
     6    6    7 2
     7    6    8 1
     8    6    9 1
     9    8   33 1
    10    9   10 1
    11   10   11 2
    12   10   12 1
    13   10   13 1
    14   12   34 1
    15   13   14 1
    16   14   15 1
    17   14   35 1
    18   14   36 1
    19   15   16 1
    20   15   17 1
    21   15   37 1
    22   16   21 1
    23   17   18 1
    24   17   19 1
    25   17   38 1
    26   18   39 1
    27   19   20 1
    28   19   21 1
    29   19   40 1
    30   20   41 1
    31   21   22 1
    32   21   42 1
    33   22   23 ar
    34   22   32 ar
    35   23   24 ar
    36   23   43 1
    37   24   25 ar
    38   25   26 ar
    39   25   32 ar
    40   26   27 2
    41   26   28 ar
    42   28   29 ar
    43   28   44 1
    44   29   30 1
    45   29   31 ar
    46   30   45 1
    47   30   46 1
    48   31   32 ar
@<TRIPOS>SUBSTRUCTURE
     1 GTP         1 GROUP 0 A     ****
@<TRIPOS>MOLECULE
[[[5-(2-amino-6-oxo-1~{H}-purin-9-yl)-3,4-dihydroxy-tetrahydrofuran-2-yl]methoxy-hydroxy-phosphoryl]oxy-hydroxy-phosphoryl] phosphate
   46    48     1     0     0
SMALL
USER_CHARGES

@<TRIPOS>ATOM
      1 PG         -1.1085    8.5101   -0.0072 P.3       1 GTP         1.3594
      2 O1G        -2.4732    9.0303   -0.4466 O.co2     1 GTP        -0.8909
      3 O2G         0.0739    9.2081   -0.6710 O.co2     1 GTP        -0.8909
      4 O3G        -0.9629    8.3300    1.5003 O.co2     1 GTP        -0.8909
      5 O3B        -1.0549    6.9712   -0.5942 O.3       1 GTP        -0.7106
      6 PB         -2.0111    5.6986   -0.3084 P.3       1 GTP         1.8242
      7 O1B        -3.4528    5.8985   -0.6723 O.2       1 GTP        -0.9138
      8 O2B        -1.2703    4.4913   -1.0871 O.3       1 GTP        -0.7900
      9 O3A        -1.7328    5.3762    1.2497 O.3       1 GTP        -0.8086
     10 PA         -0.3726    4.9772    2.0265 P.3       1 GTP         1.7888
     11 O1A         0.7144    6.0080    1.9291 O.2       1 GTP        -0.8200
     12 O2A        -0.8720    4.6574    3.5317 O.3       1 GTP        -0.8185
     13 O5'         0.0170    3.5129    1.4592 O.3       1 GTP        -0.5679
     14 C5'        -0.8811    2.4285    1.6206 C.3       1 GTP         0.1794
     15 C4'        -0.1994    1.3333    2.4288 C.3       1 GTP         0.1313
     16 O4'        -1.1285    0.2356    2.5840 O.3       1 GTP        -0.3993
     17 C3'         1.0324    0.7610    1.7344 C.3       1 GTP         0.0846
     18 O3'         1.9175    0.2377    2.7247 O.3       1 GTP        -0.5819
     19 C2'         0.4468   -0.3802    0.9263 C.3       1 GTP         0.0567
     20 O2'         1.3993   -1.3703    0.5961 O.3       1 GTP        -0.5837
     21 C1'        -0.6159   -0.9100    1.8769 C.3       1 GTP         0.2547
     22 N9         -1.7127   -1.6108    1.2130 N.pl3     1 GTP        -0.2013
     23 C8         -2.8667   -1.0365    0.7385 C.ar      1 GTP         0.4384
     24 N7         -3.6757   -1.9196    0.1868 N.2       1 GTP        -0.6072
     25 C5         -3.0088   -3.1018    0.3164 C.ar      1 GTP         0.1855
     26 C6         -3.4148   -4.4130   -0.1079 C.ar      1 GTP         0.6502
     27 O6         -4.4753   -4.6480   -0.6732 O.2       1 GTP        -0.6193
     28 N1         -2.4377   -5.3653    0.2144 N.pl3     1 GTP        -0.5097
     29 C2         -1.2132   -5.0902    0.8680 C.ar      1 GTP         0.6454
     30 N2         -0.4066   -6.1772    1.0834 N.pl3     1 GTP        -0.8839
     31 N3         -0.8672   -3.8786    1.2457 N.2       1 GTP        -0.6390
     32 C4         -1.7966   -2.9451    0.9439 C.ar      1 GTP         0.0961
     33 HOB2       -1.2148    4.5213   -2.0660 H         1 GTP         0.4357
     34 HOA2       -0.2247    4.3137    4.1835 H         1 GTP         0.4835
     35 H5'        -1.7776    2.7841    2.1389 H         1 GTP         0.0448
     36 H5''       -1.1659    2.0533    0.6322 H         1 GTP         0.0448
     37 H4'         0.0402    1.7079    3.4342 H         1 GTP         0.1246
     38 H3'         1.5907    1.4859    1.1353 H         1 GTP         0.0764
     39 HO3'        2.6839   -0.1150    2.2479 H         1 GTP         0.4062
     40 H2'        -0.0017    0.0018    0.0005 H         1 GTP         0.0706
     41 HO2'        2.0953   -0.9375    0.0709 H         1 GTP         0.4064
     42 H1'        -0.1998   -1.6319    2.6178 H         1 GTP         0.1053
     43 H8         -3.0589    0.0244    0.8247 H         1 GTP         0.0995
     44 HN1        -2.6238   -6.3307   -0.0420 H         1 GTP         0.3262
     45 HN21        0.4646   -6.0341    1.5394 H         1 GTP         0.4043
     46 HN22       -0.7235   -7.0673    0.7753 H         1 GTP         0.4043
@<TRIPOS>BOND
     1    1    2 2
     2    1    3 1
     3    1    4 1
     4    1    5 1
     5    5    6 1
     6    6    7 2
     7    6    8 1
     8    6    9 1
     9    8   33 1
    10    9   10 1
    11   10   11 2
    12   10   12 1
    13   10   13 1
    14   12   34 1
    15   13   14 1
    16   14   15 1
    17   14   35 1
    18   14   36 1
    19   15   16 1
    20   15   17 1
    21   15   37 1
    22   16   21 1
    23   17   18 1
    24   17   19 1
    25   17   38 1
    26   18   39 1
    27   19   20 1
    28   19   21 1
    29   19   40 1
    30   20   41 1
    31   21   22 1
    32   21   42 1
    33   22   23 ar
    34   22   32 ar
    35   23   24 ar
    36   23   43 1
    37   24   25 ar
    38   25   26 ar
    39   25   32 ar
    40   26   27 2
    41   26   28 ar
    42   28   29 ar
    43   28   44 1
    44   29   30 1
    45   29   31 ar
    46   30   45 1
    47   30   46 1
    48   31   32 ar
@<TRIPOS>SUBSTRUCTURE
     1 GTP         1 GROUP 0 A     ****
@<TRIPOS>MOLECULE
[[[5-(2-amino-6-oxo-1~{H}-purin-9-yl)-3,4-dihydroxy-tetrahydrofuran-2-yl]methoxy-hydroxy-phosphoryl]oxy-hydroxy-phosphoryl] phosphate
   46    48     1     0     0
SMALL
USER_CHARGES

@<TRIPOS>ATOM
      1 PG          1.8245    0.8529   -3.8910 P.3       1 GTP         1.3594
      2 O1G         2.8757    1.6789   -4.6250 O.co2     1 GTP        -0.8909
      3 O2G         0.7486    0.2589   -4.7939 O.co2     1 GTP        -0.8909
      4 O3G         2.3975   -0.1271   -2.8724 O.co2     1 GTP        -0.8909
      5 O3B         1.0185    1.9541   -2.9672 O.3       1 GTP        -0.7106
      6 PB          1.5474    2.9431   -1.8019 P.3       1 GTP         1.8242
      7 O1B         2.5603    2.3398   -0.8741 O.2       1 GTP        -0.9138
      8 O2B         2.0552    4.2436   -2.6167 O.3       1 GTP        -0.7900
      9 O3A         0.1811    3.4417   -1.0992 O.3       1 GTP        -0.8086
     10 PA         -0.0712    4.4471    0.1412 P.3       1 GTP         1.7888
     11 O1A         0.8293    5.6482    0.1502 O.2       1 GTP        -0.8200
     12 O2A        -1.6507    4.7834    0.0451 O.3       1 GTP        -0.8185
     13 O5'         0.0170    3.5129    1.4592 O.3       1 GTP        -0.5679
     14 C5'        -0.8811    2.4285    1.6206 C.3       1 GTP         0.1794
     15 C4'        -0.1994    1.3333    2.4288 C.3       1 GTP         0.1313
     16 O4'        -1.1285    0.2356    2.5840 O.3       1 GTP        -0.3993
     17 C3'         1.0324    0.7610    1.7344 C.3       1 GTP         0.0846
     18 O3'         1.9175    0.2377    2.7247 O.3       1 GTP        -0.5819
     19 C2'         0.4468   -0.3802    0.9263 C.3       1 GTP         0.0567
     20 O2'         1.3993   -1.3703    0.5961 O.3       1 GTP        -0.5837
     21 C1'        -0.6159   -0.9100    1.8769 C.3       1 GTP         0.2547
     22 N9         -1.7127   -1.6108    1.2130 N.pl3     1 GTP        -0.2013
     23 C8         -1.7695   -2.9586    0.9546 C.ar      1 GTP         0.4384
     24 N7         -2.8846   -3.3047    0.3416 N.2       1 GTP        -0.6072
     25 C5         -3.5626   -2.1296    0.2052 C.ar      1 GTP         0.1855
     26 C6         -4.8477   -1.8989   -0.3942 C.ar      1 GTP         0.6502
     27 O6         -5.5373   -2.7819   -0.8881 O.2       1 GTP        -0.6193
     28 N1         -5.1895   -0.5407   -0.3318 N.pl3     1 GTP        -0.5097
     29 C2         -4.3899    0.4774    0.2398 C.ar      1 GTP         0.6454
     30 N2         -4.9233    1.7390    0.1898 N.pl3     1 GTP        -0.8839
     31 N3         -3.2159    0.2369    0.7822 N.2       1 GTP        -0.6390
     32 C4         -2.8678   -1.0679    0.7322 C.ar      1 GTP         0.0961
     33 HOB2        2.3451    5.0348   -2.1145 H         1 GTP         0.4357
     34 HOA2       -1.9841    5.2773   -0.7340 H         1 GTP         0.4835
     35 H5'        -1.7776    2.7841    2.1389 H         1 GTP         0.0448
     36 H5''       -1.1659    2.0533    0.6322 H         1 GTP         0.0448
     37 H4'         0.0402    1.7079    3.4342 H         1 GTP         0.1246
     38 H3'         1.5907    1.4859    1.1353 H         1 GTP         0.0764
     39 HO3'        2.6839   -0.1150    2.2479 H         1 GTP         0.4062
     40 H2'        -0.0017    0.0018    0.0005 H         1 GTP         0.0706
     41 HO2'        0.9369   -2.0558    0.0825 H         1 GTP         0.4064
     42 H1'        -0.1998   -1.6319    2.6178 H         1 GTP         0.1053
     43 H8         -0.9713   -3.6323    1.2352 H         1 GTP         0.0995
     44 HN1        -6.0831   -0.2651   -0.7290 H         1 GTP         0.3262
     45 HN21       -4.3984    2.4878    0.5788 H         1 GTP         0.4043
     46 HN22       -5.8145    1.8572   -0.2335 H         1 GTP         0.4043
@<TRIPOS>BOND
     1    1    2 2
     2    1    3 1
     3    1    4 1
     4    1    5 1
     5    5    6 1
     6    6    7 2
     7    6    8 1
     8    6    9 1
     9    8   33 1
    10    9   10 1
    11   10   11 2
    12   10   12 1
    13   10   13 1
    14   12   34 1
    15   13   14 1
    16   14   15 1
    17   14   35 1
    18   14   36 1
    19   15   16 1
    20   15   17 1
    21   15   37 1
    22   16   21 1
    23   17   18 1
    24   17   19 1
    25   17   38 1
    26   18   39 1
    27   19   20 1
    28   19   21 1
    29   19   40 1
    30   20   41 1
    31   21   22 1
    32   21   42 1
    33   22   23 ar
    34   22   32 ar
    35   23   24 ar
    36   23   43 1
    37   24   25 ar
    38   25   26 ar
    39   25   32 ar
    40   26   27 2
    41   26   28 ar
    42   28   29 ar
    43   28   44 1
    44   29   30 1
    45   29   31 ar
    46   30   45 1
    47   30   46 1
    48   31   32 ar
@<TRIPOS>SUBSTRUCTURE
     1 GTP         1 GROUP 0 A     ****
@<TRIPOS>MOLECULE
[[[5-(2-amino-6-oxo-1~{H}-purin-9-yl)-3,4-dihydroxy-tetrahydrofuran-2-yl]methoxy-hydroxy-phosphoryl]oxy-hydroxy-phosphoryl] phosphate
   46    48     1     0     0
SMALL
USER_CHARGES

@<TRIPOS>ATOM
      1 PG          0.7009    5.5349   -1.6730 P.3       1 GTP         1.3594
      2 O1G         1.9480    4.8110   -1.1764 O.co2     1 GTP        -0.8909
      3 O2G         0.9651    6.5647   -2.7665 O.co2     1 GTP        -0.8909
      4 O3G        -0.4862    4.6184   -1.9504 O.co2     1 GTP        -0.8909
      5 O3B         0.2120    6.4310   -0.3793 O.3       1 GTP        -0.7106
      6 PB         -0.2275    5.9811    1.1107 P.3       1 GTP         1.8242
      7 O1B         0.8274    5.2473    1.8850 O.2       1 GTP        -0.9138
      8 O2B        -0.7349    7.3603    1.7838 O.3       1 GTP        -0.7900
      9 O3A        -1.5923    5.1560    0.8546 O.3       1 GTP        -0.8086
     10 PA         -2.5921    4.4092    1.8820 P.3       1 GTP         1.7888
     11 O1A        -3.2000    5.3146    2.9137 O.2       1 GTP        -0.8200
     12 O2A        -3.6575    3.6739    0.9117 O.3       1 GTP        -0.8185
     13 O5'        -1.7334    3.1724    2.4742 O.3       1 GTP        -0.5679
     14 C5'        -0.8811    2.4285    1.6206 C.3       1 GTP         0.1794
     15 C4'        -0.1994    1.3333    2.4288 C.3       1 GTP         0.1313
     16 O4'        -1.1285    0.2356    2.5840 O.3       1 GTP        -0.3993
     17 C3'         1.0324    0.7610    1.7344 C.3       1 GTP         0.0846
     18 O3'         1.9175    0.2377    2.7247 O.3       1 GTP        -0.5819
     19 C2'         0.4468   -0.3802    0.9263 C.3       1 GTP         0.0567
     20 O2'         1.3993   -1.3703    0.5961 O.3       1 GTP        -0.5837
     21 C1'        -0.6159   -0.9100    1.8769 C.3       1 GTP         0.2547
     22 N9         -1.7127   -1.6108    1.2130 N.pl3     1 GTP        -0.2013
     23 C8         -2.5489   -1.0812    0.2607 C.ar      1 GTP         0.4384
     24 N7         -3.4468   -1.9516   -0.1576 N.2       1 GTP        -0.6072
     25 C5         -3.1696   -3.0787    0.5579 C.ar      1 GTP         0.1855
     26 C6         -3.8307   -4.3536    0.5166 C.ar      1 GTP         0.6502
     27 O6         -4.7841   -4.6033   -0.2101 O.2       1 GTP        -0.6193
     28 N1         -3.2356   -5.2522    1.4132 N.pl3     1 GTP        -0.5097
     29 C2         -2.1338   -4.9602    2.2517 C.ar      1 GTP         0.6454
     30 N2         -1.7156   -5.9923    3.0507 N.pl3     1 GTP        -0.8839
     31 N3         -1.5477   -3.7827    2.2686 N.2       1 GTP        -0.6390
     32 C4         -2.1070   -2.9013    1.4104 C.ar      1 GTP         0.0961
     33 HOB2       -0.0852    8.0778    1.9431 H         1 GTP         0.4357
     34 HOA2       -4.2518    4.2228    0.3571 H         1 GTP         0.4835
     35 H5'        -1.4794    1.9921    0.8142 H         1 GTP         0.0448
     36 H5''       -0.1361    3.1034    1.1867 H         1 GTP         0.0448
     37 H4'         0.0402    1.7079    3.4342 H         1 GTP         0.1246
     38 H3'         1.5907    1.4859    1.1353 H         1 GTP         0.0764
     39 HO3'        2.1521    0.9800    3.3017 H         1 GTP         0.4062
     40 H2'        -0.0017    0.0018    0.0005 H         1 GTP         0.0706
     41 HO2'        2.0953   -0.9375    0.0709 H         1 GTP         0.4064
     42 H1'        -0.1998   -1.6319    2.6178 H         1 GTP         0.1053
     43 H8         -2.4545   -0.0604   -0.0844 H         1 GTP         0.0995
     44 HN1        -3.6270   -6.1884    1.4651 H         1 GTP         0.3262
     45 HN21       -0.9445   -5.8354    3.6574 H         1 GTP         0.4043
     46 HN22       -2.1993   -6.8585    2.9930 H         1 GTP         0.4043
@<TRIPOS>BOND
     1    1    2 2
     2    1    3 1
     3    1    4 1
     4    1    5 1
     5    5    6 1
     6    6    7 2
     7    6    8 1
     8    6    9 1
     9    8   33 1
    10    9   10 1
    11   10   11 2
    12   10   12 1
    13   10   13 1
    14   12   34 1
    15   13   14 1
    16   14   15 1
    17   14   35 1
    18   14   36 1
    19   15   16 1
    20   15   17 1
    21   15   37 1
    22   16   21 1
    23   17   18 1
    24   17   19 1
    25   17   38 1
    26   18   39 1
    27   19   20 1
    28   19   21 1
    29   19   40 1
    30   20   41 1
    31   21   22 1
    32   21   42 1
    33   22   23 ar
    34   22   32 ar
    35   23   24 ar
    36   23   43 1
    37   24   25 ar
    38   25   26 ar
    39   25   32 ar
    40   26   27 2
    41   26   28 ar
    42   28   29 ar
    43   28   44 1
    44   29   30 1
    45   29   31 ar
    46   30   45 1
    47   30   46 1
    48   31   32 ar
@<TRIPOS>SUBSTRUCTURE
     1 GTP         1 GROUP 0 A     ****
@<TRIPOS>MOLECULE
[[[5-(2-amino-6-oxo-1~{H}-purin-9-yl)-3,4-dihydroxy-tetrahydrofuran-2-yl]methoxy-hydroxy-phosphoryl]oxy-hydroxy-phosphoryl] phosphate
   46    48     1     0     0
SMALL
USER_CHARGES

@<TRIPOS>ATOM
      1 PG         -5.2824    7.1479    0.0045 P.3       1 GTP         1.3594
      2 O1G        -6.0775    7.0123    1.2989 O.co2     1 GTP        -0.8909
      3 O2G        -5.8791    6.3974   -1.1815 O.co2     1 GTP        -0.8909
      4 O3G        -4.8431    8.5733   -0.3140 O.co2     1 GTP        -0.8909
      5 O3B        -3.8683    6.3606    0.3148 O.3       1 GTP        -0.7106
      6 PB         -2.7360    6.6280    1.4382 P.3       1 GTP         1.8242
      7 O1B        -2.0900    7.9805    1.3733 O.2       1 GTP        -0.9138
      8 O2B        -3.4998    6.3007    2.8248 O.3       1 GTP        -0.7900
      9 O3A        -1.7328    5.3762    1.2497 O.3       1 GTP        -0.8086
     10 PA         -0.3726    4.9772    2.0265 P.3       1 GTP         1.7888
     11 O1A         0.7144    6.0080    1.9291 O.2       1 GTP        -0.8200
     12 O2A        -0.8720    4.6574    3.5317 O.3       1 GTP        -0.8185
     13 O5'         0.0170    3.5129    1.4592 O.3       1 GTP        -0.5679
     14 C5'        -0.8811    2.4285    1.6206 C.3       1 GTP         0.1794
     15 C4'        -0.1994    1.3333    2.4288 C.3       1 GTP         0.1313
     16 O4'        -1.1285    0.2356    2.5840 O.3       1 GTP        -0.3993
     17 C3'         1.0324    0.7610    1.7344 C.3       1 GTP         0.0846
     18 O3'         1.9175    0.2377    2.7247 O.3       1 GTP        -0.5819
     19 C2'         0.4468   -0.3802    0.9263 C.3       1 GTP         0.0567
     20 O2'         1.3993   -1.3703    0.5961 O.3       1 GTP        -0.5837
     21 C1'        -0.6159   -0.9100    1.8769 C.3       1 GTP         0.2547
     22 N9         -1.7127   -1.6108    1.2130 N.pl3     1 GTP        -0.2013
     23 C8         -2.8667   -1.0365    0.7385 C.ar      1 GTP         0.4384
     24 N7         -3.6757   -1.9196    0.1868 N.2       1 GTP        -0.6072
     25 C5         -3.0088   -3.1018    0.3164 C.ar      1 GTP         0.1855
     26 C6         -3.4148   -4.4130   -0.1079 C.ar      1 GTP         0.6502
     27 O6         -4.4753   -4.6480   -0.6732 O.2       1 GTP        -0.6193
     28 N1         -2.4377   -5.3653    0.2144 N.pl3     1 GTP        -0.5097
     29 C2         -1.2132   -5.0902    0.8680 C.ar      1 GTP         0.6454
     30 N2         -0.4066   -6.1772    1.0834 N.pl3     1 GTP        -0.8839
     31 N3         -0.8672   -3.8786    1.2457 N.2       1 GTP        -0.6390
     32 C4         -1.7966   -2.9451    0.9439 C.ar      1 GTP         0.0961
     33 HOB2       -4.2420    6.8774    3.1053 H         1 GTP         0.4357
     34 HOA2       -0.2247    4.3137    4.1835 H         1 GTP         0.4835
     35 H5'        -1.7776    2.7841    2.1389 H         1 GTP         0.0448
     36 H5''       -1.1659    2.0533    0.6322 H         1 GTP         0.0448
     37 H4'         0.0402    1.7079    3.4342 H         1 GTP         0.1246
     38 H3'         1.5907    1.4859    1.1353 H         1 GTP         0.0764
     39 HO3'        2.6839   -0.1150    2.2479 H         1 GTP         0.4062
     40 H2'        -0.0017    0.0018    0.0005 H         1 GTP         0.0706
     41 HO2'        2.0953   -0.9375    0.0709 H         1 GTP         0.4064
     42 H1'        -0.1998   -1.6319    2.6178 H         1 GTP         0.1053
     43 H8         -3.0589    0.0244    0.8247 H         1 GTP         0.0995
     44 HN1        -2.6238   -6.3307   -0.0420 H         1 GTP         0.3262
     45 HN21        0.4646   -6.0341    1.5394 H         1 GTP         0.4043
     46 HN22       -0.7235   -7.0673    0.7753 H         1 GTP         0.4043
@<TRIPOS>BOND
     1    1    2 2
     2    1    3 1
     3    1    4 1
     4    1    5 1
     5    5    6 1
     6    6    7 2
     7    6    8 1
     8    6    9 1
     9    8   33 1
    10    9   10 1
    11   10   11 2
    12   10   12 1
    13   10   13 1
    14   12   34 1
    15   13   14 1
    16   14   15 1
    17   14   35 1
    18   14   36 1
    19   15   16 1
    20   15   17 1
    21   15   37 1
    22   16   21 1
    23   17   18 1
    24   17   19 1
    25   17   38 1
    26   18   39 1
    27   19   20 1
    28   19   21 1
    29   19   40 1
    30   20   41 1
    31   21   22 1
    32   21   42 1
    33   22   23 ar
    34   22   32 ar
    35   23   24 ar
    36   23   43 1
    37   24   25 ar
    38   25   26 ar
    39   25   32 ar
    40   26   27 2
    41   26   28 ar
    42   28   29 ar
    43   28   44 1
    44   29   30 1
    45   29   31 ar
    46   30   45 1
    47   30   46 1
    48   31   32 ar
@<TRIPOS>SUBSTRUCTURE
     1 GTP         1 GROUP 0 A     ****
@<TRIPOS>MOLECULE
[[[5-(2-amino-6-oxo-1~{H}-purin-9-yl)-3,4-dihydroxy-tetrahydrofuran-2-yl]methoxy-hydroxy-phosphoryl]oxy-hydroxy-phosphoryl] phosphate
   46    48     1     0     0
SMALL
USER_CHARGES

@<TRIPOS>ATOM
      1 PG         -0.5043    8.9256    0.1352 P.3       1 GTP         1.3594
      2 O1G        -1.3899    9.0761   -1.0973 O.co2     1 GTP        -0.8909
      3 O2G         0.9860    8.8182   -0.1707 O.co2     1 GTP        -0.8909
      4 O3G        -0.8423    9.8866    1.2702 O.co2     1 GTP        -0.8909
      5 O3B        -0.9032    7.4458    0.7408 O.3       1 GTP        -0.7106
      6 PB         -2.3188    6.8676    1.2675 P.3       1 GTP         1.8242
      7 O1B        -2.9160    7.6169    2.4219 O.2       1 GTP        -0.9138
      8 O2B        -3.2285    6.8311   -0.0682 O.3       1 GTP        -0.7900
      9 O3A        -1.9938    5.3110    1.5513 O.3       1 GTP        -0.8086
     10 PA         -2.9684    4.0281    1.6828 P.3       1 GTP         1.7888
     11 O1A        -4.2427    4.2995    2.4285 O.2       1 GTP        -0.8200
     12 O2A        -3.1675    3.5413    0.1529 O.3       1 GTP        -0.8185
     13 O5'        -2.0396    2.8622    2.3120 O.3       1 GTP        -0.5679
     14 C5'        -0.8811    2.4285    1.6206 C.3       1 GTP         0.1794
     15 C4'        -0.1994    1.3333    2.4288 C.3       1 GTP         0.1313
     16 O4'        -1.1285    0.2356    2.5840 O.3       1 GTP        -0.3993
     17 C3'         1.0324    0.7610    1.7344 C.3       1 GTP         0.0846
     18 O3'         1.9175    0.2377    2.7247 O.3       1 GTP        -0.5819
     19 C2'         0.4468   -0.3802    0.9263 C.3       1 GTP         0.0567
     20 O2'         1.3993   -1.3703    0.5961 O.3       1 GTP        -0.5837
     21 C1'        -0.6159   -0.9100    1.8769 C.3       1 GTP         0.2547
     22 N9         -1.7127   -1.6108    1.2130 N.pl3     1 GTP        -0.2013
     23 C8         -2.5489   -1.0812    0.2607 C.ar      1 GTP         0.4384
     24 N7         -3.4468   -1.9516   -0.1576 N.2       1 GTP        -0.6072
     25 C5         -3.1696   -3.0787    0.5579 C.ar      1 GTP         0.1855
     26 C6         -3.8307   -4.3536    0.5166 C.ar      1 GTP         0.6502
     27 O6         -4.7841   -4.6033   -0.2101 O.2       1 GTP        -0.6193
     28 N1         -3.2356   -5.2522    1.4132 N.pl3     1 GTP        -0.5097
     29 C2         -2.1338   -4.9602    2.2517 C.ar      1 GTP         0.6454
     30 N2         -1.7156   -5.9923    3.0507 N.pl3     1 GTP        -0.8839
     31 N3         -1.5477   -3.7827    2.2686 N.2       1 GTP        -0.6390
     32 C4         -2.1070   -2.9013    1.4104 C.ar      1 GTP         0.0961
     33 HOB2       -4.1213    6.4272   -0.0233 H         1 GTP         0.4357
     34 HOA2       -3.6341    4.1318   -0.4760 H         1 GTP         0.4835
     35 H5'        -1.1760    2.0498    0.6365 H         1 GTP         0.0448
     36 H5''       -0.2072    3.2811    1.4873 H         1 GTP         0.0448
     37 H4'         0.0402    1.7079    3.4342 H         1 GTP         0.1246
     38 H3'         1.5907    1.4859    1.1353 H         1 GTP         0.0764
     39 HO3'        2.1521    0.9800    3.3017 H         1 GTP         0.4062
     40 H2'        -0.0017    0.0018    0.0005 H         1 GTP         0.0706
     41 HO2'        2.0953   -0.9375    0.0709 H         1 GTP         0.4064
     42 H1'        -0.1998   -1.6319    2.6178 H         1 GTP         0.1053
     43 H8         -2.4545   -0.0604   -0.0844 H         1 GTP         0.0995
     44 HN1        -3.6270   -6.1884    1.4651 H         1 GTP         0.3262
     45 HN21       -0.9445   -5.8354    3.6574 H         1 GTP         0.4043
     46 HN22       -2.1993   -6.8585    2.9930 H         1 GTP         0.4043
@<TRIPOS>BOND
     1    1    2 2
     2    1    3 1
     3    1    4 1
     4    1    5 1
     5    5    6 1
     6    6    7 2
     7    6    8 1
     8    6    9 1
     9    8   33 1
    10    9   10 1
    11   10   11 2
    12   10   12 1
    13   10   13 1
    14   12   34 1
    15   13   14 1
    16   14   15 1
    17   14   35 1
    18   14   36 1
    19   15   16 1
    20   15   17 1
    21   15   37 1
    22   16   21 1
    23   17   18 1
    24   17   19 1
    25   17   38 1
    26   18   39 1
    27   19   20 1
    28   19   21 1
    29   19   40 1
    30   20   41 1
    31   21   22 1
    32   21   42 1
    33   22   23 ar
    34   22   32 ar
    35   23   24 ar
    36   23   43 1
    37   24   25 ar
    38   25   26 ar
    39   25   32 ar
    40   26   27 2
    41   26   28 ar
    42   28   29 ar
    43   28   44 1
    44   29   30 1
    45   29   31 ar
    46   30   45 1
    47   30   46 1
    48   31   32 ar
@<TRIPOS>SUBSTRUCTURE
     1 GTP         1 GROUP 0 A     ****
@<TRIPOS>MOLECULE
[[[5-(2-amino-6-oxo-1~{H}-purin-9-yl)-3,4-dihydroxy-tetrahydrofuran-2-yl]methoxy-hydroxy-phosphoryl]oxy-hydroxy-phosphoryl] phosphate
   46    48     1     0     0
SMALL
USER_CHARGES

@<TRIPOS>ATOM
      1 PG          0.8060    4.4723   -3.8063 P.3       1 GTP         1.3594
      2 O1G         1.0247    5.8708   -4.3742 O.co2     1 GTP        -0.8909
      3 O2G         0.5673    3.3960   -4.8601 O.co2     1 GTP        -0.8909
      4 O3G         1.8005    4.0750   -2.7204 O.co2     1 GTP        -0.8909
      5 O3B        -0.6293    4.5822   -3.0042 O.3       1 GTP        -0.7106
      6 PB         -1.0785    5.5243   -1.7687 P.3       1 GTP         1.8242
      7 O1B        -0.5731    6.9352   -1.8350 O.2       1 GTP        -0.9138
      8 O2B        -2.6879    5.3745   -1.7496 O.3       1 GTP        -0.7900
      9 O3A        -0.6008    4.6821   -0.4758 O.3       1 GTP        -0.8086
     10 PA         -0.7168    5.0026    1.1043 P.3       1 GTP         1.7888
     11 O1A        -0.0198    6.2630    1.5275 O.2       1 GTP        -0.8200
     12 O2A        -2.3104    4.9820    1.3823 O.3       1 GTP        -0.8185
     13 O5'        -0.2069    3.6554    1.8412 O.3       1 GTP        -0.5679
     14 C5'        -0.8811    2.4285    1.6206 C.3       1 GTP         0.1794
     15 C4'        -0.1994    1.3333    2.4288 C.3       1 GTP         0.1313
     16 O4'        -1.1285    0.2356    2.5840 O.3       1 GTP        -0.3993
     17 C3'         1.0324    0.7610    1.7344 C.3       1 GTP         0.0846
     18 O3'         1.9175    0.2377    2.7247 O.3       1 GTP        -0.5819
     19 C2'         0.4468   -0.3802    0.9263 C.3       1 GTP         0.0567
     20 O2'         1.3993   -1.3703    0.5961 O.3       1 GTP        -0.5837
     21 C1'        -0.6159   -0.9100    1.8769 C.3       1 GTP         0.2547
     22 N9         -1.7127   -1.6108    1.2130 N.pl3     1 GTP        -0.2013
     23 C8         -2.8667   -1.0365    0.7385 C.ar      1 GTP         0.4384
     24 N7         -3.6757   -1.9196    0.1868 N.2       1 GTP        -0.6072
     25 C5         -3.0088   -3.1018    0.3164 C.ar      1 GTP         0.1855
     26 C6         -3.4148   -4.4130   -0.1079 C.ar      1 GTP         0.6502
     27 O6         -4.4753   -4.6480   -0.6732 O.2       1 GTP        -0.6193
     28 N1         -2.4377   -5.3653    0.2144 N.pl3     1 GTP        -0.5097
     29 C2         -1.2132   -5.0902    0.8680 C.ar      1 GTP         0.6454
     30 N2         -0.4066   -6.1772    1.0834 N.pl3     1 GTP        -0.8839
     31 N3         -0.8672   -3.8786    1.2457 N.2       1 GTP        -0.6390
     32 C4         -1.7966   -2.9451    0.9439 C.ar      1 GTP         0.0961
     33 HOB2       -3.2061    5.7246   -2.5053 H         1 GTP         0.4357
     34 HOA2       -2.8748    5.6632    0.9587 H         1 GTP         0.4835
     35 H5'        -1.9259    2.5371    1.9293 H         1 GTP         0.0448
     36 H5''       -0.8477    2.1922    0.5520 H         1 GTP         0.0448
     37 H4'         0.0402    1.7079    3.4342 H         1 GTP         0.1246
     38 H3'         1.5907    1.4859    1.1353 H         1 GTP         0.0764
     39 HO3'        2.6839   -0.1150    2.2479 H         1 GTP         0.4062
     40 H2'        -0.0017    0.0018    0.0005 H         1 GTP         0.0706
     41 HO2'        0.9369   -2.0558    0.0825 H         1 GTP         0.4064
     42 H1'        -0.1998   -1.6319    2.6178 H         1 GTP         0.1053
     43 H8         -3.0589    0.0244    0.8247 H         1 GTP         0.0995
     44 HN1        -2.6238   -6.3307   -0.0420 H         1 GTP         0.3262
     45 HN21        0.4646   -6.0341    1.5394 H         1 GTP         0.4043
     46 HN22       -0.7235   -7.0673    0.7753 H         1 GTP         0.4043
@<TRIPOS>BOND
     1    1    2 2
     2    1    3 1
     3    1    4 1
     4    1    5 1
     5    5    6 1
     6    6    7 2
     7    6    8 1
     8    6    9 1
     9    8   33 1
    10    9   10 1
    11   10   11 2
    12   10   12 1
    13   10   13 1
    14   12   34 1
    15   13   14 1
    16   14   15 1
    17   14   35 1
    18   14   36 1
    19   15   16 1
    20   15   17 1
    21   15   37 1
    22   16   21 1
    23   17   18 1
    24   17   19 1
    25   17   38 1
    26   18   39 1
    27   19   20 1
    28   19   21 1
    29   19   40 1
    30   20   41 1
    31   21   22 1
    32   21   42 1
    33   22   23 ar
    34   22   32 ar
    35   23   24 ar
    36   23   43 1
    37   24   25 ar
    38   25   26 ar
    39   25   32 ar
    40   26   27 2
    41   26   28 ar
    42   28   29 ar
    43   28   44 1
    44   29   30 1
    45   29   31 ar
    46   30   45 1
    47   30   46 1
    48   31   32 ar
@<TRIPOS>SUBSTRUCTURE
     1 GTP         1 GROUP 0 A     ****
@<TRIPOS>MOLECULE
[[[5-(2-amino-6-oxo-1~{H}-purin-9-yl)-3,4-dihydroxy-tetrahydrofuran-2-yl]methoxy-hydroxy-phosphoryl]oxy-hydroxy-phosphoryl] phosphate
   46    48     1     0     0
SMALL
USER_CHARGES

@<TRIPOS>ATOM
      1 PG         -4.0530    7.8703    1.5052 P.3       1 GTP         1.3594
      2 O1G        -3.8357    8.7405    0.2717 O.co2     1 GTP        -0.8909
      3 O2G        -4.3543    8.6509    2.7803 O.co2     1 GTP        -0.8909
      4 O3G        -4.9690    6.6731    1.2733 O.co2     1 GTP        -0.8909
      5 O3B        -2.5784    7.1892    1.7836 O.3       1 GTP        -0.7106
      6 PB         -1.6638    6.2348    0.8518 P.3       1 GTP         1.8242
      7 O1B        -1.2537    6.8386   -0.4590 O.2       1 GTP        -0.9138
      8 O2B        -0.4422    5.8202    1.8258 O.3       1 GTP        -0.7900
      9 O3A        -2.5412    4.8830    0.7425 O.3       1 GTP        -0.8086
     10 PA         -3.0702    3.8637    1.8801 P.3       1 GTP         1.7888
     11 O1A        -3.9677    4.4980    2.9027 O.2       1 GTP        -0.8200
     12 O2A        -3.7480    2.6639    1.0327 O.3       1 GTP        -0.8185
     13 O5'        -1.7334    3.1724    2.4742 O.3       1 GTP        -0.5679
     14 C5'        -0.8811    2.4285    1.6206 C.3       1 GTP         0.1794
     15 C4'        -0.1994    1.3333    2.4288 C.3       1 GTP         0.1313
     16 O4'        -1.1285    0.2356    2.5840 O.3       1 GTP        -0.3993
     17 C3'         1.0324    0.7610    1.7344 C.3       1 GTP         0.0846
     18 O3'         1.9175    0.2377    2.7247 O.3       1 GTP        -0.5819
     19 C2'         0.4468   -0.3802    0.9263 C.3       1 GTP         0.0567
     20 O2'         1.3993   -1.3703    0.5961 O.3       1 GTP        -0.5837
     21 C1'        -0.6159   -0.9100    1.8769 C.3       1 GTP         0.2547
     22 N9         -1.7127   -1.6108    1.2130 N.pl3     1 GTP        -0.2013
     23 C8         -2.5489   -1.0812    0.2607 C.ar      1 GTP         0.4384
     24 N7         -3.4468   -1.9516   -0.1576 N.2       1 GTP        -0.6072
     25 C5         -3.1696   -3.0787    0.5579 C.ar      1 GTP         0.1855
     26 C6         -3.8307   -4.3536    0.5166 C.ar      1 GTP         0.6502
     27 O6         -4.7841   -4.6033   -0.2101 O.2       1 GTP        -0.6193
     28 N1         -3.2356   -5.2522    1.4132 N.pl3     1 GTP        -0.5097
     29 C2         -2.1338   -4.9602    2.2517 C.ar      1 GTP         0.6454
     30 N2         -1.7156   -5.9923    3.0507 N.pl3     1 GTP        -0.8839
     31 N3         -1.5477   -3.7827    2.2686 N.2       1 GTP        -0.6390
     32 C4         -2.1070   -2.9013    1.4104 C.ar      1 GTP         0.0961
     33 HOB2        0.1823    6.5146    2.1257 H         1 GTP         0.4357
     34 HOA2       -4.0801    1.8743    1.5104 H         1 GTP         0.4835
     35 H5'        -1.4794    1.9921    0.8142 H         1 GTP         0.0448
     36 H5''       -0.1361    3.1034    1.1867 H         1 GTP         0.0448
     37 H4'         0.0402    1.7079    3.4342 H         1 GTP         0.1246
     38 H3'         1.5907    1.4859    1.1353 H         1 GTP         0.0764
     39 HO3'        2.1521    0.9800    3.3017 H         1 GTP         0.4062
     40 H2'        -0.0017    0.0018    0.0005 H         1 GTP         0.0706
     41 HO2'        2.0953   -0.9375    0.0709 H         1 GTP         0.4064
     42 H1'        -0.1998   -1.6319    2.6178 H         1 GTP         0.1053
     43 H8         -2.4545   -0.0604   -0.0844 H         1 GTP         0.0995
     44 HN1        -3.6270   -6.1884    1.4651 H         1 GTP         0.3262
     45 HN21       -0.9445   -5.8354    3.6574 H         1 GTP         0.4043
     46 HN22       -2.1993   -6.8585    2.9930 H         1 GTP         0.4043
@<TRIPOS>BOND
     1    1    2 2
     2    1    3 1
     3    1    4 1
     4    1    5 1
     5    5    6 1
     6    6    7 2
     7    6    8 1
     8    6    9 1
     9    8   33 1
    10    9   10 1
    11   10   11 2
    12   10   12 1
    13   10   13 1
    14   12   34 1
    15   13   14 1
    16   14   15 1
    17   14   35 1
    18   14   36 1
    19   15   16 1
    20   15   17 1
    21   15   37 1
    22   16   21 1
    23   17   18 1
    24   17   19 1
    25   17   38 1
    26   18   39 1
    27   19   20 1
    28   19   21 1
    29   19   40 1
    30   20   41 1
    31   21   22 1
    32   21   42 1
    33   22   23 ar
    34   22   32 ar
    35   23   24 ar
    36   23   43 1
    37   24   25 ar
    38   25   26 ar
    39   25   32 ar
    40   26   27 2
    41   26   28 ar
    42   28   29 ar
    43   28   44 1
    44   29   30 1
    45   29   31 ar
    46   30   45 1
    47   30   46 1
    48   31   32 ar
@<TRIPOS>SUBSTRUCTURE
     1 GTP         1 GROUP 0 A     ****
@<TRIPOS>MOLECULE
[[[5-(2-amino-6-oxo-1~{H}-purin-9-yl)-3,4-dihydroxy-tetrahydrofuran-2-yl]methoxy-hydroxy-phosphoryl]oxy-hydroxy-phosphoryl] phosphate
   46    48     1     0     0
SMALL
USER_CHARGES

@<TRIPOS>ATOM
      1 PG         -2.2713    8.6727    2.4322 P.3       1 GTP         1.3594
      2 O1G        -1.0439    8.4500    3.3096 O.co2     1 GTP        -0.8909
      3 O2G        -3.5412    9.0170    3.2033 O.co2     1 GTP        -0.8909
      4 O3G        -2.0190    9.5569    1.2154 O.co2     1 GTP        -0.8909
      5 O3B        -2.5784    7.1892    1.7836 O.3       1 GTP        -0.7106
      6 PB         -1.6638    6.2348    0.8518 P.3       1 GTP         1.8242
      7 O1B        -1.2537    6.8386   -0.4590 O.2       1 GTP        -0.9138
      8 O2B        -0.4422    5.8202    1.8258 O.3       1 GTP        -0.7900
      9 O3A        -2.5412    4.8830    0.7425 O.3       1 GTP        -0.8086
     10 PA         -3.0702    3.8637    1.8801 P.3       1 GTP         1.7888
     11 O1A        -3.9677    4.4980    2.9027 O.2       1 GTP        -0.8200
     12 O2A        -3.7480    2.6639    1.0327 O.3       1 GTP        -0.8185
     13 O5'        -1.7334    3.1724    2.4742 O.3       1 GTP        -0.5679
     14 C5'        -0.8811    2.4285    1.6206 C.3       1 GTP         0.1794
     15 C4'        -0.1994    1.3333    2.4288 C.3       1 GTP         0.1313
     16 O4'        -1.1285    0.2356    2.5840 O.3       1 GTP        -0.3993
     17 C3'         1.0324    0.7610    1.7344 C.3       1 GTP         0.0846
     18 O3'         1.9175    0.2377    2.7247 O.3       1 GTP        -0.5819
     19 C2'         0.4468   -0.3802    0.9263 C.3       1 GTP         0.0567
     20 O2'         1.3993   -1.3703    0.5961 O.3       1 GTP        -0.5837
     21 C1'        -0.6159   -0.9100    1.8769 C.3       1 GTP         0.2547
     22 N9         -1.7127   -1.6108    1.2130 N.pl3     1 GTP        -0.2013
     23 C8         -2.8667   -1.0365    0.7385 C.ar      1 GTP         0.4384
     24 N7         -3.6757   -1.9196    0.1868 N.2       1 GTP        -0.6072
     25 C5         -3.0088   -3.1018    0.3164 C.ar      1 GTP         0.1855
     26 C6         -3.4148   -4.4130   -0.1079 C.ar      1 GTP         0.6502
     27 O6         -4.4753   -4.6480   -0.6732 O.2       1 GTP        -0.6193
     28 N1         -2.4377   -5.3653    0.2144 N.pl3     1 GTP        -0.5097
     29 C2         -1.2132   -5.0902    0.8680 C.ar      1 GTP         0.6454
     30 N2         -0.4066   -6.1772    1.0834 N.pl3     1 GTP        -0.8839
     31 N3         -0.8672   -3.8786    1.2457 N.2       1 GTP        -0.6390
     32 C4         -1.7966   -2.9451    0.9439 C.ar      1 GTP         0.0961
     33 HOB2        0.2125    5.1608    1.5115 H         1 GTP         0.4357
     34 HOA2       -4.0801    1.8743    1.5104 H         1 GTP         0.4835
     35 H5'        -1.4794    1.9921    0.8142 H         1 GTP         0.0448
     36 H5''       -0.1361    3.1034    1.1867 H         1 GTP         0.0448
     37 H4'         0.0402    1.7079    3.4342 H         1 GTP         0.1246
     38 H3'         1.5907    1.4859    1.1353 H         1 GTP         0.0764
     39 HO3'        2.1521    0.9800    3.3017 H         1 GTP         0.4062
     40 H2'        -0.0017    0.0018    0.0005 H         1 GTP         0.0706
     41 HO2'        1.7495   -1.7243    1.4324 H         1 GTP         0.4064
     42 H1'        -0.1998   -1.6319    2.6178 H         1 GTP         0.1053
     43 H8         -3.0589    0.0244    0.8247 H         1 GTP         0.0995
     44 HN1        -2.6238   -6.3307   -0.0420 H         1 GTP         0.3262
     45 HN21        0.4646   -6.0341    1.5394 H         1 GTP         0.4043
     46 HN22       -0.7235   -7.0673    0.7753 H         1 GTP         0.4043
@<TRIPOS>BOND
     1    1    2 2
     2    1    3 1
     3    1    4 1
     4    1    5 1
     5    5    6 1
     6    6    7 2
     7    6    8 1
     8    6    9 1
     9    8   33 1
    10    9   10 1
    11   10   11 2
    12   10   12 1
    13   10   13 1
    14   12   34 1
    15   13   14 1
    16   14   15 1
    17   14   35 1
    18   14   36 1
    19   15   16 1
    20   15   17 1
    21   15   37 1
    22   16   21 1
    23   17   18 1
    24   17   19 1
    25   17   38 1
    26   18   39 1
    27   19   20 1
    28   19   21 1
    29   19   40 1
    30   20   41 1
    31   21   22 1
    32   21   42 1
    33   22   23 ar
    34   22   32 ar
    35   23   24 ar
    36   23   43 1
    37   24   25 ar
    38   25   26 ar
    39   25   32 ar
    40   26   27 2
    41   26   28 ar
    42   28   29 ar
    43   28   44 1
    44   29   30 1
    45   29   31 ar
    46   30   45 1
    47   30   46 1
    48   31   32 ar
@<TRIPOS>SUBSTRUCTURE
     1 GTP         1 GROUP 0 A     ****
@<TRIPOS>MOLECULE
[[[5-(2-amino-6-oxo-1~{H}-purin-9-yl)-3,4-dihydroxy-tetrahydrofuran-2-yl]methoxy-hydroxy-phosphoryl]oxy-hydroxy-phosphoryl] phosphate
   46    48     1     0     0
SMALL
USER_CHARGES

@<TRIPOS>ATOM
      1 PG          1.0081    6.4200   -0.9978 P.3       1 GTP         1.3594
      2 O1G         1.1496    7.8651   -0.5312 O.co2     1 GTP        -0.8909
      3 O2G         1.6128    6.1401   -2.3696 O.co2     1 GTP        -0.8909
      4 O3G         1.3579    5.3823    0.0637 O.co2     1 GTP        -0.8909
      5 O3B        -0.6131    6.2244   -1.2199 O.3       1 GTP        -0.7106
      6 PB         -1.8454    6.3683   -0.1824 P.3       1 GTP         1.8242
      7 O1B        -1.9890    7.7247    0.4424 O.2       1 GTP        -0.9138
      8 O2B        -3.1203    5.8741   -1.0447 O.3       1 GTP        -0.7900
      9 O3A        -1.5923    5.1560    0.8546 O.3       1 GTP        -0.8086
     10 PA         -2.5921    4.4092    1.8820 P.3       1 GTP         1.7888
     11 O1A        -3.2000    5.3146    2.9137 O.2       1 GTP        -0.8200
     12 O2A        -3.6575    3.6739    0.9117 O.3       1 GTP        -0.8185
     13 O5'        -1.7334    3.1724    2.4742 O.3       1 GTP        -0.5679
     14 C5'        -0.8811    2.4285    1.6206 C.3       1 GTP         0.1794
     15 C4'        -0.1994    1.3333    2.4288 C.3       1 GTP         0.1313
     16 O4'        -1.1285    0.2356    2.5840 O.3       1 GTP        -0.3993
     17 C3'         1.0324    0.7610    1.7344 C.3       1 GTP         0.0846
     18 O3'         1.9175    0.2377    2.7247 O.3       1 GTP        -0.5819
     19 C2'         0.4468   -0.3802    0.9263 C.3       1 GTP         0.0567
     20 O2'         1.3993   -1.3703    0.5961 O.3       1 GTP        -0.5837
     21 C1'        -0.6159   -0.9100    1.8769 C.3       1 GTP         0.2547
     22 N9         -1.7127   -1.6108    1.2130 N.pl3     1 GTP        -0.2013
     23 C8         -2.5489   -1.0812    0.2607 C.ar      1 GTP         0.4384
     24 N7         -3.4468   -1.9516   -0.1576 N.2       1 GTP        -0.6072
     25 C5         -3.1696   -3.0787    0.5579 C.ar      1 GTP         0.1855
     26 C6         -3.8307   -4.3536    0.5166 C.ar      1 GTP         0.6502
     27 O6         -4.7841   -4.6033   -0.2101 O.2       1 GTP        -0.6193
     28 N1         -3.2356   -5.2522    1.4132 N.pl3     1 GTP        -0.5097
     29 C2         -2.1338   -4.9602    2.2517 C.ar      1 GTP         0.6454
     30 N2         -1.7156   -5.9923    3.0507 N.pl3     1 GTP        -0.8839
     31 N3         -1.5477   -3.7827    2.2686 N.2       1 GTP        -0.6390
     32 C4         -2.1070   -2.9013    1.4104 C.ar      1 GTP         0.0961
     33 HOB2       -3.9892    5.7847   -0.5984 H         1 GTP         0.4357
     34 HOA2       -4.2518    4.2228    0.3571 H         1 GTP         0.4835
     35 H5'        -1.4794    1.9921    0.8142 H         1 GTP         0.0448
     36 H5''       -0.1361    3.1034    1.1867 H         1 GTP         0.0448
     37 H4'         0.0402    1.7079    3.4342 H         1 GTP         0.1246
     38 H3'         1.5907    1.4859    1.1353 H         1 GTP         0.0764
     39 HO3'        2.1521    0.9800    3.3017 H         1 GTP         0.4062
     40 H2'        -0.0017    0.0018    0.0005 H         1 GTP         0.0706
     41 HO2'        0.9369   -2.0558    0.0825 H         1 GTP         0.4064
     42 H1'        -0.1998   -1.6319    2.6178 H         1 GTP         0.1053
     43 H8         -2.4545   -0.0604   -0.0844 H         1 GTP         0.0995
     44 HN1        -3.6270   -6.1884    1.4651 H         1 GTP         0.3262
     45 HN21       -0.9445   -5.8354    3.6574 H         1 GTP         0.4043
     46 HN22       -2.1993   -6.8585    2.9930 H         1 GTP         0.4043
@<TRIPOS>BOND
     1    1    2 2
     2    1    3 1
     3    1    4 1
     4    1    5 1
     5    5    6 1
     6    6    7 2
     7    6    8 1
     8    6    9 1
     9    8   33 1
    10    9   10 1
    11   10   11 2
    12   10   12 1
    13   10   13 1
    14   12   34 1
    15   13   14 1
    16   14   15 1
    17   14   35 1
    18   14   36 1
    19   15   16 1
    20   15   17 1
    21   15   37 1
    22   16   21 1
    23   17   18 1
    24   17   19 1
    25   17   38 1
    26   18   39 1
    27   19   20 1
    28   19   21 1
    29   19   40 1
    30   20   41 1
    31   21   22 1
    32   21   42 1
    33   22   23 ar
    34   22   32 ar
    35   23   24 ar
    36   23   43 1
    37   24   25 ar
    38   25   26 ar
    39   25   32 ar
    40   26   27 2
    41   26   28 ar
    42   28   29 ar
    43   28   44 1
    44   29   30 1
    45   29   31 ar
    46   30   45 1
    47   30   46 1
    48   31   32 ar
@<TRIPOS>SUBSTRUCTURE
     1 GTP         1 GROUP 0 A     ****
@<TRIPOS>MOLECULE
[[[5-(2-amino-6-oxo-1~{H}-purin-9-yl)-3,4-dihydroxy-tetrahydrofuran-2-yl]methoxy-hydroxy-phosphoryl]oxy-hydroxy-phosphoryl] phosphate
   46    48     1     0     0
SMALL
USER_CHARGES

@<TRIPOS>ATOM
      1 PG          1.2687    7.4888    3.1990 P.3       1 GTP         1.3594
      2 O1G         2.5206    6.6178    3.1882 O.co2     1 GTP        -0.8909
      3 O2G         1.4436    8.8325    3.8988 O.co2     1 GTP        -0.8909
      4 O3G         0.5522    7.5718    1.8552 O.co2     1 GTP        -0.8909
      5 O3B         0.2118    6.6648    4.1581 O.3       1 GTP        -0.7106
      6 PB         -0.4097    5.1791    4.0102 P.3       1 GTP         1.8242
      7 O1B         0.6016    4.0710    3.9938 O.2       1 GTP        -0.9138
      8 O2B        -1.4881    5.1031    5.2120 O.3       1 GTP        -0.7900
      9 O3A        -1.3235    5.2967    2.6835 O.3       1 GTP        -0.8086
     10 PA         -2.5519    4.3888    2.1545 P.3       1 GTP         1.7888
     11 O1A        -3.8664    4.6910    2.8135 O.2       1 GTP        -0.8200
     12 O2A        -2.5288    4.6111    0.5522 O.3       1 GTP        -0.8185
     13 O5'        -2.0396    2.8622    2.3120 O.3       1 GTP        -0.5679
     14 C5'        -0.8811    2.4285    1.6206 C.3       1 GTP         0.1794
     15 C4'        -0.1994    1.3333    2.4288 C.3       1 GTP         0.1313
     16 O4'        -1.1285    0.2356    2.5840 O.3       1 GTP        -0.3993
     17 C3'         1.0324    0.7610    1.7344 C.3       1 GTP         0.0846
     18 O3'         1.9175    0.2377    2.7247 O.3       1 GTP        -0.5819
     19 C2'         0.4468   -0.3802    0.9263 C.3       1 GTP         0.0567
     20 O2'         1.3993   -1.3703    0.5961 O.3       1 GTP        -0.5837
     21 C1'        -0.6159   -0.9100    1.8769 C.3       1 GTP         0.2547
     22 N9         -1.7127   -1.6108    1.2130 N.pl3     1 GTP        -0.2013
     23 C8         -2.5489   -1.0812    0.2607 C.ar      1 GTP         0.4384
     24 N7         -3.4468   -1.9516   -0.1576 N.2       1 GTP        -0.6072
     25 C5         -3.1696   -3.0787    0.5579 C.ar      1 GTP         0.1855
     26 C6         -3.8307   -4.3536    0.5166 C.ar      1 GTP         0.6502
     27 O6         -4.7841   -4.6033   -0.2101 O.2       1 GTP        -0.6193
     28 N1         -3.2356   -5.2522    1.4132 N.pl3     1 GTP        -0.5097
     29 C2         -2.1338   -4.9602    2.2517 C.ar      1 GTP         0.6454
     30 N2         -1.7156   -5.9923    3.0507 N.pl3     1 GTP        -0.8839
     31 N3         -1.5477   -3.7827    2.2686 N.2       1 GTP        -0.6390
     32 C4         -2.1070   -2.9013    1.4104 C.ar      1 GTP         0.0961
     33 HOB2       -1.1681    5.1267    6.1389 H         1 GTP         0.4357
     34 HOA2       -2.7205    5.5039    0.1942 H         1 GTP         0.4835
     35 H5'        -1.1760    2.0498    0.6365 H         1 GTP         0.0448
     36 H5''       -0.2072    3.2811    1.4873 H         1 GTP         0.0448
     37 H4'         0.0402    1.7079    3.4342 H         1 GTP         0.1246
     38 H3'         1.5907    1.4859    1.1353 H         1 GTP         0.0764
     39 HO3'        2.6839   -0.1150    2.2479 H         1 GTP         0.4062
     40 H2'        -0.0017    0.0018    0.0005 H         1 GTP         0.0706
     41 HO2'        0.9369   -2.0558    0.0825 H         1 GTP         0.4064
     42 H1'        -0.1998   -1.6319    2.6178 H         1 GTP         0.1053
     43 H8         -2.4545   -0.0604   -0.0844 H         1 GTP         0.0995
     44 HN1        -3.6270   -6.1884    1.4651 H         1 GTP         0.3262
     45 HN21       -0.9445   -5.8354    3.6574 H         1 GTP         0.4043
     46 HN22       -2.1993   -6.8585    2.9930 H         1 GTP         0.4043
@<TRIPOS>BOND
     1    1    2 2
     2    1    3 1
     3    1    4 1
     4    1    5 1
     5    5    6 1
     6    6    7 2
     7    6    8 1
     8    6    9 1
     9    8   33 1
    10    9   10 1
    11   10   11 2
    12   10   12 1
    13   10   13 1
    14   12   34 1
    15   13   14 1
    16   14   15 1
    17   14   35 1
    18   14   36 1
    19   15   16 1
    20   15   17 1
    21   15   37 1
    22   16   21 1
    23   17   18 1
    24   17   19 1
    25   17   38 1
    26   18   39 1
    27   19   20 1
    28   19   21 1
    29   19   40 1
    30   20   41 1
    31   21   22 1
    32   21   42 1
    33   22   23 ar
    34   22   32 ar
    35   23   24 ar
    36   23   43 1
    37   24   25 ar
    38   25   26 ar
    39   25   32 ar
    40   26   27 2
    41   26   28 ar
    42   28   29 ar
    43   28   44 1
    44   29   30 1
    45   29   31 ar
    46   30   45 1
    47   30   46 1
    48   31   32 ar
@<TRIPOS>SUBSTRUCTURE
     1 GTP         1 GROUP 0 A     ****
@<TRIPOS>MOLECULE
[[[5-(2-amino-6-oxo-1~{H}-purin-9-yl)-3,4-dihydroxy-tetrahydrofuran-2-yl]methoxy-hydroxy-phosphoryl]oxy-hydroxy-phosphoryl] phosphate
   46    48     1     0     0
SMALL
USER_CHARGES

@<TRIPOS>ATOM
      1 PG         -0.7715    5.7870   -3.5157 P.3       1 GTP         1.3594
      2 O1G         0.0187    4.5218   -3.8331 O.co2     1 GTP        -0.8909
      3 O2G         0.0493    7.0712   -3.5703 O.co2     1 GTP        -0.8909
      4 O3G        -2.1205    5.8762   -4.2217 O.co2     1 GTP        -0.8909
      5 O3B        -1.1700    5.6258   -1.9248 O.3       1 GTP        -0.7106
      6 PB         -2.0303    4.4882   -1.1623 P.3       1 GTP         1.8242
      7 O1B        -3.4451    4.3416   -1.6393 O.2       1 GTP        -0.9138
      8 O2B        -1.1167    3.1634   -1.3140 O.3       1 GTP        -0.7900
      9 O3A        -1.8666    4.8893    0.3938 O.3       1 GTP        -0.8086
     10 PA         -0.5521    5.0215    1.3252 P.3       1 GTP         1.7888
     11 O1A         0.4424    6.0370    0.8422 O.2       1 GTP        -0.8200
     12 O2A        -1.1552    5.3094    2.7985 O.3       1 GTP        -0.8185
     13 O5'         0.0170    3.5129    1.4592 O.3       1 GTP        -0.5679
     14 C5'        -0.8811    2.4285    1.6206 C.3       1 GTP         0.1794
     15 C4'        -0.1994    1.3333    2.4288 C.3       1 GTP         0.1313
     16 O4'        -1.1285    0.2356    2.5840 O.3       1 GTP        -0.3993
     17 C3'         1.0324    0.7610    1.7344 C.3       1 GTP         0.0846
     18 O3'         1.9175    0.2377    2.7247 O.3       1 GTP        -0.5819
     19 C2'         0.4468   -0.3802    0.9263 C.3       1 GTP         0.0567
     20 O2'         1.3993   -1.3703    0.5961 O.3       1 GTP        -0.5837
     21 C1'        -0.6159   -0.9100    1.8769 C.3       1 GTP         0.2547
     22 N9         -1.7127   -1.6108    1.2130 N.pl3     1 GTP        -0.2013
     23 C8         -1.7695   -2.9586    0.9546 C.ar      1 GTP         0.4384
     24 N7         -2.8846   -3.3047    0.3416 N.2       1 GTP        -0.6072
     25 C5         -3.5626   -2.1296    0.2052 C.ar      1 GTP         0.1855
     26 C6         -4.8477   -1.8989   -0.3942 C.ar      1 GTP         0.6502
     27 O6         -5.5373   -2.7819   -0.8881 O.2       1 GTP        -0.6193
     28 N1         -5.1895   -0.5407   -0.3318 N.pl3     1 GTP        -0.5097
     29 C2         -4.3899    0.4774    0.2398 C.ar      1 GTP         0.6454
     30 N2         -4.9233    1.7390    0.1898 N.pl3     1 GTP        -0.8839
     31 N3         -3.2159    0.2369    0.7822 N.2       1 GTP        -0.6390
     32 C4         -2.8678   -1.0679    0.7322 C.ar      1 GTP         0.0961
     33 HOB2       -0.9756    2.7840   -2.2075 H         1 GTP         0.4357
     34 HOA2       -0.5415    5.3532    3.5622 H         1 GTP         0.4835
     35 H5'        -1.7776    2.7841    2.1389 H         1 GTP         0.0448
     36 H5''       -1.1659    2.0533    0.6322 H         1 GTP         0.0448
     37 H4'         0.0402    1.7079    3.4342 H         1 GTP         0.1246
     38 H3'         1.5907    1.4859    1.1353 H         1 GTP         0.0764
     39 HO3'        2.6839   -0.1150    2.2479 H         1 GTP         0.4062
     40 H2'        -0.0017    0.0018    0.0005 H         1 GTP         0.0706
     41 HO2'        2.0953   -0.9375    0.0709 H         1 GTP         0.4064
     42 H1'        -0.1998   -1.6319    2.6178 H         1 GTP         0.1053
     43 H8         -0.9713   -3.6323    1.2352 H         1 GTP         0.0995
     44 HN1        -6.0831   -0.2651   -0.7290 H         1 GTP         0.3262
     45 HN21       -4.3984    2.4878    0.5788 H         1 GTP         0.4043
     46 HN22       -5.8145    1.8572   -0.2335 H         1 GTP         0.4043
@<TRIPOS>BOND
     1    1    2 2
     2    1    3 1
     3    1    4 1
     4    1    5 1
     5    5    6 1
     6    6    7 2
     7    6    8 1
     8    6    9 1
     9    8   33 1
    10    9   10 1
    11   10   11 2
    12   10   12 1
    13   10   13 1
    14   12   34 1
    15   13   14 1
    16   14   15 1
    17   14   35 1
    18   14   36 1
    19   15   16 1
    20   15   17 1
    21   15   37 1
    22   16   21 1
    23   17   18 1
    24   17   19 1
    25   17   38 1
    26   18   39 1
    27   19   20 1
    28   19   21 1
    29   19   40 1
    30   20   41 1
    31   21   22 1
    32   21   42 1
    33   22   23 ar
    34   22   32 ar
    35   23   24 ar
    36   23   43 1
    37   24   25 ar
    38   25   26 ar
    39   25   32 ar
    40   26   27 2
    41   26   28 ar
    42   28   29 ar
    43   28   44 1
    44   29   30 1
    45   29   31 ar
    46   30   45 1
    47   30   46 1
    48   31   32 ar
@<TRIPOS>SUBSTRUCTURE
     1 GTP         1 GROUP 0 A     ****
@<TRIPOS>MOLECULE
[[[5-(2-amino-6-oxo-1~{H}-purin-9-yl)-3,4-dihydroxy-tetrahydrofuran-2-yl]methoxy-hydroxy-phosphoryl]oxy-hydroxy-phosphoryl] phosphate
   46    48     1     0     0
SMALL
USER_CHARGES

@<TRIPOS>ATOM
      1 PG          1.3390    5.4753   -0.2396 P.3       1 GTP         1.3594
      2 O1G         1.2504    5.7791   -1.7315 O.co2     1 GTP        -0.8909
      3 O2G         2.2694    4.3193    0.1125 O.co2     1 GTP        -0.8909
      4 O3G         1.5120    6.7083    0.6413 O.co2     1 GTP        -0.8909
      5 O3B        -0.1636    4.9216    0.1496 O.3       1 GTP        -0.7106
      6 PB         -1.6125    5.6305    0.0332 P.3       1 GTP         1.8242
      7 O1B        -1.7605    6.8971    0.8235 O.2       1 GTP        -0.9138
      8 O2B        -1.8238    5.7907   -1.5614 O.3       1 GTP        -0.7900
      9 O3A        -2.6321    4.4444    0.4365 O.3       1 GTP        -0.8086
     10 PA         -3.0702    3.8637    1.8801 P.3       1 GTP         1.7888
     11 O1A        -3.7163    4.8778    2.7789 O.2       1 GTP        -0.8200
     12 O2A        -3.9995    2.5912    1.5139 O.3       1 GTP        -0.8185
     13 O5'        -1.7334    3.1724    2.4742 O.3       1 GTP        -0.5679
     14 C5'        -0.8811    2.4285    1.6206 C.3       1 GTP         0.1794
     15 C4'        -0.1994    1.3333    2.4288 C.3       1 GTP         0.1313
     16 O4'        -1.1285    0.2356    2.5840 O.3       1 GTP        -0.3993
     17 C3'         1.0324    0.7610    1.7344 C.3       1 GTP         0.0846
     18 O3'         1.9175    0.2377    2.7247 O.3       1 GTP        -0.5819
     19 C2'         0.4468   -0.3802    0.9263 C.3       1 GTP         0.0567
     20 O2'         1.3993   -1.3703    0.5961 O.3       1 GTP        -0.5837
     21 C1'        -0.6159   -0.9100    1.8769 C.3       1 GTP         0.2547
     22 N9         -1.7127   -1.6108    1.2130 N.pl3     1 GTP        -0.2013
     23 C8         -2.8667   -1.0365    0.7385 C.ar      1 GTP         0.4384
     24 N7         -3.6757   -1.9196    0.1868 N.2       1 GTP        -0.6072
     25 C5         -3.0088   -3.1018    0.3164 C.ar      1 GTP         0.1855
     26 C6         -3.4148   -4.4130   -0.1079 C.ar      1 GTP         0.6502
     27 O6         -4.4753   -4.6480   -0.6732 O.2       1 GTP        -0.6193
     28 N1         -2.4377   -5.3653    0.2144 N.pl3     1 GTP        -0.5097
     29 C2         -1.2132   -5.0902    0.8680 C.ar      1 GTP         0.6454
     30 N2         -0.4066   -6.1772    1.0834 N.pl3     1 GTP        -0.8839
     31 N3         -0.8672   -3.8786    1.2457 N.2       1 GTP        -0.6390
     32 C4         -1.7966   -2.9451    0.9439 C.ar      1 GTP         0.0961
     33 HOB2       -2.6849    6.1213   -1.8952 H         1 GTP         0.4357
     34 HOA2       -4.3291    2.0198    2.2398 H         1 GTP         0.4835
     35 H5'        -1.4794    1.9921    0.8142 H         1 GTP         0.0448
     36 H5''       -0.1361    3.1034    1.1867 H         1 GTP         0.0448
     37 H4'         0.0402    1.7079    3.4342 H         1 GTP         0.1246
     38 H3'         1.5907    1.4859    1.1353 H         1 GTP         0.0764
     39 HO3'        2.6839   -0.1150    2.2479 H         1 GTP         0.4062
     40 H2'        -0.0017    0.0018    0.0005 H         1 GTP         0.0706
     41 HO2'        2.0953   -0.9375    0.0709 H         1 GTP         0.4064
     42 H1'        -0.1998   -1.6319    2.6178 H         1 GTP         0.1053
     43 H8         -3.0589    0.0244    0.8247 H         1 GTP         0.0995
     44 HN1        -2.6238   -6.3307   -0.0420 H         1 GTP         0.3262
     45 HN21        0.4646   -6.0341    1.5394 H         1 GTP         0.4043
     46 HN22       -0.7235   -7.0673    0.7753 H         1 GTP         0.4043
@<TRIPOS>BOND
     1    1    2 2
     2    1    3 1
     3    1    4 1
     4    1    5 1
     5    5    6 1
     6    6    7 2
     7    6    8 1
     8    6    9 1
     9    8   33 1
    10    9   10 1
    11   10   11 2
    12   10   12 1
    13   10   13 1
    14   12   34 1
    15   13   14 1
    16   14   15 1
    17   14   35 1
    18   14   36 1
    19   15   16 1
    20   15   17 1
    21   15   37 1
    22   16   21 1
    23   17   18 1
    24   17   19 1
    25   17   38 1
    26   18   39 1
    27   19   20 1
    28   19   21 1
    29   19   40 1
    30   20   41 1
    31   21   22 1
    32   21   42 1
    33   22   23 ar
    34   22   32 ar
    35   23   24 ar
    36   23   43 1
    37   24   25 ar
    38   25   26 ar
    39   25   32 ar
    40   26   27 2
    41   26   28 ar
    42   28   29 ar
    43   28   44 1
    44   29   30 1
    45   29   31 ar
    46   30   45 1
    47   30   46 1
    48   31   32 ar
@<TRIPOS>SUBSTRUCTURE
     1 GTP         1 GROUP 0 A     ****
@<TRIPOS>MOLECULE
[[[5-(2-amino-6-oxo-1~{H}-purin-9-yl)-3,4-dihydroxy-tetrahydrofuran-2-yl]methoxy-hydroxy-phosphoryl]oxy-hydroxy-phosphoryl] phosphate
   46    48     1     0     0
SMALL
USER_CHARGES

@<TRIPOS>ATOM
      1 PG          1.9362    4.4108    6.7572 P.3       1 GTP         1.3594
      2 O1G         1.1571    4.5651    8.0592 O.co2     1 GTP        -0.8909
      3 O2G         3.0378    5.4463    6.5571 O.co2     1 GTP        -0.8909
      4 O3G         2.3599    2.9788    6.4471 O.co2     1 GTP        -0.8909
      5 O3B         0.8331    4.7576    5.5831 O.3       1 GTP        -0.7106
      6 PB         -0.5777    4.0552    5.2197 P.3       1 GTP         1.8242
      7 O1B        -0.5782    2.5577    5.3090 O.2       1 GTP        -0.9138
      8 O2B        -1.6288    4.7990    6.1969 O.3       1 GTP        -0.7900
      9 O3A        -0.9197    4.6580    3.7607 O.3       1 GTP        -0.8086
     10 PA         -2.1753    4.4068    2.7741 P.3       1 GTP         1.7888
     11 O1A        -3.5039    4.7809    3.3645 O.2       1 GTP        -0.8200
     12 O2A        -1.7757    5.2186    1.4330 O.3       1 GTP        -0.8185
     13 O5'        -2.0396    2.8622    2.3120 O.3       1 GTP        -0.5679
     14 C5'        -0.8811    2.4285    1.6206 C.3       1 GTP         0.1794
     15 C4'        -0.1994    1.3333    2.4288 C.3       1 GTP         0.1313
     16 O4'        -1.1285    0.2356    2.5840 O.3       1 GTP        -0.3993
     17 C3'         1.0324    0.7610    1.7344 C.3       1 GTP         0.0846
     18 O3'         1.9175    0.2377    2.7247 O.3       1 GTP        -0.5819
     19 C2'         0.4468   -0.3802    0.9263 C.3       1 GTP         0.0567
     20 O2'         1.3993   -1.3703    0.5961 O.3       1 GTP        -0.5837
     21 C1'        -0.6159   -0.9100    1.8769 C.3       1 GTP         0.2547
     22 N9         -1.7127   -1.6108    1.2130 N.pl3     1 GTP        -0.2013
     23 C8         -1.7695   -2.9586    0.9546 C.ar      1 GTP         0.4384
     24 N7         -2.8846   -3.3047    0.3416 N.2       1 GTP        -0.6072
     25 C5         -3.5626   -2.1296    0.2052 C.ar      1 GTP         0.1855
     26 C6         -4.8477   -1.8989   -0.3942 C.ar      1 GTP         0.6502
     27 O6         -5.5373   -2.7819   -0.8881 O.2       1 GTP        -0.6193
     28 N1         -5.1895   -0.5407   -0.3318 N.pl3     1 GTP        -0.5097
     29 C2         -4.3899    0.4774    0.2398 C.ar      1 GTP         0.6454
     30 N2         -4.9233    1.7390    0.1898 N.pl3     1 GTP        -0.8839
     31 N3         -3.2159    0.2369    0.7822 N.2       1 GTP        -0.6390
     32 C4         -2.8678   -1.0679    0.7322 C.ar      1 GTP         0.0961
     33 HOB2       -2.5855    4.6051    6.1004 H         1 GTP         0.4357
     34 HOA2       -2.3587    5.1528    0.6470 H         1 GTP         0.4835
     35 H5'        -1.1760    2.0498    0.6365 H         1 GTP         0.0448
     36 H5''       -0.2072    3.2811    1.4873 H         1 GTP         0.0448
     37 H4'         0.0402    1.7079    3.4342 H         1 GTP         0.1246
     38 H3'         1.5907    1.4859    1.1353 H         1 GTP         0.0764
     39 HO3'        2.1521    0.9800    3.3017 H         1 GTP         0.4062
     40 H2'        -0.0017    0.0018    0.0005 H         1 GTP         0.0706
     41 HO2'        2.0953   -0.9375    0.0709 H         1 GTP         0.4064
     42 H1'        -0.1998   -1.6319    2.6178 H         1 GTP         0.1053
     43 H8         -0.9713   -3.6323    1.2352 H         1 GTP         0.0995
     44 HN1        -6.0831   -0.2651   -0.7290 H         1 GTP         0.3262
     45 HN21       -4.3984    2.4878    0.5788 H         1 GTP         0.4043
     46 HN22       -5.8145    1.8572   -0.2335 H         1 GTP         0.4043
@<TRIPOS>BOND
     1    1    2 2
     2    1    3 1
     3    1    4 1
     4    1    5 1
     5    5    6 1
     6    6    7 2
     7    6    8 1
     8    6    9 1
     9    8   33 1
    10    9   10 1
    11   10   11 2
    12   10   12 1
    13   10   13 1
    14   12   34 1
    15   13   14 1
    16   14   15 1
    17   14   35 1
    18   14   36 1
    19   15   16 1
    20   15   17 1
    21   15   37 1
    22   16   21 1
    23   17   18 1
    24   17   19 1
    25   17   38 1
    26   18   39 1
    27   19   20 1
    28   19   21 1
    29   19   40 1
    30   20   41 1
    31   21   22 1
    32   21   42 1
    33   22   23 ar
    34   22   32 ar
    35   23   24 ar
    36   23   43 1
    37   24   25 ar
    38   25   26 ar
    39   25   32 ar
    40   26   27 2
    41   26   28 ar
    42   28   29 ar
    43   28   44 1
    44   29   30 1
    45   29   31 ar
    46   30   45 1
    47   30   46 1
    48   31   32 ar
@<TRIPOS>SUBSTRUCTURE
     1 GTP         1 GROUP 0 A     ****
@<TRIPOS>MOLECULE
[[[5-(2-amino-6-oxo-1~{H}-purin-9-yl)-3,4-dihydroxy-tetrahydrofuran-2-yl]methoxy-hydroxy-phosphoryl]oxy-hydroxy-phosphoryl] phosphate
   46    48     1     0     0
SMALL
USER_CHARGES

@<TRIPOS>ATOM
      1 PG         -4.1563    5.3005    3.6811 P.3       1 GTP         1.3594
      2 O1G        -5.4747    5.3436    2.9155 O.co2     1 GTP        -0.8909
      3 O2G        -4.2603    5.7409    5.1375 O.co2     1 GTP        -0.8909
      4 O3G        -3.3511    4.0226    3.4699 O.co2     1 GTP        -0.8909
      5 O3B        -3.2368    6.4672    2.9676 O.3       1 GTP        -0.7106
      6 PB         -2.7360    6.6280    1.4382 P.3       1 GTP         1.8242
      7 O1B        -3.8349    6.7254    0.4216 O.2       1 GTP        -0.9138
      8 O2B        -1.7468    7.9050    1.5006 O.3       1 GTP        -0.7900
      9 O3A        -1.7328    5.3762    1.2497 O.3       1 GTP        -0.8086
     10 PA         -0.3726    4.9772    2.0265 P.3       1 GTP         1.7888
     11 O1A         0.7144    6.0080    1.9291 O.2       1 GTP        -0.8200
     12 O2A        -0.8720    4.6574    3.5317 O.3       1 GTP        -0.8185
     13 O5'         0.0170    3.5129    1.4592 O.3       1 GTP        -0.5679
     14 C5'        -0.8811    2.4285    1.6206 C.3       1 GTP         0.1794
     15 C4'        -0.1994    1.3333    2.4288 C.3       1 GTP         0.1313
     16 O4'        -1.1285    0.2356    2.5840 O.3       1 GTP        -0.3993
     17 C3'         1.0324    0.7610    1.7344 C.3       1 GTP         0.0846
     18 O3'         1.9175    0.2377    2.7247 O.3       1 GTP        -0.5819
     19 C2'         0.4468   -0.3802    0.9263 C.3       1 GTP         0.0567
     20 O2'         1.3993   -1.3703    0.5961 O.3       1 GTP        -0.5837
     21 C1'        -0.6159   -0.9100    1.8769 C.3       1 GTP         0.2547
     22 N9         -1.7127   -1.6108    1.2130 N.pl3     1 GTP        -0.2013
     23 C8         -2.8667   -1.0365    0.7385 C.ar      1 GTP         0.4384
     24 N7         -3.6757   -1.9196    0.1868 N.2       1 GTP        -0.6072
     25 C5         -3.0088   -3.1018    0.3164 C.ar      1 GTP         0.1855
     26 C6         -3.4148   -4.4130   -0.1079 C.ar      1 GTP         0.6502
     27 O6         -4.4753   -4.6480   -0.6732 O.2       1 GTP        -0.6193
     28 N1         -2.4377   -5.3653    0.2144 N.pl3     1 GTP        -0.5097
     29 C2         -1.2132   -5.0902    0.8680 C.ar      1 GTP         0.6454
     30 N2         -0.4066   -6.1772    1.0834 N.pl3     1 GTP        -0.8839
     31 N3         -0.8672   -3.8786    1.2457 N.2       1 GTP        -0.6390
     32 C4         -1.7966   -2.9451    0.9439 C.ar      1 GTP         0.0961
     33 HOB2       -2.1221    8.7860    1.7129 H         1 GTP         0.4357
     34 HOA2       -0.2247    4.3137    4.1835 H         1 GTP         0.4835
     35 H5'        -1.7776    2.7841    2.1389 H         1 GTP         0.0448
     36 H5''       -1.1659    2.0533    0.6322 H         1 GTP         0.0448
     37 H4'         0.0402    1.7079    3.4342 H         1 GTP         0.1246
     38 H3'         1.5907    1.4859    1.1353 H         1 GTP         0.0764
     39 HO3'        2.6839   -0.1150    2.2479 H         1 GTP         0.4062
     40 H2'        -0.0017    0.0018    0.0005 H         1 GTP         0.0706
     41 HO2'        2.0953   -0.9375    0.0709 H         1 GTP         0.4064
     42 H1'        -0.1998   -1.6319    2.6178 H         1 GTP         0.1053
     43 H8         -3.0589    0.0244    0.8247 H         1 GTP         0.0995
     44 HN1        -2.6238   -6.3307   -0.0420 H         1 GTP         0.3262
     45 HN21        0.4646   -6.0341    1.5394 H         1 GTP         0.4043
     46 HN22       -0.7235   -7.0673    0.7753 H         1 GTP         0.4043
@<TRIPOS>BOND
     1    1    2 2
     2    1    3 1
     3    1    4 1
     4    1    5 1
     5    5    6 1
     6    6    7 2
     7    6    8 1
     8    6    9 1
     9    8   33 1
    10    9   10 1
    11   10   11 2
    12   10   12 1
    13   10   13 1
    14   12   34 1
    15   13   14 1
    16   14   15 1
    17   14   35 1
    18   14   36 1
    19   15   16 1
    20   15   17 1
    21   15   37 1
    22   16   21 1
    23   17   18 1
    24   17   19 1
    25   17   38 1
    26   18   39 1
    27   19   20 1
    28   19   21 1
    29   19   40 1
    30   20   41 1
    31   21   22 1
    32   21   42 1
    33   22   23 ar
    34   22   32 ar
    35   23   24 ar
    36   23   43 1
    37   24   25 ar
    38   25   26 ar
    39   25   32 ar
    40   26   27 2
    41   26   28 ar
    42   28   29 ar
    43   28   44 1
    44   29   30 1
    45   29   31 ar
    46   30   45 1
    47   30   46 1
    48   31   32 ar
@<TRIPOS>SUBSTRUCTURE
     1 GTP         1 GROUP 0 A     ****
@<TRIPOS>MOLECULE
[[[5-(2-amino-6-oxo-1~{H}-purin-9-yl)-3,4-dihydroxy-tetrahydrofuran-2-yl]methoxy-hydroxy-phosphoryl]oxy-hydroxy-phosphoryl] phosphate
   46    48     1     0     0
SMALL
USER_CHARGES

@<TRIPOS>ATOM
      1 PG          3.9070    1.7342   -0.4675 P.3       1 GTP         1.3594
      2 O1G         4.0837    0.7381   -1.6088 O.co2     1 GTP        -0.8909
      3 O2G         4.0038    1.1189    0.9246 O.co2     1 GTP        -0.8909
      4 O3G         4.6985    3.0269   -0.6366 O.co2     1 GTP        -0.8909
      5 O3B         2.3359    2.2158   -0.5916 O.3       1 GTP        -0.7106
      6 PB          1.5474    2.9431   -1.8019 P.3       1 GTP         1.8242
      7 O1B         2.3274    4.0099   -2.5119 O.2       1 GTP        -0.9138
      8 O2B         1.0710    1.7102   -2.7326 O.3       1 GTP        -0.7900
      9 O3A         0.1811    3.4417   -1.0992 O.3       1 GTP        -0.8086
     10 PA         -0.0712    4.4471    0.1412 P.3       1 GTP         1.7888
     11 O1A         0.8293    5.6482    0.1502 O.2       1 GTP        -0.8200
     12 O2A        -1.6507    4.7834    0.0451 O.3       1 GTP        -0.8185
     13 O5'         0.0170    3.5129    1.4592 O.3       1 GTP        -0.5679
     14 C5'        -0.8811    2.4285    1.6206 C.3       1 GTP         0.1794
     15 C4'        -0.1994    1.3333    2.4288 C.3       1 GTP         0.1313
     16 O4'        -1.1285    0.2356    2.5840 O.3       1 GTP        -0.3993
     17 C3'         1.0324    0.7610    1.7344 C.3       1 GTP         0.0846
     18 O3'         1.9175    0.2377    2.7247 O.3       1 GTP        -0.5819
     19 C2'         0.4468   -0.3802    0.9263 C.3       1 GTP         0.0567
     20 O2'         1.3993   -1.3703    0.5961 O.3       1 GTP        -0.5837
     21 C1'        -0.6159   -0.9100    1.8769 C.3       1 GTP         0.2547
     22 N9         -1.7127   -1.6108    1.2130 N.pl3     1 GTP        -0.2013
     23 C8         -2.8667   -1.0365    0.7385 C.ar      1 GTP         0.4384
     24 N7         -3.6757   -1.9196    0.1868 N.2       1 GTP        -0.6072
     25 C5         -3.0088   -3.1018    0.3164 C.ar      1 GTP         0.1855
     26 C6         -3.4148   -4.4130   -0.1079 C.ar      1 GTP         0.6502
     27 O6         -4.4753   -4.6480   -0.6732 O.2       1 GTP        -0.6193
     28 N1         -2.4377   -5.3653    0.2144 N.pl3     1 GTP        -0.5097
     29 C2         -1.2132   -5.0902    0.8680 C.ar      1 GTP         0.6454
     30 N2         -0.4066   -6.1772    1.0834 N.pl3     1 GTP        -0.8839
     31 N3         -0.8672   -3.8786    1.2457 N.2       1 GTP        -0.6390
     32 C4         -1.7966   -2.9451    0.9439 C.ar      1 GTP         0.0961
     33 HOB2        1.7505    1.1722   -3.1919 H         1 GTP         0.4357
     34 HOA2       -2.0640    5.3260    0.7498 H         1 GTP         0.4835
     35 H5'        -1.7776    2.7841    2.1389 H         1 GTP         0.0448
     36 H5''       -1.1659    2.0533    0.6322 H         1 GTP         0.0448
     37 H4'         0.0402    1.7079    3.4342 H         1 GTP         0.1246
     38 H3'         1.5907    1.4859    1.1353 H         1 GTP         0.0764
     39 HO3'        2.6839   -0.1150    2.2479 H         1 GTP         0.4062
     40 H2'        -0.0017    0.0018    0.0005 H         1 GTP         0.0706
     41 HO2'        2.0953   -0.9375    0.0709 H         1 GTP         0.4064
     42 H1'        -0.1998   -1.6319    2.6178 H         1 GTP         0.1053
     43 H8         -3.0589    0.0244    0.8247 H         1 GTP         0.0995
     44 HN1        -2.6238   -6.3307   -0.0420 H         1 GTP         0.3262
     45 HN21        0.4646   -6.0341    1.5394 H         1 GTP         0.4043
     46 HN22       -0.7235   -7.0673    0.7753 H         1 GTP         0.4043
@<TRIPOS>BOND
     1    1    2 2
     2    1    3 1
     3    1    4 1
     4    1    5 1
     5    5    6 1
     6    6    7 2
     7    6    8 1
     8    6    9 1
     9    8   33 1
    10    9   10 1
    11   10   11 2
    12   10   12 1
    13   10   13 1
    14   12   34 1
    15   13   14 1
    16   14   15 1
    17   14   35 1
    18   14   36 1
    19   15   16 1
    20   15   17 1
    21   15   37 1
    22   16   21 1
    23   17   18 1
    24   17   19 1
    25   17   38 1
    26   18   39 1
    27   19   20 1
    28   19   21 1
    29   19   40 1
    30   20   41 1
    31   21   22 1
    32   21   42 1
    33   22   23 ar
    34   22   32 ar
    35   23   24 ar
    36   23   43 1
    37   24   25 ar
    38   25   26 ar
    39   25   32 ar
    40   26   27 2
    41   26   28 ar
    42   28   29 ar
    43   28   44 1
    44   29   30 1
    45   29   31 ar
    46   30   45 1
    47   30   46 1
    48   31   32 ar
@<TRIPOS>SUBSTRUCTURE
     1 GTP         1 GROUP 0 A     ****
@<TRIPOS>MOLECULE
[[[5-(2-amino-6-oxo-1~{H}-purin-9-yl)-3,4-dihydroxy-tetrahydrofuran-2-yl]methoxy-hydroxy-phosphoryl]oxy-hydroxy-phosphoryl] phosphate
   46    48     1     0     0
SMALL
USER_CHARGES

@<TRIPOS>ATOM
      1 PG          3.9070    1.7342   -0.4675 P.3       1 GTP         1.3594
      2 O1G         4.0837    0.7381   -1.6088 O.co2     1 GTP        -0.8909
      3 O2G         4.0038    1.1189    0.9246 O.co2     1 GTP        -0.8909
      4 O3G         4.6985    3.0269   -0.6366 O.co2     1 GTP        -0.8909
      5 O3B         2.3359    2.2158   -0.5916 O.3       1 GTP        -0.7106
      6 PB          1.5474    2.9431   -1.8019 P.3       1 GTP         1.8242
      7 O1B         2.3274    4.0099   -2.5119 O.2       1 GTP        -0.9138
      8 O2B         1.0710    1.7102   -2.7326 O.3       1 GTP        -0.7900
      9 O3A         0.1811    3.4417   -1.0992 O.3       1 GTP        -0.8086
     10 PA         -0.0712    4.4471    0.1412 P.3       1 GTP         1.7888
     11 O1A         0.8293    5.6482    0.1502 O.2       1 GTP        -0.8200
     12 O2A        -1.6507    4.7834    0.0451 O.3       1 GTP        -0.8185
     13 O5'         0.0170    3.5129    1.4592 O.3       1 GTP        -0.5679
     14 C5'        -0.8811    2.4285    1.6206 C.3       1 GTP         0.1794
     15 C4'        -0.1994    1.3333    2.4288 C.3       1 GTP         0.1313
     16 O4'        -1.1285    0.2356    2.5840 O.3       1 GTP        -0.3993
     17 C3'         1.0324    0.7610    1.7344 C.3       1 GTP         0.0846
     18 O3'         1.9175    0.2377    2.7247 O.3       1 GTP        -0.5819
     19 C2'         0.4468   -0.3802    0.9263 C.3       1 GTP         0.0567
     20 O2'         1.3993   -1.3703    0.5961 O.3       1 GTP        -0.5837
     21 C1'        -0.6159   -0.9100    1.8769 C.3       1 GTP         0.2547
     22 N9         -1.7127   -1.6108    1.2130 N.pl3     1 GTP        -0.2013
     23 C8         -1.7695   -2.9586    0.9546 C.ar      1 GTP         0.4384
     24 N7         -2.8846   -3.3047    0.3416 N.2       1 GTP        -0.6072
     25 C5         -3.5626   -2.1296    0.2052 C.ar      1 GTP         0.1855
     26 C6         -4.8477   -1.8989   -0.3942 C.ar      1 GTP         0.6502
     27 O6         -5.5373   -2.7819   -0.8881 O.2       1 GTP        -0.6193
     28 N1         -5.1895   -0.5407   -0.3318 N.pl3     1 GTP        -0.5097
     29 C2         -4.3899    0.4774    0.2398 C.ar      1 GTP         0.6454
     30 N2         -4.9233    1.7390    0.1898 N.pl3     1 GTP        -0.8839
     31 N3         -3.2159    0.2369    0.7822 N.2       1 GTP        -0.6390
     32 C4         -2.8678   -1.0679    0.7322 C.ar      1 GTP         0.0961
     33 HOB2        1.7505    1.1722   -3.1919 H         1 GTP         0.4357
     34 HOA2       -2.0640    5.3260    0.7498 H         1 GTP         0.4835
     35 H5'        -1.7776    2.7841    2.1389 H         1 GTP         0.0448
     36 H5''       -1.1659    2.0533    0.6322 H         1 GTP         0.0448
     37 H4'         0.0402    1.7079    3.4342 H         1 GTP         0.1246
     38 H3'         1.5907    1.4859    1.1353 H         1 GTP         0.0764
     39 HO3'        2.6839   -0.1150    2.2479 H         1 GTP         0.4062
     40 H2'        -0.0017    0.0018    0.0005 H         1 GTP         0.0706
     41 HO2'        2.0953   -0.9375    0.0709 H         1 GTP         0.4064
     42 H1'        -0.1998   -1.6319    2.6178 H         1 GTP         0.1053
     43 H8         -0.9713   -3.6323    1.2352 H         1 GTP         0.0995
     44 HN1        -6.0831   -0.2651   -0.7290 H         1 GTP         0.3262
     45 HN21       -4.3984    2.4878    0.5788 H         1 GTP         0.4043
     46 HN22       -5.8145    1.8572   -0.2335 H         1 GTP         0.4043
@<TRIPOS>BOND
     1    1    2 2
     2    1    3 1
     3    1    4 1
     4    1    5 1
     5    5    6 1
     6    6    7 2
     7    6    8 1
     8    6    9 1
     9    8   33 1
    10    9   10 1
    11   10   11 2
    12   10   12 1
    13   10   13 1
    14   12   34 1
    15   13   14 1
    16   14   15 1
    17   14   35 1
    18   14   36 1
    19   15   16 1
    20   15   17 1
    21   15   37 1
    22   16   21 1
    23   17   18 1
    24   17   19 1
    25   17   38 1
    26   18   39 1
    27   19   20 1
    28   19   21 1
    29   19   40 1
    30   20   41 1
    31   21   22 1
    32   21   42 1
    33   22   23 ar
    34   22   32 ar
    35   23   24 ar
    36   23   43 1
    37   24   25 ar
    38   25   26 ar
    39   25   32 ar
    40   26   27 2
    41   26   28 ar
    42   28   29 ar
    43   28   44 1
    44   29   30 1
    45   29   31 ar
    46   30   45 1
    47   30   46 1
    48   31   32 ar
@<TRIPOS>SUBSTRUCTURE
     1 GTP         1 GROUP 0 A     ****
@<TRIPOS>MOLECULE
[[[5-(2-amino-6-oxo-1~{H}-purin-9-yl)-3,4-dihydroxy-tetrahydrofuran-2-yl]methoxy-hydroxy-phosphoryl]oxy-hydroxy-phosphoryl] phosphate
   46    48     1     0     0
SMALL
USER_CHARGES

@<TRIPOS>ATOM
      1 PG          2.5487    4.7158    1.9711 P.3       1 GTP         1.3594
      2 O1G         3.1315    5.8313    1.1095 O.co2     1 GTP        -0.8909
      3 O2G         2.9309    3.3094    1.5218 O.co2     1 GTP        -0.8909
      4 O3G         2.6805    4.9505    3.4723 O.co2     1 GTP        -0.8909
      5 O3B         0.9255    4.8028    1.7003 O.3       1 GTP        -0.7106
      6 PB         -0.1232    6.0083    1.9508 P.3       1 GTP         1.8242
      7 O1B        -0.2308    6.4648    3.3758 O.2       1 GTP        -0.9138
      8 O2B         0.3538    7.1431    0.9032 O.3       1 GTP        -0.7900
      9 O3A        -1.4908    5.4418    1.3043 O.3       1 GTP        -0.8086
     10 PA         -2.5921    4.4092    1.8820 P.3       1 GTP         1.7888
     11 O1A        -3.5668    5.0260    2.8428 O.2       1 GTP        -0.8200
     12 O2A        -3.2590    3.7776    0.5503 O.3       1 GTP        -0.8185
     13 O5'        -1.7334    3.1724    2.4742 O.3       1 GTP        -0.5679
     14 C5'        -0.8811    2.4285    1.6206 C.3       1 GTP         0.1794
     15 C4'        -0.1994    1.3333    2.4288 C.3       1 GTP         0.1313
     16 O4'        -1.1285    0.2356    2.5840 O.3       1 GTP        -0.3993
     17 C3'         1.0324    0.7610    1.7344 C.3       1 GTP         0.0846
     18 O3'         1.9175    0.2377    2.7247 O.3       1 GTP        -0.5819
     19 C2'         0.4468   -0.3802    0.9263 C.3       1 GTP         0.0567
     20 O2'         1.3993   -1.3703    0.5961 O.3       1 GTP        -0.5837
     21 C1'        -0.6159   -0.9100    1.8769 C.3       1 GTP         0.2547
     22 N9         -1.7127   -1.6108    1.2130 N.pl3     1 GTP        -0.2013
     23 C8         -2.8667   -1.0365    0.7385 C.ar      1 GTP         0.4384
     24 N7         -3.6757   -1.9196    0.1868 N.2       1 GTP        -0.6072
     25 C5         -3.0088   -3.1018    0.3164 C.ar      1 GTP         0.1855
     26 C6         -3.4148   -4.4130   -0.1079 C.ar      1 GTP         0.6502
     27 O6         -4.4753   -4.6480   -0.6732 O.2       1 GTP        -0.6193
     28 N1         -2.4377   -5.3653    0.2144 N.pl3     1 GTP        -0.5097
     29 C2         -1.2132   -5.0902    0.8680 C.ar      1 GTP         0.6454
     30 N2         -0.4066   -6.1772    1.0834 N.pl3     1 GTP        -0.8839
     31 N3         -0.8672   -3.8786    1.2457 N.2       1 GTP        -0.6390
     32 C4         -1.7966   -2.9451    0.9439 C.ar      1 GTP         0.0961
     33 HOB2        1.2280    7.5693    1.0308 H         1 GTP         0.4357
     34 HOA2       -3.7711    4.3628   -0.0473 H         1 GTP         0.4835
     35 H5'        -1.4794    1.9921    0.8142 H         1 GTP         0.0448
     36 H5''       -0.1361    3.1034    1.1867 H         1 GTP         0.0448
     37 H4'         0.0402    1.7079    3.4342 H         1 GTP         0.1246
     38 H3'         1.5907    1.4859    1.1353 H         1 GTP         0.0764
     39 HO3'        2.1521    0.9800    3.3017 H         1 GTP         0.4062
     40 H2'        -0.0017    0.0018    0.0005 H         1 GTP         0.0706
     41 HO2'        1.7495   -1.7243    1.4324 H         1 GTP         0.4064
     42 H1'        -0.1998   -1.6319    2.6178 H         1 GTP         0.1053
     43 H8         -3.0589    0.0244    0.8247 H         1 GTP         0.0995
     44 HN1        -2.6238   -6.3307   -0.0420 H         1 GTP         0.3262
     45 HN21        0.4646   -6.0341    1.5394 H         1 GTP         0.4043
     46 HN22       -0.7235   -7.0673    0.7753 H         1 GTP         0.4043
@<TRIPOS>BOND
     1    1    2 2
     2    1    3 1
     3    1    4 1
     4    1    5 1
     5    5    6 1
     6    6    7 2
     7    6    8 1
     8    6    9 1
     9    8   33 1
    10    9   10 1
    11   10   11 2
    12   10   12 1
    13   10   13 1
    14   12   34 1
    15   13   14 1
    16   14   15 1
    17   14   35 1
    18   14   36 1
    19   15   16 1
    20   15   17 1
    21   15   37 1
    22   16   21 1
    23   17   18 1
    24   17   19 1
    25   17   38 1
    26   18   39 1
    27   19   20 1
    28   19   21 1
    29   19   40 1
    30   20   41 1
    31   21   22 1
    32   21   42 1
    33   22   23 ar
    34   22   32 ar
    35   23   24 ar
    36   23   43 1
    37   24   25 ar
    38   25   26 ar
    39   25   32 ar
    40   26   27 2
    41   26   28 ar
    42   28   29 ar
    43   28   44 1
    44   29   30 1
    45   29   31 ar
    46   30   45 1
    47   30   46 1
    48   31   32 ar
@<TRIPOS>SUBSTRUCTURE
     1 GTP         1 GROUP 0 A     ****
@<TRIPOS>MOLECULE
[[[5-(2-amino-6-oxo-1~{H}-purin-9-yl)-3,4-dihydroxy-tetrahydrofuran-2-yl]methoxy-hydroxy-phosphoryl]oxy-hydroxy-phosphoryl] phosphate
   46    48     1     0     0
SMALL
USER_CHARGES

@<TRIPOS>ATOM
      1 PG          2.1885    3.8742    4.1024 P.3       1 GTP         1.3594
      2 O1G         3.1726    4.9553    3.6675 O.co2     1 GTP        -0.8909
      3 O2G         2.5465    2.4701    3.6269 O.co2     1 GTP        -0.8909
      4 O3G         1.7803    3.9528    5.5698 O.co2     1 GTP        -0.8909
      5 O3B         0.8027    4.2387    3.2885 O.3       1 GTP        -0.7106
      6 PB         -0.1189    5.5675    3.3159 P.3       1 GTP         1.8242
      7 O1B        -0.6941    5.9086    4.6588 O.2       1 GTP        -0.9138
      8 O2B         0.8388    6.7006    2.6742 O.3       1 GTP        -0.7900
      9 O3A        -1.2046    5.2820    2.1544 O.3       1 GTP        -0.8086
     10 PA         -2.5519    4.3888    2.1545 P.3       1 GTP         1.7888
     11 O1A        -3.5765    4.8242    3.1615 O.2       1 GTP        -0.8200
     12 O2A        -3.0467    4.4438    0.6152 O.3       1 GTP        -0.8185
     13 O5'        -2.0396    2.8622    2.3120 O.3       1 GTP        -0.5679
     14 C5'        -0.8811    2.4285    1.6206 C.3       1 GTP         0.1794
     15 C4'        -0.1994    1.3333    2.4288 C.3       1 GTP         0.1313
     16 O4'        -1.1285    0.2356    2.5840 O.3       1 GTP        -0.3993
     17 C3'         1.0324    0.7610    1.7344 C.3       1 GTP         0.0846
     18 O3'         1.9175    0.2377    2.7247 O.3       1 GTP        -0.5819
     19 C2'         0.4468   -0.3802    0.9263 C.3       1 GTP         0.0567
     20 O2'         1.3993   -1.3703    0.5961 O.3       1 GTP        -0.5837
     21 C1'        -0.6159   -0.9100    1.8769 C.3       1 GTP         0.2547
     22 N9         -1.7127   -1.6108    1.2130 N.pl3     1 GTP        -0.2013
     23 C8         -1.7695   -2.9586    0.9546 C.ar      1 GTP         0.4384
     24 N7         -2.8846   -3.3047    0.3416 N.2       1 GTP        -0.6072
     25 C5         -3.5626   -2.1296    0.2052 C.ar      1 GTP         0.1855
     26 C6         -4.8477   -1.8989   -0.3942 C.ar      1 GTP         0.6502
     27 O6         -5.5373   -2.7819   -0.8881 O.2       1 GTP        -0.6193
     28 N1         -5.1895   -0.5407   -0.3318 N.pl3     1 GTP        -0.5097
     29 C2         -4.3899    0.4774    0.2398 C.ar      1 GTP         0.6454
     30 N2         -4.9233    1.7390    0.1898 N.pl3     1 GTP        -0.8839
     31 N3         -3.2159    0.2369    0.7822 N.2       1 GTP        -0.6390
     32 C4         -2.8678   -1.0679    0.7322 C.ar      1 GTP         0.0961
     33 HOB2        0.4681    7.5917    2.4992 H         1 GTP         0.4357
     34 HOA2       -3.3305    5.3038    0.2385 H         1 GTP         0.4835
     35 H5'        -1.1760    2.0498    0.6365 H         1 GTP         0.0448
     36 H5''       -0.2072    3.2811    1.4873 H         1 GTP         0.0448
     37 H4'         0.0402    1.7079    3.4342 H         1 GTP         0.1246
     38 H3'         1.5907    1.4859    1.1353 H         1 GTP         0.0764
     39 HO3'        2.6839   -0.1150    2.2479 H         1 GTP         0.4062
     40 H2'        -0.0017    0.0018    0.0005 H         1 GTP         0.0706
     41 HO2'        2.0953   -0.9375    0.0709 H         1 GTP         0.4064
     42 H1'        -0.1998   -1.6319    2.6178 H         1 GTP         0.1053
     43 H8         -0.9713   -3.6323    1.2352 H         1 GTP         0.0995
     44 HN1        -6.0831   -0.2651   -0.7290 H         1 GTP         0.3262
     45 HN21       -4.3984    2.4878    0.5788 H         1 GTP         0.4043
     46 HN22       -5.8145    1.8572   -0.2335 H         1 GTP         0.4043
@<TRIPOS>BOND
     1    1    2 2
     2    1    3 1
     3    1    4 1
     4    1    5 1
     5    5    6 1
     6    6    7 2
     7    6    8 1
     8    6    9 1
     9    8   33 1
    10    9   10 1
    11   10   11 2
    12   10   12 1
    13   10   13 1
    14   12   34 1
    15   13   14 1
    16   14   15 1
    17   14   35 1
    18   14   36 1
    19   15   16 1
    20   15   17 1
    21   15   37 1
    22   16   21 1
    23   17   18 1
    24   17   19 1
    25   17   38 1
    26   18   39 1
    27   19   20 1
    28   19   21 1
    29   19   40 1
    30   20   41 1
    31   21   22 1
    32   21   42 1
    33   22   23 ar
    34   22   32 ar
    35   23   24 ar
    36   23   43 1
    37   24   25 ar
    38   25   26 ar
    39   25   32 ar
    40   26   27 2
    41   26   28 ar
    42   28   29 ar
    43   28   44 1
    44   29   30 1
    45   29   31 ar
    46   30   45 1
    47   30   46 1
    48   31   32 ar
@<TRIPOS>SUBSTRUCTURE
     1 GTP         1 GROUP 0 A     ****
@<TRIPOS>MOLECULE
[[[5-(2-amino-6-oxo-1~{H}-purin-9-yl)-3,4-dihydroxy-tetrahydrofuran-2-yl]methoxy-hydroxy-phosphoryl]oxy-hydroxy-phosphoryl] phosphate
   46    48     1     0     0
SMALL
USER_CHARGES

@<TRIPOS>ATOM
      1 PG         -2.0943    5.9427    6.9365 P.3       1 GTP         1.3594
      2 O1G        -0.9429    6.0124    7.9342 O.co2     1 GTP        -0.8909
      3 O2G        -3.4678    5.7589    7.5733 O.co2     1 GTP        -0.8909
      4 O3G        -2.0465    7.0116    5.8497 O.co2     1 GTP        -0.8909
      5 O3B        -1.8340    4.5367    6.1172 O.3       1 GTP        -0.7106
      6 PB         -0.5777    4.0552    5.2197 P.3       1 GTP         1.8242
      7 O1B         0.7684    4.4293    5.7665 O.2       1 GTP        -0.9138
      8 O2B        -0.8282    2.4678    5.0461 O.3       1 GTP        -0.7900
      9 O3A        -0.9197    4.6580    3.7607 O.3       1 GTP        -0.8086
     10 PA         -2.1753    4.4068    2.7741 P.3       1 GTP         1.7888
     11 O1A        -3.5039    4.7809    3.3645 O.2       1 GTP        -0.8200
     12 O2A        -1.7757    5.2186    1.4330 O.3       1 GTP        -0.8185
     13 O5'        -2.0396    2.8622    2.3120 O.3       1 GTP        -0.5679
     14 C5'        -0.8811    2.4285    1.6206 C.3       1 GTP         0.1794
     15 C4'        -0.1994    1.3333    2.4288 C.3       1 GTP         0.1313
     16 O4'        -1.1285    0.2356    2.5840 O.3       1 GTP        -0.3993
     17 C3'         1.0324    0.7610    1.7344 C.3       1 GTP         0.0846
     18 O3'         1.9175    0.2377    2.7247 O.3       1 GTP        -0.5819
     19 C2'         0.4468   -0.3802    0.9263 C.3       1 GTP         0.0567
     20 O2'         1.3993   -1.3703    0.5961 O.3       1 GTP        -0.5837
     21 C1'        -0.6159   -0.9100    1.8769 C.3       1 GTP         0.2547
     22 N9         -1.7127   -1.6108    1.2130 N.pl3     1 GTP        -0.2013
     23 C8         -2.8667   -1.0365    0.7385 C.ar      1 GTP         0.4384
     24 N7         -3.6757   -1.9196    0.1868 N.2       1 GTP        -0.6072
     25 C5         -3.0088   -3.1018    0.3164 C.ar      1 GTP         0.1855
     26 C6         -3.4148   -4.4130   -0.1079 C.ar      1 GTP         0.6502
     27 O6         -4.4753   -4.6480   -0.6732 O.2       1 GTP        -0.6193
     28 N1         -2.4377   -5.3653    0.2144 N.pl3     1 GTP        -0.5097
     29 C2         -1.2132   -5.0902    0.8680 C.ar      1 GTP         0.6454
     30 N2         -0.4066   -6.1772    1.0834 N.pl3     1 GTP        -0.8839
     31 N3         -0.8672   -3.8786    1.2457 N.2       1 GTP        -0.6390
     32 C4         -1.7966   -2.9451    0.9439 C.ar      1 GTP         0.0961
     33 HOB2       -0.7795    1.8903    5.8376 H         1 GTP         0.4357
     34 HOA2       -1.6971    6.1953    1.4752 H         1 GTP         0.4835
     35 H5'        -1.1760    2.0498    0.6365 H         1 GTP         0.0448
     36 H5''       -0.2072    3.2811    1.4873 H         1 GTP         0.0448
     37 H4'         0.0402    1.7079    3.4342 H         1 GTP         0.1246
     38 H3'         1.5907    1.4859    1.1353 H         1 GTP         0.0764
     39 HO3'        2.1521    0.9800    3.3017 H         1 GTP         0.4062
     40 H2'        -0.0017    0.0018    0.0005 H         1 GTP         0.0706
     41 HO2'        0.9369   -2.0558    0.0825 H         1 GTP         0.4064
     42 H1'        -0.1998   -1.6319    2.6178 H         1 GTP         0.1053
     43 H8         -3.0589    0.0244    0.8247 H         1 GTP         0.0995
     44 HN1        -2.6238   -6.3307   -0.0420 H         1 GTP         0.3262
     45 HN21        0.4646   -6.0341    1.5394 H         1 GTP         0.4043
     46 HN22       -0.7235   -7.0673    0.7753 H         1 GTP         0.4043
@<TRIPOS>BOND
     1    1    2 2
     2    1    3 1
     3    1    4 1
     4    1    5 1
     5    5    6 1
     6    6    7 2
     7    6    8 1
     8    6    9 1
     9    8   33 1
    10    9   10 1
    11   10   11 2
    12   10   12 1
    13   10   13 1
    14   12   34 1
    15   13   14 1
    16   14   15 1
    17   14   35 1
    18   14   36 1
    19   15   16 1
    20   15   17 1
    21   15   37 1
    22   16   21 1
    23   17   18 1
    24   17   19 1
    25   17   38 1
    26   18   39 1
    27   19   20 1
    28   19   21 1
    29   19   40 1
    30   20   41 1
    31   21   22 1
    32   21   42 1
    33   22   23 ar
    34   22   32 ar
    35   23   24 ar
    36   23   43 1
    37   24   25 ar
    38   25   26 ar
    39   25   32 ar
    40   26   27 2
    41   26   28 ar
    42   28   29 ar
    43   28   44 1
    44   29   30 1
    45   29   31 ar
    46   30   45 1
    47   30   46 1
    48   31   32 ar
@<TRIPOS>SUBSTRUCTURE
     1 GTP         1 GROUP 0 A     ****
@<TRIPOS>MOLECULE
[[[5-(2-amino-6-oxo-1~{H}-purin-9-yl)-3,4-dihydroxy-tetrahydrofuran-2-yl]methoxy-hydroxy-phosphoryl]oxy-hydroxy-phosphoryl] phosphate
   46    48     1     0     0
SMALL
USER_CHARGES

@<TRIPOS>ATOM
      1 PG         -0.2307    5.1851   -3.4175 P.3       1 GTP         1.3594
      2 O1G         0.1186    3.7167   -3.6361 O.co2     1 GTP        -0.8909
      3 O2G         0.9705    6.1248   -3.4233 O.co2     1 GTP        -0.8909
      4 O3G        -1.4139    5.6771   -4.2447 O.co2     1 GTP        -0.8909
      5 O3B        -0.7846    5.2419   -1.8664 O.3       1 GTP        -0.7106
      6 PB         -2.0303    4.4882   -1.1623 P.3       1 GTP         1.8242
      7 O1B        -3.3715    4.7905   -1.7628 O.2       1 GTP        -0.9138
      8 O2B        -1.5977    2.9313   -1.2036 O.3       1 GTP        -0.7900
      9 O3A        -1.8666    4.8893    0.3938 O.3       1 GTP        -0.8086
     10 PA         -0.5521    5.0215    1.3252 P.3       1 GTP         1.7888
     11 O1A         0.4424    6.0370    0.8422 O.2       1 GTP        -0.8200
     12 O2A        -1.1552    5.3094    2.7985 O.3       1 GTP        -0.8185
     13 O5'         0.0170    3.5129    1.4592 O.3       1 GTP        -0.5679
     14 C5'        -0.8811    2.4285    1.6206 C.3       1 GTP         0.1794
     15 C4'        -0.1994    1.3333    2.4288 C.3       1 GTP         0.1313
     16 O4'        -1.1285    0.2356    2.5840 O.3       1 GTP        -0.3993
     17 C3'         1.0324    0.7610    1.7344 C.3       1 GTP         0.0846
     18 O3'         1.9175    0.2377    2.7247 O.3       1 GTP        -0.5819
     19 C2'         0.4468   -0.3802    0.9263 C.3       1 GTP         0.0567
     20 O2'         1.3993   -1.3703    0.5961 O.3       1 GTP        -0.5837
     21 C1'        -0.6159   -0.9100    1.8769 C.3       1 GTP         0.2547
     22 N9         -1.7127   -1.6108    1.2130 N.pl3     1 GTP        -0.2013
     23 C8         -2.8667   -1.0365    0.7385 C.ar      1 GTP         0.4384
     24 N7         -3.6757   -1.9196    0.1868 N.2       1 GTP        -0.6072
     25 C5         -3.0088   -3.1018    0.3164 C.ar      1 GTP         0.1855
     26 C6         -3.4148   -4.4130   -0.1079 C.ar      1 GTP         0.6502
     27 O6         -4.4753   -4.6480   -0.6732 O.2       1 GTP        -0.6193
     28 N1         -2.4377   -5.3653    0.2144 N.pl3     1 GTP        -0.5097
     29 C2         -1.2132   -5.0902    0.8680 C.ar      1 GTP         0.6454
     30 N2         -0.4066   -6.1772    1.0834 N.pl3     1 GTP        -0.8839
     31 N3         -0.8672   -3.8786    1.2457 N.2       1 GTP        -0.6390
     32 C4         -1.7966   -2.9451    0.9439 C.ar      1 GTP         0.0961
     33 HOB2       -2.1612    2.2700   -0.7481 H         1 GTP         0.4357
     34 HOA2       -0.5415    5.3532    3.5622 H         1 GTP         0.4835
     35 H5'        -1.7776    2.7841    2.1389 H         1 GTP         0.0448
     36 H5''       -1.1659    2.0533    0.6322 H         1 GTP         0.0448
     37 H4'         0.0402    1.7079    3.4342 H         1 GTP         0.1246
     38 H3'         1.5907    1.4859    1.1353 H         1 GTP         0.0764
     39 HO3'        2.1521    0.9800    3.3017 H         1 GTP         0.4062
     40 H2'        -0.0017    0.0018    0.0005 H         1 GTP         0.0706
     41 HO2'        0.9369   -2.0558    0.0825 H         1 GTP         0.4064
     42 H1'        -0.1998   -1.6319    2.6178 H         1 GTP         0.1053
     43 H8         -3.0589    0.0244    0.8247 H         1 GTP         0.0995
     44 HN1        -2.6238   -6.3307   -0.0420 H         1 GTP         0.3262
     45 HN21        0.4646   -6.0341    1.5394 H         1 GTP         0.4043
     46 HN22       -0.7235   -7.0673    0.7753 H         1 GTP         0.4043
@<TRIPOS>BOND
     1    1    2 2
     2    1    3 1
     3    1    4 1
     4    1    5 1
     5    5    6 1
     6    6    7 2
     7    6    8 1
     8    6    9 1
     9    8   33 1
    10    9   10 1
    11   10   11 2
    12   10   12 1
    13   10   13 1
    14   12   34 1
    15   13   14 1
    16   14   15 1
    17   14   35 1
    18   14   36 1
    19   15   16 1
    20   15   17 1
    21   15   37 1
    22   16   21 1
    23   17   18 1
    24   17   19 1
    25   17   38 1
    26   18   39 1
    27   19   20 1
    28   19   21 1
    29   19   40 1
    30   20   41 1
    31   21   22 1
    32   21   42 1
    33   22   23 ar
    34   22   32 ar
    35   23   24 ar
    36   23   43 1
    37   24   25 ar
    38   25   26 ar
    39   25   32 ar
    40   26   27 2
    41   26   28 ar
    42   28   29 ar
    43   28   44 1
    44   29   30 1
    45   29   31 ar
    46   30   45 1
    47   30   46 1
    48   31   32 ar
@<TRIPOS>SUBSTRUCTURE
     1 GTP         1 GROUP 0 A     ****
@<TRIPOS>MOLECULE
[[[5-(2-amino-6-oxo-1~{H}-purin-9-yl)-3,4-dihydroxy-tetrahydrofuran-2-yl]methoxy-hydroxy-phosphoryl]oxy-hydroxy-phosphoryl] phosphate
   46    48     1     0     0
SMALL
USER_CHARGES

@<TRIPOS>ATOM
      1 PG          3.4706    5.4866    2.2958 P.3       1 GTP         1.3594
      2 O1G         4.0845    4.0940    2.1960 O.co2     1 GTP        -0.8909
      3 O2G         4.4600    6.5843    2.6724 O.co2     1 GTP        -0.8909
      4 O3G         2.5464    5.8478    1.1376 O.co2     1 GTP        -0.8909
      5 O3B         2.4575    5.3893    3.5919 O.3       1 GTP        -0.7106
      6 PB          1.1803    4.4351    3.8638 P.3       1 GTP         1.8242
      7 O1B         1.4779    2.9648    3.8538 O.2       1 GTP        -0.9138
      8 O2B         0.5788    5.0018    5.2531 O.3       1 GTP        -0.7900
      9 O3A         0.1138    4.9292    2.7559 O.3       1 GTP        -0.8086
     10 PA         -1.4917    4.7595    2.6755 P.3       1 GTP         1.7888
     11 O1A        -2.2322    5.3757    3.8268 O.2       1 GTP        -0.8200
     12 O2A        -1.8677    5.3664    1.2237 O.3       1 GTP        -0.8185
     13 O5'        -1.7334    3.1724    2.4742 O.3       1 GTP        -0.5679
     14 C5'        -0.8811    2.4285    1.6206 C.3       1 GTP         0.1794
     15 C4'        -0.1994    1.3333    2.4288 C.3       1 GTP         0.1313
     16 O4'        -1.1285    0.2356    2.5840 O.3       1 GTP        -0.3993
     17 C3'         1.0324    0.7610    1.7344 C.3       1 GTP         0.0846
     18 O3'         1.9175    0.2377    2.7247 O.3       1 GTP        -0.5819
     19 C2'         0.4468   -0.3802    0.9263 C.3       1 GTP         0.0567
     20 O2'         1.3993   -1.3703    0.5961 O.3       1 GTP        -0.5837
     21 C1'        -0.6159   -0.9100    1.8769 C.3       1 GTP         0.2547
     22 N9         -1.7127   -1.6108    1.2130 N.pl3     1 GTP        -0.2013
     23 C8         -2.8667   -1.0365    0.7385 C.ar      1 GTP         0.4384
     24 N7         -3.6757   -1.9196    0.1868 N.2       1 GTP        -0.6072
     25 C5         -3.0088   -3.1018    0.3164 C.ar      1 GTP         0.1855
     26 C6         -3.4148   -4.4130   -0.1079 C.ar      1 GTP         0.6502
     27 O6         -4.4753   -4.6480   -0.6732 O.2       1 GTP        -0.6193
     28 N1         -2.4377   -5.3653    0.2144 N.pl3     1 GTP        -0.5097
     29 C2         -1.2132   -5.0902    0.8680 C.ar      1 GTP         0.6454
     30 N2         -0.4066   -6.1772    1.0834 N.pl3     1 GTP        -0.8839
     31 N3         -0.8672   -3.8786    1.2457 N.2       1 GTP        -0.6390
     32 C4         -1.7966   -2.9451    0.9439 C.ar      1 GTP         0.0961
     33 HOB2       -0.2676    4.6362    5.5879 H         1 GTP         0.4357
     34 HOA2       -2.7946    5.3044    0.9091 H         1 GTP         0.4835
     35 H5'        -1.4794    1.9921    0.8142 H         1 GTP         0.0448
     36 H5''       -0.1361    3.1034    1.1867 H         1 GTP         0.0448
     37 H4'         0.0402    1.7079    3.4342 H         1 GTP         0.1246
     38 H3'         1.5907    1.4859    1.1353 H         1 GTP         0.0764
     39 HO3'        2.1521    0.9800    3.3017 H         1 GTP         0.4062
     40 H2'        -0.0017    0.0018    0.0005 H         1 GTP         0.0706
     41 HO2'        2.0953   -0.9375    0.0709 H         1 GTP         0.4064
     42 H1'        -0.1998   -1.6319    2.6178 H         1 GTP         0.1053
     43 H8         -3.0589    0.0244    0.8247 H         1 GTP         0.0995
     44 HN1        -2.6238   -6.3307   -0.0420 H         1 GTP         0.3262
     45 HN21        0.4646   -6.0341    1.5394 H         1 GTP         0.4043
     46 HN22       -0.7235   -7.0673    0.7753 H         1 GTP         0.4043
@<TRIPOS>BOND
     1    1    2 2
     2    1    3 1
     3    1    4 1
     4    1    5 1
     5    5    6 1
     6    6    7 2
     7    6    8 1
     8    6    9 1
     9    8   33 1
    10    9   10 1
    11   10   11 2
    12   10   12 1
    13   10   13 1
    14   12   34 1
    15   13   14 1
    16   14   15 1
    17   14   35 1
    18   14   36 1
    19   15   16 1
    20   15   17 1
    21   15   37 1
    22   16   21 1
    23   17   18 1
    24   17   19 1
    25   17   38 1
    26   18   39 1
    27   19   20 1
    28   19   21 1
    29   19   40 1
    30   20   41 1
    31   21   22 1
    32   21   42 1
    33   22   23 ar
    34   22   32 ar
    35   23   24 ar
    36   23   43 1
    37   24   25 ar
    38   25   26 ar
    39   25   32 ar
    40   26   27 2
    41   26   28 ar
    42   28   29 ar
    43   28   44 1
    44   29   30 1
    45   29   31 ar
    46   30   45 1
    47   30   46 1
    48   31   32 ar
@<TRIPOS>SUBSTRUCTURE
     1 GTP         1 GROUP 0 A     ****
@<TRIPOS>MOLECULE
[[[5-(2-amino-6-oxo-1~{H}-purin-9-yl)-3,4-dihydroxy-tetrahydrofuran-2-yl]methoxy-hydroxy-phosphoryl]oxy-hydroxy-phosphoryl] phosphate
   46    48     1     0     0
SMALL
USER_CHARGES

@<TRIPOS>ATOM
      1 PG          0.4095    7.7788    3.3850 P.3       1 GTP         1.3594
      2 O1G         1.5235    6.8477    3.8521 O.co2     1 GTP        -0.8909
      3 O2G        -0.5092    8.2685    4.4994 O.co2     1 GTP        -0.8909
      4 O3G         0.8686    8.8727    2.4265 O.co2     1 GTP        -0.8909
      5 O3B        -0.5546    6.8196    2.4544 O.3       1 GTP        -0.7106
      6 PB         -0.2275    5.9811    1.1107 P.3       1 GTP         1.8242
      7 O1B         0.2475    6.8068   -0.0483 O.2       1 GTP        -0.9138
      8 O2B         0.8125    4.8522    1.6179 O.3       1 GTP        -0.7900
      9 O3A        -1.5923    5.1560    0.8546 O.3       1 GTP        -0.8086
     10 PA         -2.5921    4.4092    1.8820 P.3       1 GTP         1.7888
     11 O1A        -3.2000    5.3146    2.9137 O.2       1 GTP        -0.8200
     12 O2A        -3.6575    3.6739    0.9117 O.3       1 GTP        -0.8185
     13 O5'        -1.7334    3.1724    2.4742 O.3       1 GTP        -0.5679
     14 C5'        -0.8811    2.4285    1.6206 C.3       1 GTP         0.1794
     15 C4'        -0.1994    1.3333    2.4288 C.3       1 GTP         0.1313
     16 O4'        -1.1285    0.2356    2.5840 O.3       1 GTP        -0.3993
     17 C3'         1.0324    0.7610    1.7344 C.3       1 GTP         0.0846
     18 O3'         1.9175    0.2377    2.7247 O.3       1 GTP        -0.5819
     19 C2'         0.4468   -0.3802    0.9263 C.3       1 GTP         0.0567
     20 O2'         1.3993   -1.3703    0.5961 O.3       1 GTP        -0.5837
     21 C1'        -0.6159   -0.9100    1.8769 C.3       1 GTP         0.2547
     22 N9         -1.7127   -1.6108    1.2130 N.pl3     1 GTP        -0.2013
     23 C8         -2.5489   -1.0812    0.2607 C.ar      1 GTP         0.4384
     24 N7         -3.4468   -1.9516   -0.1576 N.2       1 GTP        -0.6072
     25 C5         -3.1696   -3.0787    0.5579 C.ar      1 GTP         0.1855
     26 C6         -3.8307   -4.3536    0.5166 C.ar      1 GTP         0.6502
     27 O6         -4.7841   -4.6033   -0.2101 O.2       1 GTP        -0.6193
     28 N1         -3.2356   -5.2522    1.4132 N.pl3     1 GTP        -0.5097
     29 C2         -2.1338   -4.9602    2.2517 C.ar      1 GTP         0.6454
     30 N2         -1.7156   -5.9923    3.0507 N.pl3     1 GTP        -0.8839
     31 N3         -1.5477   -3.7827    2.2686 N.2       1 GTP        -0.6390
     32 C4         -2.1070   -2.9013    1.4104 C.ar      1 GTP         0.0961
     33 HOB2        1.0957    4.1523    0.9917 H         1 GTP         0.4357
     34 HOA2       -4.3326    3.0836    1.3090 H         1 GTP         0.4835
     35 H5'        -1.4794    1.9921    0.8142 H         1 GTP         0.0448
     36 H5''       -0.1361    3.1034    1.1867 H         1 GTP         0.0448
     37 H4'         0.0402    1.7079    3.4342 H         1 GTP         0.1246
     38 H3'         1.5907    1.4859    1.1353 H         1 GTP         0.0764
     39 HO3'        2.6839   -0.1150    2.2479 H         1 GTP         0.4062
     40 H2'        -0.0017    0.0018    0.0005 H         1 GTP         0.0706
     41 HO2'        2.0953   -0.9375    0.0709 H         1 GTP         0.4064
     42 H1'        -0.1998   -1.6319    2.6178 H         1 GTP         0.1053
     43 H8         -2.4545   -0.0604   -0.0844 H         1 GTP         0.0995
     44 HN1        -3.6270   -6.1884    1.4651 H         1 GTP         0.3262
     45 HN21       -0.9445   -5.8354    3.6574 H         1 GTP         0.4043
     46 HN22       -2.1993   -6.8585    2.9930 H         1 GTP         0.4043
@<TRIPOS>BOND
     1    1    2 2
     2    1    3 1
     3    1    4 1
     4    1    5 1
     5    5    6 1
     6    6    7 2
     7    6    8 1
     8    6    9 1
     9    8   33 1
    10    9   10 1
    11   10   11 2
    12   10   12 1
    13   10   13 1
    14   12   34 1
    15   13   14 1
    16   14   15 1
    17   14   35 1
    18   14   36 1
    19   15   16 1
    20   15   17 1
    21   15   37 1
    22   16   21 1
    23   17   18 1
    24   17   19 1
    25   17   38 1
    26   18   39 1
    27   19   20 1
    28   19   21 1
    29   19   40 1
    30   20   41 1
    31   21   22 1
    32   21   42 1
    33   22   23 ar
    34   22   32 ar
    35   23   24 ar
    36   23   43 1
    37   24   25 ar
    38   25   26 ar
    39   25   32 ar
    40   26   27 2
    41   26   28 ar
    42   28   29 ar
    43   28   44 1
    44   29   30 1
    45   29   31 ar
    46   30   45 1
    47   30   46 1
    48   31   32 ar
@<TRIPOS>SUBSTRUCTURE
     1 GTP         1 GROUP 0 A     ****
@<TRIPOS>MOLECULE
[[[5-(2-amino-6-oxo-1~{H}-purin-9-yl)-3,4-dihydroxy-tetrahydrofuran-2-yl]methoxy-hydroxy-phosphoryl]oxy-hydroxy-phosphoryl] phosphate
   46    48     1     0     0
SMALL
USER_CHARGES

@<TRIPOS>ATOM
      1 PG         -4.2029    4.6293   -1.0892 P.3       1 GTP         1.3594
      2 O1G        -4.5857    3.8270   -2.3285 O.co2     1 GTP        -0.8909
      3 O2G        -5.2301    5.6787   -0.6776 O.co2     1 GTP        -0.8909
      4 O3G        -3.6749    3.7841    0.0653 O.co2     1 GTP        -0.8909
      5 O3B        -2.8922    5.5073   -1.5655 O.3       1 GTP        -0.7106
      6 PB         -1.4495    5.0329   -2.1216 P.3       1 GTP         1.8242
      7 O1B        -1.4952    4.2217   -3.3828 O.2       1 GTP        -0.9138
      8 O2B        -0.6162    6.4140   -2.2266 O.3       1 GTP        -0.7900
      9 O3A        -0.7948    4.2874   -0.8470 O.3       1 GTP        -0.8086
     10 PA         -0.4418    4.8275    0.6351 P.3       1 GTP         1.7888
     11 O1A         0.5363    5.9662    0.6563 O.2       1 GTP        -0.8200
     12 O2A        -1.8895    5.1640    1.2739 O.3       1 GTP        -0.8185
     13 O5'         0.0170    3.5129    1.4592 O.3       1 GTP        -0.5679
     14 C5'        -0.8811    2.4285    1.6206 C.3       1 GTP         0.1794
     15 C4'        -0.1994    1.3333    2.4288 C.3       1 GTP         0.1313
     16 O4'        -1.1285    0.2356    2.5840 O.3       1 GTP        -0.3993
     17 C3'         1.0324    0.7610    1.7344 C.3       1 GTP         0.0846
     18 O3'         1.9175    0.2377    2.7247 O.3       1 GTP        -0.5819
     19 C2'         0.4468   -0.3802    0.9263 C.3       1 GTP         0.0567
     20 O2'         1.3993   -1.3703    0.5961 O.3       1 GTP        -0.5837
     21 C1'        -0.6159   -0.9100    1.8769 C.3       1 GTP         0.2547
     22 N9         -1.7127   -1.6108    1.2130 N.pl3     1 GTP        -0.2013
     23 C8         -1.7695   -2.9586    0.9546 C.ar      1 GTP         0.4384
     24 N7         -2.8846   -3.3047    0.3416 N.2       1 GTP        -0.6072
     25 C5         -3.5626   -2.1296    0.2052 C.ar      1 GTP         0.1855
     26 C6         -4.8477   -1.8989   -0.3942 C.ar      1 GTP         0.6502
     27 O6         -5.5373   -2.7819   -0.8881 O.2       1 GTP        -0.6193
     28 N1         -5.1895   -0.5407   -0.3318 N.pl3     1 GTP        -0.5097
     29 C2         -4.3899    0.4774    0.2398 C.ar      1 GTP         0.6454
     30 N2         -4.9233    1.7390    0.1898 N.pl3     1 GTP        -0.8839
     31 N3         -3.2159    0.2369    0.7822 N.2       1 GTP        -0.6390
     32 C4         -2.8678   -1.0679    0.7322 C.ar      1 GTP         0.0961
     33 HOB2        0.3355    6.3774   -2.4613 H         1 GTP         0.4357
     34 HOA2       -1.9407    5.4416    2.2132 H         1 GTP         0.4835
     35 H5'        -1.7776    2.7841    2.1389 H         1 GTP         0.0448
     36 H5''       -1.1659    2.0533    0.6322 H         1 GTP         0.0448
     37 H4'         0.0402    1.7079    3.4342 H         1 GTP         0.1246
     38 H3'         1.5907    1.4859    1.1353 H         1 GTP         0.0764
     39 HO3'        2.6839   -0.1150    2.2479 H         1 GTP         0.4062
     40 H2'        -0.0017    0.0018    0.0005 H         1 GTP         0.0706
     41 HO2'        2.0953   -0.9375    0.0709 H         1 GTP         0.4064
     42 H1'        -0.1998   -1.6319    2.6178 H         1 GTP         0.1053
     43 H8         -0.9713   -3.6323    1.2352 H         1 GTP         0.0995
     44 HN1        -6.0831   -0.2651   -0.7290 H         1 GTP         0.3262
     45 HN21       -4.3984    2.4878    0.5788 H         1 GTP         0.4043
     46 HN22       -5.8145    1.8572   -0.2335 H         1 GTP         0.4043
@<TRIPOS>BOND
     1    1    2 2
     2    1    3 1
     3    1    4 1
     4    1    5 1
     5    5    6 1
     6    6    7 2
     7    6    8 1
     8    6    9 1
     9    8   33 1
    10    9   10 1
    11   10   11 2
    12   10   12 1
    13   10   13 1
    14   12   34 1
    15   13   14 1
    16   14   15 1
    17   14   35 1
    18   14   36 1
    19   15   16 1
    20   15   17 1
    21   15   37 1
    22   16   21 1
    23   17   18 1
    24   17   19 1
    25   17   38 1
    26   18   39 1
    27   19   20 1
    28   19   21 1
    29   19   40 1
    30   20   41 1
    31   21   22 1
    32   21   42 1
    33   22   23 ar
    34   22   32 ar
    35   23   24 ar
    36   23   43 1
    37   24   25 ar
    38   25   26 ar
    39   25   32 ar
    40   26   27 2
    41   26   28 ar
    42   28   29 ar
    43   28   44 1
    44   29   30 1
    45   29   31 ar
    46   30   45 1
    47   30   46 1
    48   31   32 ar
@<TRIPOS>SUBSTRUCTURE
     1 GTP         1 GROUP 0 A     ****
