@<TRIPOS>MOLECULE
[[[5-(2-amino-6-oxo-1~{H}-purin-9-yl)-3,4-dihydroxy-tetrahydrofuran-2-yl]methoxy-oxido-phosphoryl]oxy-oxido-phosphoryl] hydrogen phosphate
   45    47     1     0     0
SMALL
USER_CHARGES

@<TRIPOS>ATOM
      1 PG          4.5660   31.3910   21.6350 P.3       1 GTP         1.5228
      2 O1G         4.6130   31.9070   23.0690 O.2       1 GTP        -0.8714
      3 O2G         3.8920   32.3190   20.6310 O.3       1 GTP        -0.8714
      4 O3G         4.1430   30.0120   21.6130 O.3       1 GTP        -0.7959
      5 O3B         6.1600   31.3600   21.2280 O.3       1 GTP        -0.8082
      6 PB          6.8770   31.2020   19.7450 P.3       1 GTP         1.6812
      7 O1B         7.0790   29.7090   19.4730 O.2       1 GTP        -0.8917
      8 O2B         6.1250   31.9700   18.7490 O.3       1 GTP        -0.8917
      9 O3A         8.2510   31.8900   20.0030 O.3       1 GTP        -0.8102
     10 PA          8.8460   33.2610   19.4110 P.3       1 GTP         1.5867
     11 O1A         8.8880   33.2560   17.9570 O.2       1 GTP        -0.8903
     12 O2A         8.1050   34.3980   20.1290 O.3       1 GTP        -0.8903
     13 O5'        10.4300   33.1530   19.9000 O.3       1 GTP        -0.5659
     14 C5'        10.5490   33.0440   21.3780 C.3       1 GTP         0.2075
     15 C4'        12.0460   33.6180   21.4740 C.3       1 GTP         0.0711
     16 O4'        13.0520   32.8300   20.8180 O.3       1 GTP        -0.3828
     17 C3'        12.3070   34.9690   21.0570 C.3       1 GTP         0.1239
     18 O3'        13.1090   35.6720   21.9710 O.3       1 GTP        -0.5948
     19 C2'        12.8390   34.9710   19.5930 C.3       1 GTP         0.0992
     20 O2'        13.6720   35.9610   19.3550 O.3       1 GTP        -0.5581
     21 C1'        13.8460   33.6220   19.9270 C.3       1 GTP         0.2079
     22 N9         14.0010   32.8330   18.6490 N.pl3     1 GTP        -0.1849
     23 C8         12.9340   32.4520   17.8480 C.ar      1 GTP         0.4580
     24 N7         13.6400   31.7980   16.8990 N.ar      1 GTP        -0.6226
     25 C5         15.0290   31.8890   17.0010 C.ar      1 GTP         0.1948
     26 C6         15.8990   31.3940   16.2380 C.ar      1 GTP         0.6506
     27 O6         15.9820   30.6800   15.1910 O.2       1 GTP        -0.6356
     28 N1         17.2740   31.6280   16.8000 N.am      1 GTP        -0.5114
     29 C2         17.3040   32.2950   17.8960 C.ar      1 GTP         0.6162
     30 N2         18.6770   32.4500   18.4750 N.pl3     1 GTP        -0.8702
     31 N3         16.3840   32.7360   18.7390 N.ar      1 GTP        -0.6353
     32 C4         15.2180   32.5170   18.1350 C.ar      1 GTP         0.0575
     33 HOG3        3.1013   29.7523   21.8527 H         1 GTP         0.4111
     34 H5'         9.7718   33.6593   21.8548 H         1 GTP         0.0400
     35 H5''       10.4216   31.9939   21.6797 H         1 GTP         0.0400
     36 H4'        12.2583   33.6282   22.5533 H         1 GTP         0.0912
     37 H3'        11.3699   35.5332   21.1732 H         1 GTP         0.0525
     38 HO3'       12.8165   35.7279   23.0299 H         1 GTP         0.4397
     39 H2'        12.1431   35.1631   18.7630 H         1 GTP         0.0466
     40 HO2'       13.2830   36.9601   19.1092 H         1 GTP         0.3827
     41 H1'        14.8453   33.7628   20.3647 H         1 GTP         0.0814
     42 H8         11.8730   32.6240   17.9510 H         1 GTP         0.1214
     43 HN1        18.1572   31.2365   16.2739 H         1 GTP         0.3192
     44 HN21       19.5568   32.1296   17.8977 H         1 GTP         0.3896
     45 HN22       18.8054   32.8843   19.4775 H         1 GTP         0.3896
@<TRIPOS>BOND
     1    1    2 2
     2    1    3 1
     3    1    4 1
     4    1    5 1
     5    4   33 1
     6    5    6 1
     7    6    7 2
     8    6    8 1
     9    6    9 1
    10    9   10 1
    11   10   11 2
    12   10   12 1
    13   10   13 1
    14   13   14 1
    15   14   15 1
    16   14   34 1
    17   14   35 1
    18   15   16 1
    19   15   17 1
    20   15   36 1
    21   16   21 1
    22   17   18 1
    23   17   19 1
    24   17   37 1
    25   18   38 1
    26   19   20 1
    27   19   21 1
    28   19   39 1
    29   20   40 1
    30   21   22 1
    31   21   41 1
    32   22   23 ar
    33   22   32 ar
    34   23   24 ar
    35   23   42 1
    36   24   25 ar
    37   25   26 ar
    38   25   32 ar
    39   26   27 2
    40   26   28 ar
    41   28   29 ar
    42   28   43 1
    43   29   30 1
    44   29   31 ar
    45   30   44 1
    46   30   45 1
    47   31   32 ar
@<TRIPOS>SUBSTRUCTURE
     1 GTP         1 GROUP   0 A     ****
@<TRIPOS>MOLECULE
[[[5-(2-amino-6-oxo-7,8-dihydro-1~{H}-purin-8-ylium-9-yl)-3,4-dihydroxy-tetrahydrofuran-2-yl]methoxy-oxido-phosphoryl]oxy-oxido-phosphoryl] hydrogen phosphate
   46    48     1     0     0
SMALL
USER_CHARGES

@<TRIPOS>ATOM
      1 PG          4.5660   31.3910   21.6350 P.3       1 GTP         1.5273
      2 O1G         4.6130   31.9070   23.0690 O.2       1 GTP        -0.8680
      3 O2G         3.8920   32.3190   20.6310 O.3       1 GTP        -0.8680
      4 O3G         4.1430   30.0120   21.6130 O.3       1 GTP        -0.7889
      5 O3B         6.1600   31.3600   21.2280 O.3       1 GTP        -0.8015
      6 PB          6.8770   31.2020   19.7450 P.3       1 GTP         1.6698
      7 O1B         7.0790   29.7090   19.4730 O.2       1 GTP        -0.8793
      8 O2B         6.1250   31.9700   18.7490 O.3       1 GTP        -0.8793
      9 O3A         8.2510   31.8900   20.0030 O.3       1 GTP        -0.8000
     10 PA          8.8460   33.2610   19.4110 P.3       1 GTP         1.6021
     11 O1A         8.8880   33.2560   17.9570 O.2       1 GTP        -0.8888
     12 O2A         8.1050   34.3980   20.1290 O.3       1 GTP        -0.8888
     13 O5'        10.4300   33.1530   19.9000 O.3       1 GTP        -0.5507
     14 C5'        10.5490   33.0440   21.3780 C.3       1 GTP         0.2774
     15 C4'        12.0460   33.6180   21.4740 C.3       1 GTP        -0.0321
     16 O4'        13.0520   32.8300   20.8180 O.3       1 GTP        -0.3637
     17 C3'        12.3070   34.9690   21.0570 C.3       1 GTP         0.1680
     18 O3'        13.1090   35.6720   21.9710 O.3       1 GTP        -0.5928
     19 C2'        12.8390   34.9710   19.5930 C.3       1 GTP         0.0791
     20 O2'        13.6720   35.9610   19.3550 O.3       1 GTP        -0.5228
     21 C1'        13.8460   33.6220   19.9270 C.3       1 GTP         0.3739
     22 N9         14.0010   32.8330   18.6490 N.pl3     1 GTP        -0.4384
     23 C8         12.9340   32.4520   17.8480 C.cat     1 GTP         0.2720
     24 N7         13.6400   31.7980   16.8990 N.pl3     1 GTP        -0.4906
     25 C5         15.0290   31.8890   17.0010 C.ar      1 GTP        -0.1889
     26 C6         15.8990   31.3940   16.2380 C.ar      1 GTP         0.7578
     27 O6         15.9820   30.6800   15.1910 O.2       1 GTP        -0.6016
     28 N1         17.2740   31.6280   16.8000 N.am      1 GTP        -0.5079
     29 C2         17.3040   32.2950   17.8960 C.ar      1 GTP         0.7410
     30 N2         18.6770   32.4500   18.4750 N.pl3     1 GTP        -0.9330
     31 N3         16.3840   32.7360   18.7390 N.ar      1 GTP        -0.6643
     32 C4         15.2180   32.5170   18.1350 C.ar      1 GTP         0.3528
     33 HOG3        3.1013   29.7523   21.8527 H         1 GTP         0.4074
     34 H5'         9.7718   33.6593   21.8548 H         1 GTP        -0.0088
     35 H5''       10.4216   31.9939   21.6797 H         1 GTP        -0.0088
     36 H4'        12.2583   33.6282   22.5533 H         1 GTP         0.2206
     37 H3'        11.3699   35.5332   21.1732 H         1 GTP         0.0179
     38 HO3'       12.8165   35.7279   23.0299 H         1 GTP         0.4927
     39 H2'        12.1431   35.1631   18.7630 H         1 GTP         0.0367
     40 HO2'       13.2830   36.9601   19.1092 H         1 GTP         0.3817
     41 H1'        14.8453   33.7628   20.3647 H         1 GTP         0.1084
     42 H8         11.8730   32.6240   17.9510 H         1 GTP         0.3054
     43 HN1        18.1572   31.2365   16.2739 H         1 GTP         0.3402
     44 HN21       19.5568   32.1296   17.8977 H         1 GTP         0.4621
     45 HN22       18.8054   32.8843   19.4775 H         1 GTP         0.4621
     46 H46        13.1150   31.2389   16.1105 H         1 GTP         0.5111
@<TRIPOS>BOND
     1    1    2 2
     2    1    3 1
     3    1    4 1
     4    1    5 1
     5    4   33 1
     6    5    6 1
     7    6    7 2
     8    6    8 1
     9    6    9 1
    10    9   10 1
    11   10   11 2
    12   10   12 1
    13   10   13 1
    14   13   14 1
    15   14   15 1
    16   14   34 1
    17   14   35 1
    18   15   16 1
    19   15   17 1
    20   15   36 1
    21   16   21 1
    22   17   18 1
    23   17   19 1
    24   17   37 1
    25   18   38 1
    26   19   20 1
    27   19   21 1
    28   19   39 1
    29   20   40 1
    30   21   22 1
    31   21   41 1
    32   22   23 ar
    33   22   32 ar
    34   23   24 ar
    35   23   42 1
    36   24   25 ar
    37   24   46 1
    38   25   26 ar
    39   25   32 ar
    40   26   27 2
    41   26   28 ar
    42   28   29 ar
    43   28   43 1
    44   29   30 1
    45   29   31 ar
    46   30   44 1
    47   30   45 1
    48   31   32 ar
@<TRIPOS>SUBSTRUCTURE
     1 GTP         1 GROUP   0 A     ****
@<TRIPOS>MOLECULE
[[[5-(2-amino-6-oxo-1~{H}-purin-9-yl)-3,4-dihydroxy-tetrahydrofuran-2-yl]methoxy-oxido-phosphoryl]oxy-hydroxy-phosphoryl] hydrogen phosphate
   46    48     1     0     0
SMALL
USER_CHARGES

@<TRIPOS>ATOM
      1 PG          4.5660   31.3910   21.6350 P.3       1 GTP         1.5474
      2 O1G         4.6130   31.9070   23.0690 O.2       1 GTP        -0.8408
      3 O2G         3.8920   32.3190   20.6310 O.3       1 GTP        -0.8408
      4 O3G         4.1430   30.0120   21.6130 O.3       1 GTP        -0.7852
      5 O3B         6.1600   31.3600   21.2280 O.3       1 GTP        -0.7929
      6 PB          6.8770   31.2020   19.7450 P.3       1 GTP         1.8944
      7 O1B         7.0790   29.7090   19.4730 O.2       1 GTP        -0.8887
      8 O2B         6.1250   31.9700   18.7490 O.3       1 GTP        -0.8083
      9 O3A         8.2510   31.8900   20.0030 O.3       1 GTP        -0.8228
     10 PA          8.8460   33.2610   19.4110 P.3       1 GTP         1.5791
     11 O1A         8.8880   33.2560   17.9570 O.2       1 GTP        -0.8540
     12 O2A         8.1050   34.3980   20.1290 O.3       1 GTP        -0.8540
     13 O5'        10.4300   33.1530   19.9000 O.3       1 GTP        -0.5814
     14 C5'        10.5490   33.0440   21.3780 C.3       1 GTP         0.1906
     15 C4'        12.0460   33.6180   21.4740 C.3       1 GTP         0.1271
     16 O4'        13.0520   32.8300   20.8180 O.3       1 GTP        -0.4208
     17 C3'        12.3070   34.9690   21.0570 C.3       1 GTP         0.0947
     18 O3'        13.1090   35.6720   21.9710 O.3       1 GTP        -0.5894
     19 C2'        12.8390   34.9710   19.5930 C.3       1 GTP         0.0559
     20 O2'        13.6720   35.9610   19.3550 O.3       1 GTP        -0.5911
     21 C1'        13.8460   33.6220   19.9270 C.3       1 GTP         0.2543
     22 N9         14.0010   32.8330   18.6490 N.pl3     1 GTP        -0.1946
     23 C8         12.9340   32.4520   17.8480 C.ar      1 GTP         0.4410
     24 N7         13.6400   31.7980   16.8990 N.ar      1 GTP        -0.6126
     25 C5         15.0290   31.8890   17.0010 C.ar      1 GTP         0.1838
     26 C6         15.8990   31.3940   16.2380 C.ar      1 GTP         0.6514
     27 O6         15.9820   30.6800   15.1910 O.2       1 GTP        -0.6267
     28 N1         17.2740   31.6280   16.8000 N.am      1 GTP        -0.5116
     29 C2         17.3040   32.2950   17.8960 C.ar      1 GTP         0.6419
     30 N2         18.6770   32.4500   18.4750 N.pl3     1 GTP        -0.8867
     31 N3         16.3840   32.7360   18.7390 N.ar      1 GTP        -0.6340
     32 C4         15.2180   32.5170   18.1350 C.ar      1 GTP         0.0913
     33 HOG3        3.1013   29.7523   21.8527 H         1 GTP         0.4182
     34 HOB2        5.1247   31.6353   18.4370 H         1 GTP         0.4672
     35 H5'         9.7718   33.6593   21.8548 H         1 GTP         0.0361
     36 H5''       10.4216   31.9939   21.6797 H         1 GTP         0.0361
     37 H4'        12.2583   33.6282   22.5533 H         1 GTP         0.1087
     38 H3'        11.3699   35.5332   21.1732 H         1 GTP         0.1067
     39 HO3'       12.8165   35.7279   23.0299 H         1 GTP         0.3987
     40 H2'        12.1431   35.1631   18.7630 H         1 GTP         0.0728
     41 HO2'       13.2830   36.9601   19.1092 H         1 GTP         0.4043
     42 H1'        14.8453   33.7628   20.3647 H         1 GTP         0.1028
     43 H8         11.8730   32.6240   17.9510 H         1 GTP         0.1016
     44 HN1        18.1572   31.2365   16.2739 H         1 GTP         0.3221
     45 HN21       19.5568   32.1296   17.8977 H         1 GTP         0.4041
     46 HN22       18.8054   32.8843   19.4775 H         1 GTP         0.4041
@<TRIPOS>BOND
     1    1    2 2
     2    1    3 1
     3    1    4 1
     4    1    5 1
     5    4   33 1
     6    5    6 1
     7    6    7 2
     8    6    8 1
     9    6    9 1
    10    8   34 1
    11    9   10 1
    12   10   11 2
    13   10   12 1
    14   10   13 1
    15   13   14 1
    16   14   15 1
    17   14   35 1
    18   14   36 1
    19   15   16 1
    20   15   17 1
    21   15   37 1
    22   16   21 1
    23   17   18 1
    24   17   19 1
    25   17   38 1
    26   18   39 1
    27   19   20 1
    28   19   21 1
    29   19   40 1
    30   20   41 1
    31   21   22 1
    32   21   42 1
    33   22   23 ar
    34   22   32 ar
    35   23   24 ar
    36   23   43 1
    37   24   25 ar
    38   25   26 ar
    39   25   32 ar
    40   26   27 2
    41   26   28 ar
    42   28   29 ar
    43   28   44 1
    44   29   30 1
    45   29   31 ar
    46   30   45 1
    47   30   46 1
    48   31   32 ar
@<TRIPOS>SUBSTRUCTURE
     1 GTP         1 GROUP   0 A     ****
@<TRIPOS>MOLECULE
[[[5-(2-amino-6-oxo-1~{H}-purin-9-yl)-3,4-dihydroxy-tetrahydrofuran-2-yl]methoxy-hydroxy-phosphoryl]oxy-oxido-phosphoryl] hydrogen phosphate
   46    48     1     0     0
SMALL
USER_CHARGES

@<TRIPOS>ATOM
      1 PG          4.5660   31.3910   21.6350 P.3       1 GTP         1.5363
      2 O1G         4.6130   31.9070   23.0690 O.2       1 GTP        -0.8566
      3 O2G         3.8920   32.3190   20.6310 O.3       1 GTP        -0.8566
      4 O3G         4.1430   30.0120   21.6130 O.3       1 GTP        -0.7893
      5 O3B         6.1600   31.3600   21.2280 O.3       1 GTP        -0.7982
      6 PB          6.8770   31.2020   19.7450 P.3       1 GTP         1.6601
      7 O1B         7.0790   29.7090   19.4730 O.2       1 GTP        -0.8525
      8 O2B         6.1250   31.9700   18.7490 O.3       1 GTP        -0.8525
      9 O3A         8.2510   31.8900   20.0030 O.3       1 GTP        -0.7681
     10 PA          8.8460   33.2610   19.4110 P.3       1 GTP         1.7563
     11 O1A         8.8880   33.2560   17.9570 O.2       1 GTP        -0.8738
     12 O2A         8.1050   34.3980   20.1290 O.3       1 GTP        -0.8087
     13 O5'        10.4300   33.1530   19.9000 O.3       1 GTP        -0.5694
     14 C5'        10.5490   33.0440   21.3780 C.3       1 GTP         0.1784
     15 C4'        12.0460   33.6180   21.4740 C.3       1 GTP         0.1227
     16 O4'        13.0520   32.8300   20.8180 O.3       1 GTP        -0.4029
     17 C3'        12.3070   34.9690   21.0570 C.3       1 GTP         0.0842
     18 O3'        13.1090   35.6720   21.9710 O.3       1 GTP        -0.5935
     19 C2'        12.8390   34.9710   19.5930 C.3       1 GTP         0.0585
     20 O2'        13.6720   35.9610   19.3550 O.3       1 GTP        -0.5928
     21 C1'        13.8460   33.6220   19.9270 C.3       1 GTP         0.2511
     22 N9         14.0010   32.8330   18.6490 N.pl3     1 GTP        -0.1961
     23 C8         12.9340   32.4520   17.8480 C.ar      1 GTP         0.4358
     24 N7         13.6400   31.7980   16.8990 N.ar      1 GTP        -0.6016
     25 C5         15.0290   31.8890   17.0010 C.ar      1 GTP         0.1846
     26 C6         15.8990   31.3940   16.2380 C.ar      1 GTP         0.6506
     27 O6         15.9820   30.6800   15.1910 O.2       1 GTP        -0.6212
     28 N1         17.2740   31.6280   16.8000 N.am      1 GTP        -0.5117
     29 C2         17.3040   32.2950   17.8960 C.ar      1 GTP         0.6483
     30 N2         18.6770   32.4500   18.4750 N.pl3     1 GTP        -0.8842
     31 N3         16.3840   32.7360   18.7390 N.ar      1 GTP        -0.6436
     32 C4         15.2180   32.5170   18.1350 C.ar      1 GTP         0.1019
     33 HOG3        3.1013   29.7523   21.8527 H         1 GTP         0.4195
     34 HOA2        7.0451   34.5904   19.9065 H         1 GTP         0.4560
     35 H5'         9.7718   33.6593   21.8548 H         1 GTP         0.0515
     36 H5''       10.4216   31.9939   21.6797 H         1 GTP         0.0515
     37 H4'        12.2583   33.6282   22.5533 H         1 GTP         0.1156
     38 H3'        11.3699   35.5332   21.1732 H         1 GTP         0.0808
     39 HO3'       12.8165   35.7279   23.0299 H         1 GTP         0.4068
     40 H2'        12.1431   35.1631   18.7630 H         1 GTP         0.0751
     41 HO2'       13.2830   36.9601   19.1092 H         1 GTP         0.4103
     42 H1'        14.8453   33.7628   20.3647 H         1 GTP         0.1073
     43 H8         11.8730   32.6240   17.9510 H         1 GTP         0.0977
     44 HN1        18.1572   31.2365   16.2739 H         1 GTP         0.3238
     45 HN21       19.5568   32.1296   17.8977 H         1 GTP         0.4044
     46 HN22       18.8054   32.8843   19.4775 H         1 GTP         0.4044
@<TRIPOS>BOND
     1    1    2 2
     2    1    3 1
     3    1    4 1
     4    1    5 1
     5    4   33 1
     6    5    6 1
     7    6    7 2
     8    6    8 1
     9    6    9 1
    10    9   10 1
    11   10   11 2
    12   10   12 1
    13   10   13 1
    14   12   34 1
    15   13   14 1
    16   14   15 1
    17   14   35 1
    18   14   36 1
    19   15   16 1
    20   15   17 1
    21   15   37 1
    22   16   21 1
    23   17   18 1
    24   17   19 1
    25   17   38 1
    26   18   39 1
    27   19   20 1
    28   19   21 1
    29   19   40 1
    30   20   41 1
    31   21   22 1
    32   21   42 1
    33   22   23 ar
    34   22   32 ar
    35   23   24 ar
    36   23   43 1
    37   24   25 ar
    38   25   26 ar
    39   25   32 ar
    40   26   27 2
    41   26   28 ar
    42   28   29 ar
    43   28   44 1
    44   29   30 1
    45   29   31 ar
    46   30   45 1
    47   30   46 1
    48   31   32 ar
@<TRIPOS>SUBSTRUCTURE
     1 GTP         1 GROUP   0 A     ****
@<TRIPOS>MOLECULE
[[[5-(2-amino-6-oxo-7,8-dihydro-1~{H}-purin-8-ylium-9-yl)-3,4-dihydroxy-tetrahydrofuran-2-yl]methoxy-hydroxy-phosphoryl]oxy-oxido-phosphoryl] hydrogen phosphate
   47    49     1     0     0
SMALL
USER_CHARGES

@<TRIPOS>ATOM
      1 PG          4.5660   31.3910   21.6350 P.3       1 GTP         1.5557
      2 O1G         4.6130   31.9070   23.0690 O.2       1 GTP        -0.8594
      3 O2G         3.8920   32.3190   20.6310 O.3       1 GTP        -0.8594
      4 O3G         4.1430   30.0120   21.6130 O.3       1 GTP        -0.7961
      5 O3B         6.1600   31.3600   21.2280 O.3       1 GTP        -0.8124
      6 PB          6.8770   31.2020   19.7450 P.3       1 GTP         1.6700
      7 O1B         7.0790   29.7090   19.4730 O.2       1 GTP        -0.8598
      8 O2B         6.1250   31.9700   18.7490 O.3       1 GTP        -0.8598
      9 O3A         8.2510   31.8900   20.0030 O.3       1 GTP        -0.7849
     10 PA          8.8460   33.2610   19.4110 P.3       1 GTP         1.7536
     11 O1A         8.8880   33.2560   17.9570 O.2       1 GTP        -0.8355
     12 O2A         8.1050   34.3980   20.1290 O.3       1 GTP        -0.8395
     13 O5'        10.4300   33.1530   19.9000 O.3       1 GTP        -0.5709
     14 C5'        10.5490   33.0440   21.3780 C.3       1 GTP         0.2053
     15 C4'        12.0460   33.6180   21.4740 C.3       1 GTP         0.1059
     16 O4'        13.0520   32.8300   20.8180 O.3       1 GTP        -0.3730
     17 C3'        12.3070   34.9690   21.0570 C.3       1 GTP         0.0773
     18 O3'        13.1090   35.6720   21.9710 O.3       1 GTP        -0.5667
     19 C2'        12.8390   34.9710   19.5930 C.3       1 GTP         0.0787
     20 O2'        13.6720   35.9610   19.3550 O.3       1 GTP        -0.5799
     21 C1'        13.8460   33.6220   19.9270 C.3       1 GTP         0.3823
     22 N9         14.0010   32.8330   18.6490 N.pl3     1 GTP        -0.4525
     23 C8         12.9340   32.4520   17.8480 C.cat     1 GTP         0.2707
     24 N7         13.6400   31.7980   16.8990 N.pl3     1 GTP        -0.4657
     25 C5         15.0290   31.8890   17.0010 C.ar      1 GTP        -0.1892
     26 C6         15.8990   31.3940   16.2380 C.ar      1 GTP         0.7571
     27 O6         15.9820   30.6800   15.1910 O.2       1 GTP        -0.5801
     28 N1         17.2740   31.6280   16.8000 N.am      1 GTP        -0.5039
     29 C2         17.3040   32.2950   17.8960 C.ar      1 GTP         0.7462
     30 N2         18.6770   32.4500   18.4750 N.pl3     1 GTP        -0.9131
     31 N3         16.3840   32.7360   18.7390 N.ar      1 GTP        -0.6657
     32 C4         15.2180   32.5170   18.1350 C.ar      1 GTP         0.3640
     33 HOG3        3.1013   29.7523   21.8527 H         1 GTP         0.4400
     34 HOA2        7.0451   34.5904   19.9065 H         1 GTP         0.4860
     35 H5'         9.7718   33.6593   21.8548 H         1 GTP         0.0480
     36 H5''       10.4216   31.9939   21.6797 H         1 GTP         0.0480
     37 H4'        12.2583   33.6282   22.5533 H         1 GTP         0.1192
     38 H3'        11.3699   35.5332   21.1732 H         1 GTP         0.0726
     39 HO3'       12.8165   35.7279   23.0299 H         1 GTP         0.4230
     40 H2'        12.1431   35.1631   18.7630 H         1 GTP         0.0853
     41 HO2'       13.2830   36.9601   19.1092 H         1 GTP         0.4400
     42 H1'        14.8453   33.7628   20.3647 H         1 GTP         0.1367
     43 H8         11.8730   32.6240   17.9510 H         1 GTP         0.3022
     44 HN1        18.1572   31.2365   16.2739 H         1 GTP         0.3500
     45 HN21       19.5568   32.1296   17.8977 H         1 GTP         0.4636
     46 HN22       18.8054   32.8843   19.4775 H         1 GTP         0.4636
     47 H47        13.1150   31.2389   16.1105 H         1 GTP         0.5222
@<TRIPOS>BOND
     1    1    2 2
     2    1    3 1
     3    1    4 1
     4    1    5 1
     5    4   33 1
     6    5    6 1
     7    6    7 2
     8    6    8 1
     9    6    9 1
    10    9   10 1
    11   10   11 2
    12   10   12 1
    13   10   13 1
    14   12   34 1
    15   13   14 1
    16   14   15 1
    17   14   35 1
    18   14   36 1
    19   15   16 1
    20   15   17 1
    21   15   37 1
    22   16   21 1
    23   17   18 1
    24   17   19 1
    25   17   38 1
    26   18   39 1
    27   19   20 1
    28   19   21 1
    29   19   40 1
    30   20   41 1
    31   21   22 1
    32   21   42 1
    33   22   23 ar
    34   22   32 ar
    35   23   24 ar
    36   23   43 1
    37   24   25 ar
    38   24   47 1
    39   25   26 ar
    40   25   32 ar
    41   26   27 2
    42   26   28 ar
    43   28   29 ar
    44   28   44 1
    45   29   30 1
    46   29   31 ar
    47   30   45 1
    48   30   46 1
    49   31   32 ar
@<TRIPOS>SUBSTRUCTURE
     1 GTP         1 GROUP   0 A     ****
@<TRIPOS>MOLECULE
[[5-(2-amino-6-oxo-1~{H}-purin-9-yl)-3,4-dihydroxy-tetrahydrofuran-2-yl]methoxy-oxido-phosphoryl] phosphono phosphate
   46    48     1     0     0
SMALL
USER_CHARGES

@<TRIPOS>ATOM
      1 PG          4.5660   31.3910   21.6350 P.3       1 GTP         1.7203
      2 O1G         4.6130   31.9070   23.0690 O.2       1 GTP        -0.8559
      3 O2G         3.8920   32.3190   20.6310 O.3       1 GTP        -0.7821
      4 O3G         4.1430   30.0120   21.6130 O.3       1 GTP        -0.7821
      5 O3B         6.1600   31.3600   21.2280 O.3       1 GTP        -0.7979
      6 PB          6.8770   31.2020   19.7450 P.3       1 GTP         1.6835
      7 O1B         7.0790   29.7090   19.4730 O.2       1 GTP        -0.8592
      8 O2B         6.1250   31.9700   18.7490 O.3       1 GTP        -0.8592
      9 O3A         8.2510   31.8900   20.0030 O.3       1 GTP        -0.8127
     10 PA          8.8460   33.2610   19.4110 P.3       1 GTP         1.5920
     11 O1A         8.8880   33.2560   17.9570 O.2       1 GTP        -0.8683
     12 O2A         8.1050   34.3980   20.1290 O.3       1 GTP        -0.8683
     13 O5'        10.4300   33.1530   19.9000 O.3       1 GTP        -0.5780
     14 C5'        10.5490   33.0440   21.3780 C.3       1 GTP         0.1863
     15 C4'        12.0460   33.6180   21.4740 C.3       1 GTP         0.1202
     16 O4'        13.0520   32.8300   20.8180 O.3       1 GTP        -0.4277
     17 C3'        12.3070   34.9690   21.0570 C.3       1 GTP         0.0916
     18 O3'        13.1090   35.6720   21.9710 O.3       1 GTP        -0.5919
     19 C2'        12.8390   34.9710   19.5930 C.3       1 GTP         0.0586
     20 O2'        13.6720   35.9610   19.3550 O.3       1 GTP        -0.5974
     21 C1'        13.8460   33.6220   19.9270 C.3       1 GTP         0.2513
     22 N9         14.0010   32.8330   18.6490 N.pl3     1 GTP        -0.1883
     23 C8         12.9340   32.4520   17.8480 C.ar      1 GTP         0.4368
     24 N7         13.6400   31.7980   16.8990 N.ar      1 GTP        -0.6095
     25 C5         15.0290   31.8890   17.0010 C.ar      1 GTP         0.1848
     26 C6         15.8990   31.3940   16.2380 C.ar      1 GTP         0.6503
     27 O6         15.9820   30.6800   15.1910 O.2       1 GTP        -0.6273
     28 N1         17.2740   31.6280   16.8000 N.am      1 GTP        -0.5113
     29 C2         17.3040   32.2950   17.8960 C.ar      1 GTP         0.6403
     30 N2         18.6770   32.4500   18.4750 N.pl3     1 GTP        -0.8861
     31 N3         16.3840   32.7360   18.7390 N.ar      1 GTP        -0.6368
     32 C4         15.2180   32.5170   18.1350 C.ar      1 GTP         0.0966
     33 HOG2        2.8098   32.5054   20.6948 H         1 GTP         0.4658
     34 HOG3        3.1013   29.7523   21.8527 H         1 GTP         0.4658
     35 H5'         9.7718   33.6593   21.8548 H         1 GTP         0.0418
     36 H5''       10.4216   31.9939   21.6797 H         1 GTP         0.0418
     37 H4'        12.2583   33.6282   22.5533 H         1 GTP         0.0971
     38 H3'        11.3699   35.5332   21.1732 H         1 GTP         0.1074
     39 HO3'       12.8165   35.7279   23.0299 H         1 GTP         0.3937
     40 H2'        12.1431   35.1631   18.7630 H         1 GTP         0.0805
     41 HO2'       13.2830   36.9601   19.1092 H         1 GTP         0.4056
     42 H1'        14.8453   33.7628   20.3647 H         1 GTP         0.1030
     43 H8         11.8730   32.6240   17.9510 H         1 GTP         0.0981
     44 HN1        18.1572   31.2365   16.2739 H         1 GTP         0.3231
     45 HN21       19.5568   32.1296   17.8977 H         1 GTP         0.4017
     46 HN22       18.8054   32.8843   19.4775 H         1 GTP         0.4017
@<TRIPOS>BOND
     1    1    2 2
     2    1    3 1
     3    1    4 1
     4    1    5 1
     5    3   33 1
     6    4   34 1
     7    5    6 1
     8    6    7 2
     9    6    8 1
    10    6    9 1
    11    9   10 1
    12   10   11 2
    13   10   12 1
    14   10   13 1
    15   13   14 1
    16   14   15 1
    17   14   35 1
    18   14   36 1
    19   15   16 1
    20   15   17 1
    21   15   37 1
    22   16   21 1
    23   17   18 1
    24   17   19 1
    25   17   38 1
    26   18   39 1
    27   19   20 1
    28   19   21 1
    29   19   40 1
    30   20   41 1
    31   21   22 1
    32   21   42 1
    33   22   23 ar
    34   22   32 ar
    35   23   24 ar
    36   23   43 1
    37   24   25 ar
    38   25   26 ar
    39   25   32 ar
    40   26   27 2
    41   26   28 ar
    42   28   29 ar
    43   28   44 1
    44   29   30 1
    45   29   31 ar
    46   30   45 1
    47   30   46 1
    48   31   32 ar
@<TRIPOS>SUBSTRUCTURE
     1 GTP         1 GROUP   0 A     ****
@<TRIPOS>MOLECULE
[[5-(2-amino-6-oxo-7,8-dihydro-1~{H}-purin-8-ylium-9-yl)-3,4-dihydroxy-tetrahydrofuran-2-yl]methoxy-oxido-phosphoryl] phosphono phosphate
   47    49     1     0     0
SMALL
USER_CHARGES

@<TRIPOS>ATOM
      1 PG          4.5660   31.3910   21.6350 P.3       1 GTP         1.7261
      2 O1G         4.6130   31.9070   23.0690 O.2       1 GTP        -0.8898
      3 O2G         3.8920   32.3190   20.6310 O.3       1 GTP        -0.7738
      4 O3G         4.1430   30.0120   21.6130 O.3       1 GTP        -0.7738
      5 O3B         6.1600   31.3600   21.2280 O.3       1 GTP        -0.7736
      6 PB          6.8770   31.2020   19.7450 P.3       1 GTP         1.6716
      7 O1B         7.0790   29.7090   19.4730 O.2       1 GTP        -0.8368
      8 O2B         6.1250   31.9700   18.7490 O.3       1 GTP        -0.8368
      9 O3A         8.2510   31.8900   20.0030 O.3       1 GTP        -0.8171
     10 PA          8.8460   33.2610   19.4110 P.3       1 GTP         1.5822
     11 O1A         8.8880   33.2560   17.9570 O.2       1 GTP        -0.8662
     12 O2A         8.1050   34.3980   20.1290 O.3       1 GTP        -0.8662
     13 O5'        10.4300   33.1530   19.9000 O.3       1 GTP        -0.5593
     14 C5'        10.5490   33.0440   21.3780 C.3       1 GTP         0.1985
     15 C4'        12.0460   33.6180   21.4740 C.3       1 GTP         0.0806
     16 O4'        13.0520   32.8300   20.8180 O.3       1 GTP        -0.3954
     17 C3'        12.3070   34.9690   21.0570 C.3       1 GTP         0.0793
     18 O3'        13.1090   35.6720   21.9710 O.3       1 GTP        -0.6300
     19 C2'        12.8390   34.9710   19.5930 C.3       1 GTP         0.1207
     20 O2'        13.6720   35.9610   19.3550 O.3       1 GTP        -0.5848
     21 C1'        13.8460   33.6220   19.9270 C.3       1 GTP         0.3806
     22 N9         14.0010   32.8330   18.6490 N.pl3     1 GTP        -0.4392
     23 C8         12.9340   32.4520   17.8480 C.cat     1 GTP         0.2822
     24 N7         13.6400   31.7980   16.8990 N.pl3     1 GTP        -0.4745
     25 C5         15.0290   31.8890   17.0010 C.ar      1 GTP        -0.1870
     26 C6         15.8990   31.3940   16.2380 C.ar      1 GTP         0.7566
     27 O6         15.9820   30.6800   15.1910 O.2       1 GTP        -0.5896
     28 N1         17.2740   31.6280   16.8000 N.am      1 GTP        -0.5001
     29 C2         17.3040   32.2950   17.8960 C.ar      1 GTP         0.7264
     30 N2         18.6770   32.4500   18.4750 N.pl3     1 GTP        -0.9007
     31 N3         16.3840   32.7360   18.7390 N.ar      1 GTP        -0.6529
     32 C4         15.2180   32.5170   18.1350 C.ar      1 GTP         0.3646
     33 HOG2        2.8098   32.5054   20.6948 H         1 GTP         0.4579
     34 HOG3        3.1013   29.7523   21.8527 H         1 GTP         0.4579
     35 H5'         9.7718   33.6593   21.8548 H         1 GTP         0.0262
     36 H5''       10.4216   31.9939   21.6797 H         1 GTP         0.0262
     37 H4'        12.2583   33.6282   22.5533 H         1 GTP         0.1235
     38 H3'        11.3699   35.5332   21.1732 H         1 GTP         0.1088
     39 HO3'       12.8165   35.7279   23.0299 H         1 GTP         0.4383
     40 H2'        12.1431   35.1631   18.7630 H         1 GTP         0.1002
     41 HO2'       13.2830   36.9601   19.1092 H         1 GTP         0.4366
     42 H1'        14.8453   33.7628   20.3647 H         1 GTP         0.1195
     43 H8         11.8730   32.6240   17.9510 H         1 GTP         0.3189
     44 HN1        18.1572   31.2365   16.2739 H         1 GTP         0.3469
     45 HN21       19.5568   32.1296   17.8977 H         1 GTP         0.4488
     46 HN22       18.8054   32.8843   19.4775 H         1 GTP         0.4488
     47 H47        13.1150   31.2389   16.1105 H         1 GTP         0.5195
@<TRIPOS>BOND
     1    1    2 2
     2    1    3 1
     3    1    4 1
     4    1    5 1
     5    3   33 1
     6    4   34 1
     7    5    6 1
     8    6    7 2
     9    6    8 1
    10    6    9 1
    11    9   10 1
    12   10   11 2
    13   10   12 1
    14   10   13 1
    15   13   14 1
    16   14   15 1
    17   14   35 1
    18   14   36 1
    19   15   16 1
    20   15   17 1
    21   15   37 1
    22   16   21 1
    23   17   18 1
    24   17   19 1
    25   17   38 1
    26   18   39 1
    27   19   20 1
    28   19   21 1
    29   19   40 1
    30   20   41 1
    31   21   22 1
    32   21   42 1
    33   22   23 ar
    34   22   32 ar
    35   23   24 ar
    36   23   43 1
    37   24   25 ar
    38   24   47 1
    39   25   26 ar
    40   25   32 ar
    41   26   27 2
    42   26   28 ar
    43   28   29 ar
    44   28   44 1
    45   29   30 1
    46   29   31 ar
    47   30   45 1
    48   30   46 1
    49   31   32 ar
@<TRIPOS>SUBSTRUCTURE
     1 GTP         1 GROUP   0 A     ****
@<TRIPOS>MOLECULE
[[[5-(2-amino-6-oxo-7,8-dihydro-1~{H}-purin-8-ylium-9-yl)-3,4-dihydroxy-tetrahydrofuran-2-yl]methoxy-oxido-phosphoryl]oxy-hydroxy-phosphoryl] hydrogen phosphate
   47    49     1     0     0
SMALL
USER_CHARGES

@<TRIPOS>ATOM
      1 PG          4.5660   31.3910   21.6350 P.3       1 GTP         1.5468
      2 O1G         4.6130   31.9070   23.0690 O.2       1 GTP        -0.8391
      3 O2G         3.8920   32.3190   20.6310 O.3       1 GTP        -0.8391
      4 O3G         4.1430   30.0120   21.6130 O.3       1 GTP        -0.7844
      5 O3B         6.1600   31.3600   21.2280 O.3       1 GTP        -0.8186
      6 PB          6.8770   31.2020   19.7450 P.3       1 GTP         1.8985
      7 O1B         7.0790   29.7090   19.4730 O.2       1 GTP        -0.8874
      8 O2B         6.1250   31.9700   18.7490 O.3       1 GTP        -0.8102
      9 O3A         8.2510   31.8900   20.0030 O.3       1 GTP        -0.8070
     10 PA          8.8460   33.2610   19.4110 P.3       1 GTP         1.5917
     11 O1A         8.8880   33.2560   17.9570 O.2       1 GTP        -0.8542
     12 O2A         8.1050   34.3980   20.1290 O.3       1 GTP        -0.8542
     13 O5'        10.4300   33.1530   19.9000 O.3       1 GTP        -0.5682
     14 C5'        10.5490   33.0440   21.3780 C.3       1 GTP         0.1985
     15 C4'        12.0460   33.6180   21.4740 C.3       1 GTP         0.1208
     16 O4'        13.0520   32.8300   20.8180 O.3       1 GTP        -0.4184
     17 C3'        12.3070   34.9690   21.0570 C.3       1 GTP         0.1354
     18 O3'        13.1090   35.6720   21.9710 O.3       1 GTP        -0.5766
     19 C2'        12.8390   34.9710   19.5930 C.3       1 GTP         0.0632
     20 O2'        13.6720   35.9610   19.3550 O.3       1 GTP        -0.5699
     21 C1'        13.8460   33.6220   19.9270 C.3       1 GTP         0.3876
     22 N9         14.0010   32.8330   18.6490 N.pl3     1 GTP        -0.4459
     23 C8         12.9340   32.4520   17.8480 C.cat     1 GTP         0.2787
     24 N7         13.6400   31.7980   16.8990 N.pl3     1 GTP        -0.4713
     25 C5         15.0290   31.8890   17.0010 C.ar      1 GTP        -0.1878
     26 C6         15.8990   31.3940   16.2380 C.ar      1 GTP         0.7576
     27 O6         15.9820   30.6800   15.1910 O.2       1 GTP        -0.5817
     28 N1         17.2740   31.6280   16.8000 N.am      1 GTP        -0.5050
     29 C2         17.3040   32.2950   17.8960 C.ar      1 GTP         0.7493
     30 N2         18.6770   32.4500   18.4750 N.pl3     1 GTP        -0.9184
     31 N3         16.3840   32.7360   18.7390 N.ar      1 GTP        -0.6759
     32 C4         15.2180   32.5170   18.1350 C.ar      1 GTP         0.3582
     33 HOG3        3.1013   29.7523   21.8527 H         1 GTP         0.4311
     34 HOB2        5.1247   31.6353   18.4370 H         1 GTP         0.4785
     35 H5'         9.7718   33.6593   21.8548 H         1 GTP         0.0276
     36 H5''       10.4216   31.9939   21.6797 H         1 GTP         0.0276
     37 H4'        12.2583   33.6282   22.5533 H         1 GTP         0.1275
     38 H3'        11.3699   35.5332   21.1732 H         1 GTP         0.1242
     39 HO3'       12.8165   35.7279   23.0299 H         1 GTP         0.4144
     40 H2'        12.1431   35.1631   18.7630 H         1 GTP         0.0685
     41 HO2'       13.2830   36.9601   19.1092 H         1 GTP         0.4043
     42 H1'        14.8453   33.7628   20.3647 H         1 GTP         0.1222
     43 H8         11.8730   32.6240   17.9510 H         1 GTP         0.3023
     44 HN1        18.1572   31.2365   16.2739 H         1 GTP         0.3504
     45 HN21       19.5568   32.1296   17.8977 H         1 GTP         0.4648
     46 HN22       18.8054   32.8843   19.4775 H         1 GTP         0.4648
     47 H47        13.1150   31.2389   16.1105 H         1 GTP         0.5191
@<TRIPOS>BOND
     1    1    2 2
     2    1    3 1
     3    1    4 1
     4    1    5 1
     5    4   33 1
     6    5    6 1
     7    6    7 2
     8    6    8 1
     9    6    9 1
    10    8   34 1
    11    9   10 1
    12   10   11 2
    13   10   12 1
    14   10   13 1
    15   13   14 1
    16   14   15 1
    17   14   35 1
    18   14   36 1
    19   15   16 1
    20   15   17 1
    21   15   37 1
    22   16   21 1
    23   17   18 1
    24   17   19 1
    25   17   38 1
    26   18   39 1
    27   19   20 1
    28   19   21 1
    29   19   40 1
    30   20   41 1
    31   21   22 1
    32   21   42 1
    33   22   23 ar
    34   22   32 ar
    35   23   24 ar
    36   23   43 1
    37   24   25 ar
    38   24   47 1
    39   25   26 ar
    40   25   32 ar
    41   26   27 2
    42   26   28 ar
    43   28   29 ar
    44   28   44 1
    45   29   30 1
    46   29   31 ar
    47   30   45 1
    48   30   46 1
    49   31   32 ar
@<TRIPOS>SUBSTRUCTURE
     1 GTP         1 GROUP   0 A     ****
@<TRIPOS>MOLECULE
[[5-(2-amino-6-oxo-1~{H}-purin-9-yl)-3,4-dihydroxy-tetrahydrofuran-2-yl]methoxy-hydroxy-phosphoryl] phosphono phosphate
   47    49     1     0     0
SMALL
USER_CHARGES

@<TRIPOS>ATOM
      1 PG          4.5660   31.3910   21.6350 P.3       1 GTP         1.7726
      2 O1G         4.6130   31.9070   23.0690 O.2       1 GTP        -0.8358
      3 O2G         3.8920   32.3190   20.6310 O.3       1 GTP        -0.8038
      4 O3G         4.1430   30.0120   21.6130 O.3       1 GTP        -0.8038
      5 O3B         6.1600   31.3600   21.2280 O.3       1 GTP        -0.8034
      6 PB          6.8770   31.2020   19.7450 P.3       1 GTP         1.6792
      7 O1B         7.0790   29.7090   19.4730 O.2       1 GTP        -0.8271
      8 O2B         6.1250   31.9700   18.7490 O.3       1 GTP        -0.8271
      9 O3A         8.2510   31.8900   20.0030 O.3       1 GTP        -0.8069
     10 PA          8.8460   33.2610   19.4110 P.3       1 GTP         1.7768
     11 O1A         8.8880   33.2560   17.9570 O.2       1 GTP        -0.8343
     12 O2A         8.1050   34.3980   20.1290 O.3       1 GTP        -0.8186
     13 O5'        10.4300   33.1530   19.9000 O.3       1 GTP        -0.5608
     14 C5'        10.5490   33.0440   21.3780 C.3       1 GTP         0.1742
     15 C4'        12.0460   33.6180   21.4740 C.3       1 GTP         0.1002
     16 O4'        13.0520   32.8300   20.8180 O.3       1 GTP        -0.3967
     17 C3'        12.3070   34.9690   21.0570 C.3       1 GTP         0.0774
     18 O3'        13.1090   35.6720   21.9710 O.3       1 GTP        -0.5834
     19 C2'        12.8390   34.9710   19.5930 C.3       1 GTP         0.0650
     20 O2'        13.6720   35.9610   19.3550 O.3       1 GTP        -0.5835
     21 C1'        13.8460   33.6220   19.9270 C.3       1 GTP         0.2509
     22 N9         14.0010   32.8330   18.6490 N.pl3     1 GTP        -0.2084
     23 C8         12.9340   32.4520   17.8480 C.ar      1 GTP         0.4323
     24 N7         13.6400   31.7980   16.8990 N.ar      1 GTP        -0.5966
     25 C5         15.0290   31.8890   17.0010 C.ar      1 GTP         0.1857
     26 C6         15.8990   31.3940   16.2380 C.ar      1 GTP         0.6501
     27 O6         15.9820   30.6800   15.1910 O.2       1 GTP        -0.6093
     28 N1         17.2740   31.6280   16.8000 N.am      1 GTP        -0.5084
     29 C2         17.3040   32.2950   17.8960 C.ar      1 GTP         0.6571
     30 N2         18.6770   32.4500   18.4750 N.pl3     1 GTP        -0.8813
     31 N3         16.3840   32.7360   18.7390 N.ar      1 GTP        -0.6506
     32 C4         15.2180   32.5170   18.1350 C.ar      1 GTP         0.1027
     33 HOG2        2.8098   32.5054   20.6948 H         1 GTP         0.4845
     34 HOG3        3.1013   29.7523   21.8527 H         1 GTP         0.4845
     35 HOA2        7.0451   34.5904   19.9065 H         1 GTP         0.4883
     36 H5'         9.7718   33.6593   21.8548 H         1 GTP         0.0503
     37 H5''       10.4216   31.9939   21.6797 H         1 GTP         0.0503
     38 H4'        12.2583   33.6282   22.5533 H         1 GTP         0.1039
     39 H3'        11.3699   35.5332   21.1732 H         1 GTP         0.1064
     40 HO3'       12.8165   35.7279   23.0299 H         1 GTP         0.4123
     41 H2'        12.1431   35.1631   18.7630 H         1 GTP         0.0749
     42 HO2'       13.2830   36.9601   19.1092 H         1 GTP         0.4176
     43 H1'        14.8453   33.7628   20.3647 H         1 GTP         0.1073
     44 H8         11.8730   32.6240   17.9510 H         1 GTP         0.0892
     45 HN1        18.1572   31.2365   16.2739 H         1 GTP         0.3290
     46 HN21       19.5568   32.1296   17.8977 H         1 GTP         0.4086
     47 HN22       18.8054   32.8843   19.4775 H         1 GTP         0.4086
@<TRIPOS>BOND
     1    1    2 2
     2    1    3 1
     3    1    4 1
     4    1    5 1
     5    3   33 1
     6    4   34 1
     7    5    6 1
     8    6    7 2
     9    6    8 1
    10    6    9 1
    11    9   10 1
    12   10   11 2
    13   10   12 1
    14   10   13 1
    15   12   35 1
    16   13   14 1
    17   14   15 1
    18   14   36 1
    19   14   37 1
    20   15   16 1
    21   15   17 1
    22   15   38 1
    23   16   21 1
    24   17   18 1
    25   17   19 1
    26   17   39 1
    27   18   40 1
    28   19   20 1
    29   19   21 1
    30   19   41 1
    31   20   42 1
    32   21   22 1
    33   21   43 1
    34   22   23 ar
    35   22   32 ar
    36   23   24 ar
    37   23   44 1
    38   24   25 ar
    39   25   26 ar
    40   25   32 ar
    41   26   27 2
    42   26   28 ar
    43   28   29 ar
    44   28   45 1
    45   29   30 1
    46   29   31 ar
    47   30   46 1
    48   30   47 1
    49   31   32 ar
@<TRIPOS>SUBSTRUCTURE
     1 GTP         1 GROUP   0 A     ****
@<TRIPOS>MOLECULE
[[[5-(2-amino-6-oxo-1~{H}-purin-9-yl)-3,4-dihydroxy-tetrahydrofuran-2-yl]methoxy-hydroxy-phosphoryl]oxy-hydroxy-phosphoryl] hydrogen phosphate
   47    49     1     0     0
SMALL
USER_CHARGES

@<TRIPOS>ATOM
      1 PG          4.5660   31.3910   21.6350 P.3       1 GTP         1.5520
      2 O1G         4.6130   31.9070   23.0690 O.2       1 GTP        -0.8221
      3 O2G         3.8920   32.3190   20.6310 O.3       1 GTP        -0.8221
      4 O3G         4.1430   30.0120   21.6130 O.3       1 GTP        -0.8029
      5 O3B         6.1600   31.3600   21.2280 O.3       1 GTP        -0.8058
      6 PB          6.8770   31.2020   19.7450 P.3       1 GTP         1.9233
      7 O1B         7.0790   29.7090   19.4730 O.2       1 GTP        -0.8711
      8 O2B         6.1250   31.9700   18.7490 O.3       1 GTP        -0.8077
      9 O3A         8.2510   31.8900   20.0030 O.3       1 GTP        -0.8229
     10 PA          8.8460   33.2610   19.4110 P.3       1 GTP         1.8065
     11 O1A         8.8880   33.2560   17.9570 O.2       1 GTP        -0.8090
     12 O2A         8.1050   34.3980   20.1290 O.3       1 GTP        -0.8163
     13 O5'        10.4300   33.1530   19.9000 O.3       1 GTP        -0.5708
     14 C5'        10.5490   33.0440   21.3780 C.3       1 GTP         0.1777
     15 C4'        12.0460   33.6180   21.4740 C.3       1 GTP         0.1242
     16 O4'        13.0520   32.8300   20.8180 O.3       1 GTP        -0.4053
     17 C3'        12.3070   34.9690   21.0570 C.3       1 GTP         0.0878
     18 O3'        13.1090   35.6720   21.9710 O.3       1 GTP        -0.5888
     19 C2'        12.8390   34.9710   19.5930 C.3       1 GTP         0.0610
     20 O2'        13.6720   35.9610   19.3550 O.3       1 GTP        -0.5830
     21 C1'        13.8460   33.6220   19.9270 C.3       1 GTP         0.2511
     22 N9         14.0010   32.8330   18.6490 N.pl3     1 GTP        -0.2064
     23 C8         12.9340   32.4520   17.8480 C.ar      1 GTP         0.4166
     24 N7         13.6400   31.7980   16.8990 N.ar      1 GTP        -0.5902
     25 C5         15.0290   31.8890   17.0010 C.ar      1 GTP         0.1778
     26 C6         15.8990   31.3940   16.2380 C.ar      1 GTP         0.6535
     27 O6         15.9820   30.6800   15.1910 O.2       1 GTP        -0.6064
     28 N1         17.2740   31.6280   16.8000 N.am      1 GTP        -0.5103
     29 C2         17.3040   32.2950   17.8960 C.ar      1 GTP         0.6697
     30 N2         18.6770   32.4500   18.4750 N.pl3     1 GTP        -0.8878
     31 N3         16.3840   32.7360   18.7390 N.ar      1 GTP        -0.6611
     32 C4         15.2180   32.5170   18.1350 C.ar      1 GTP         0.1249
     33 HOG3        3.1013   29.7523   21.8527 H         1 GTP         0.4315
     34 HOB2        5.1247   31.6353   18.4370 H         1 GTP         0.4884
     35 HOA2        7.0451   34.5904   19.9065 H         1 GTP         0.4962
     36 H5'         9.7718   33.6593   21.8548 H         1 GTP         0.0470
     37 H5''       10.4216   31.9939   21.6797 H         1 GTP         0.0470
     38 H4'        12.2583   33.6282   22.5533 H         1 GTP         0.1227
     39 H3'        11.3699   35.5332   21.1732 H         1 GTP         0.0755
     40 HO3'       12.8165   35.7279   23.0299 H         1 GTP         0.4184
     41 H2'        12.1431   35.1631   18.7630 H         1 GTP         0.0697
     42 HO2'       13.2830   36.9601   19.1092 H         1 GTP         0.4158
     43 H1'        14.8453   33.7628   20.3647 H         1 GTP         0.1172
     44 H8         11.8730   32.6240   17.9510 H         1 GTP         0.0747
     45 HN1        18.1572   31.2365   16.2739 H         1 GTP         0.3305
     46 HN21       19.5568   32.1296   17.8977 H         1 GTP         0.4146
     47 HN22       18.8054   32.8843   19.4775 H         1 GTP         0.4146
@<TRIPOS>BOND
     1    1    2 2
     2    1    3 1
     3    1    4 1
     4    1    5 1
     5    4   33 1
     6    5    6 1
     7    6    7 2
     8    6    8 1
     9    6    9 1
    10    8   34 1
    11    9   10 1
    12   10   11 2
    13   10   12 1
    14   10   13 1
    15   12   35 1
    16   13   14 1
    17   14   15 1
    18   14   36 1
    19   14   37 1
    20   15   16 1
    21   15   17 1
    22   15   38 1
    23   16   21 1
    24   17   18 1
    25   17   19 1
    26   17   39 1
    27   18   40 1
    28   19   20 1
    29   19   21 1
    30   19   41 1
    31   20   42 1
    32   21   22 1
    33   21   43 1
    34   22   23 ar
    35   22   32 ar
    36   23   24 ar
    37   23   44 1
    38   24   25 ar
    39   25   26 ar
    40   25   32 ar
    41   26   27 2
    42   26   28 ar
    43   28   29 ar
    44   28   45 1
    45   29   30 1
    46   29   31 ar
    47   30   46 1
    48   30   47 1
    49   31   32 ar
@<TRIPOS>SUBSTRUCTURE
     1 GTP         1 GROUP   0 A     ****
@<TRIPOS>MOLECULE
[[5-(2-amino-6-oxo-7,8-dihydro-1~{H}-purin-8-ylium-9-yl)-3,4-dihydroxy-tetrahydrofuran-2-yl]methoxy-hydroxy-phosphoryl] phosphono phosphate
   48    50     1     0     0
SMALL
USER_CHARGES

@<TRIPOS>ATOM
      1 PG          4.5660   31.3910   21.6350 P.3       1 GTP         1.7664
      2 O1G         4.6130   31.9070   23.0690 O.2       1 GTP        -0.8358
      3 O2G         3.8920   32.3190   20.6310 O.3       1 GTP        -0.7922
      4 O3G         4.1430   30.0120   21.6130 O.3       1 GTP        -0.7922
      5 O3B         6.1600   31.3600   21.2280 O.3       1 GTP        -0.8022
      6 PB          6.8770   31.2020   19.7450 P.3       1 GTP         1.6599
      7 O1B         7.0790   29.7090   19.4730 O.2       1 GTP        -0.8106
      8 O2B         6.1250   31.9700   18.7490 O.3       1 GTP        -0.8106
      9 O3A         8.2510   31.8900   20.0030 O.3       1 GTP        -0.8049
     10 PA          8.8460   33.2610   19.4110 P.3       1 GTP         1.7623
     11 O1A         8.8880   33.2560   17.9570 O.2       1 GTP        -0.8139
     12 O2A         8.1050   34.3980   20.1290 O.3       1 GTP        -0.8242
     13 O5'        10.4300   33.1530   19.9000 O.3       1 GTP        -0.5697
     14 C5'        10.5490   33.0440   21.3780 C.3       1 GTP         0.1859
     15 C4'        12.0460   33.6180   21.4740 C.3       1 GTP         0.1247
     16 O4'        13.0520   32.8300   20.8180 O.3       1 GTP        -0.3717
     17 C3'        12.3070   34.9690   21.0570 C.3       1 GTP         0.0839
     18 O3'        13.1090   35.6720   21.9710 O.3       1 GTP        -0.5691
     19 C2'        12.8390   34.9710   19.5930 C.3       1 GTP         0.0649
     20 O2'        13.6720   35.9610   19.3550 O.3       1 GTP        -0.5793
     21 C1'        13.8460   33.6220   19.9270 C.3       1 GTP         0.4162
     22 N9         14.0010   32.8330   18.6490 N.pl3     1 GTP        -0.4482
     23 C8         12.9340   32.4520   17.8480 C.cat     1 GTP         0.2580
     24 N7         13.6400   31.7980   16.8990 N.pl3     1 GTP        -0.4481
     25 C5         15.0290   31.8890   17.0010 C.ar      1 GTP        -0.2007
     26 C6         15.8990   31.3940   16.2380 C.ar      1 GTP         0.7591
     27 O6         15.9820   30.6800   15.1910 O.2       1 GTP        -0.5732
     28 N1         17.2740   31.6280   16.8000 N.am      1 GTP        -0.5020
     29 C2         17.3040   32.2950   17.8960 C.ar      1 GTP         0.7628
     30 N2         18.6770   32.4500   18.4750 N.pl3     1 GTP        -0.9133
     31 N3         16.3840   32.7360   18.7390 N.ar      1 GTP        -0.6726
     32 C4         15.2180   32.5170   18.1350 C.ar      1 GTP         0.3891
     33 HOG2        2.8098   32.5054   20.6948 H         1 GTP         0.4858
     34 HOG3        3.1013   29.7523   21.8527 H         1 GTP         0.4858
     35 HOA2        7.0451   34.5904   19.9065 H         1 GTP         0.4932
     36 H5'         9.7718   33.6593   21.8548 H         1 GTP         0.0374
     37 H5''       10.4216   31.9939   21.6797 H         1 GTP         0.0374
     38 H4'        12.2583   33.6282   22.5533 H         1 GTP         0.1365
     39 H3'        11.3699   35.5332   21.1732 H         1 GTP         0.0814
     40 HO3'       12.8165   35.7279   23.0299 H         1 GTP         0.4146
     41 H2'        12.1431   35.1631   18.7630 H         1 GTP         0.0589
     42 HO2'       13.2830   36.9601   19.1092 H         1 GTP         0.4240
     43 H1'        14.8453   33.7628   20.3647 H         1 GTP         0.1489
     44 H8         11.8730   32.6240   17.9510 H         1 GTP         0.2765
     45 HN1        18.1572   31.2365   16.2739 H         1 GTP         0.3546
     46 HN21       19.5568   32.1296   17.8977 H         1 GTP         0.4717
     47 HN22       18.8054   32.8843   19.4775 H         1 GTP         0.4717
     48 H48        13.1150   31.2389   16.1105 H         1 GTP         0.5231
@<TRIPOS>BOND
     1    1    2 2
     2    1    3 1
     3    1    4 1
     4    1    5 1
     5    3   33 1
     6    4   34 1
     7    5    6 1
     8    6    7 2
     9    6    8 1
    10    6    9 1
    11    9   10 1
    12   10   11 2
    13   10   12 1
    14   10   13 1
    15   12   35 1
    16   13   14 1
    17   14   15 1
    18   14   36 1
    19   14   37 1
    20   15   16 1
    21   15   17 1
    22   15   38 1
    23   16   21 1
    24   17   18 1
    25   17   19 1
    26   17   39 1
    27   18   40 1
    28   19   20 1
    29   19   21 1
    30   19   41 1
    31   20   42 1
    32   21   22 1
    33   21   43 1
    34   22   23 ar
    35   22   32 ar
    36   23   24 ar
    37   23   44 1
    38   24   25 ar
    39   24   48 1
    40   25   26 ar
    41   25   32 ar
    42   26   27 2
    43   26   28 ar
    44   28   29 ar
    45   28   45 1
    46   29   30 1
    47   29   31 ar
    48   30   46 1
    49   30   47 1
    50   31   32 ar
@<TRIPOS>SUBSTRUCTURE
     1 GTP         1 GROUP   0 A     ****
@<TRIPOS>MOLECULE
[5-(2-amino-6-oxo-1~{H}-purin-9-yl)-3,4-dihydroxy-tetrahydrofuran-2-yl]methyl [hydroxy(phosphonooxy)phosphoryl] phosphate
   47    49     1     0     0
SMALL
USER_CHARGES

@<TRIPOS>ATOM
      1 PG          4.5660   31.3910   21.6350 P.3       1 GTP         1.7837
      2 O1G         4.6130   31.9070   23.0690 O.2       1 GTP        -0.8343
      3 O2G         3.8920   32.3190   20.6310 O.3       1 GTP        -0.7803
      4 O3G         4.1430   30.0120   21.6130 O.3       1 GTP        -0.7803
      5 O3B         6.1600   31.3600   21.2280 O.3       1 GTP        -0.8168
      6 PB          6.8770   31.2020   19.7450 P.3       1 GTP         1.9023
      7 O1B         7.0790   29.7090   19.4730 O.2       1 GTP        -0.8436
      8 O2B         6.1250   31.9700   18.7490 O.3       1 GTP        -0.8235
      9 O3A         8.2510   31.8900   20.0030 O.3       1 GTP        -0.8078
     10 PA          8.8460   33.2610   19.4110 P.3       1 GTP         1.5633
     11 O1A         8.8880   33.2560   17.9570 O.2       1 GTP        -0.8230
     12 O2A         8.1050   34.3980   20.1290 O.3       1 GTP        -0.8230
     13 O5'        10.4300   33.1530   19.9000 O.3       1 GTP        -0.5898
     14 C5'        10.5490   33.0440   21.3780 C.3       1 GTP         0.1699
     15 C4'        12.0460   33.6180   21.4740 C.3       1 GTP         0.0968
     16 O4'        13.0520   32.8300   20.8180 O.3       1 GTP        -0.4242
     17 C3'        12.3070   34.9690   21.0570 C.3       1 GTP         0.0842
     18 O3'        13.1090   35.6720   21.9710 O.3       1 GTP        -0.6127
     19 C2'        12.8390   34.9710   19.5930 C.3       1 GTP         0.1125
     20 O2'        13.6720   35.9610   19.3550 O.3       1 GTP        -0.5801
     21 C1'        13.8460   33.6220   19.9270 C.3       1 GTP         0.2479
     22 N9         14.0010   32.8330   18.6490 N.pl3     1 GTP        -0.2011
     23 C8         12.9340   32.4520   17.8480 C.ar      1 GTP         0.4275
     24 N7         13.6400   31.7980   16.8990 N.ar      1 GTP        -0.6031
     25 C5         15.0290   31.8890   17.0010 C.ar      1 GTP         0.1782
     26 C6         15.8990   31.3940   16.2380 C.ar      1 GTP         0.6524
     27 O6         15.9820   30.6800   15.1910 O.2       1 GTP        -0.6183
     28 N1         17.2740   31.6280   16.8000 N.am      1 GTP        -0.5163
     29 C2         17.3040   32.2950   17.8960 C.ar      1 GTP         0.6653
     30 N2         18.6770   32.4500   18.4750 N.pl3     1 GTP        -0.8974
     31 N3         16.3840   32.7360   18.7390 N.ar      1 GTP        -0.6439
     32 C4         15.2180   32.5170   18.1350 C.ar      1 GTP         0.1120
     33 HOG2        2.8098   32.5054   20.6948 H         1 GTP         0.4954
     34 HOG3        3.1013   29.7523   21.8527 H         1 GTP         0.4954
     35 HOB2        5.1247   31.6353   18.4370 H         1 GTP         0.4887
     36 H5'         9.7718   33.6593   21.8548 H         1 GTP         0.0534
     37 H5''       10.4216   31.9939   21.6797 H         1 GTP         0.0534
     38 H4'        12.2583   33.6282   22.5533 H         1 GTP         0.0790
     39 H3'        11.3699   35.5332   21.1732 H         1 GTP         0.0865
     40 HO3'       12.8165   35.7279   23.0299 H         1 GTP         0.4215
     41 H2'        12.1431   35.1631   18.7630 H         1 GTP         0.0785
     42 HO2'       13.2830   36.9601   19.1092 H         1 GTP         0.4213
     43 H1'        14.8453   33.7628   20.3647 H         1 GTP         0.1087
     44 H8         11.8730   32.6240   17.9510 H         1 GTP         0.0862
     45 HN1        18.1572   31.2365   16.2739 H         1 GTP         0.3255
     46 HN21       19.5568   32.1296   17.8977 H         1 GTP         0.4151
     47 HN22       18.8054   32.8843   19.4775 H         1 GTP         0.4151
@<TRIPOS>BOND
     1    1    2 2
     2    1    3 1
     3    1    4 1
     4    1    5 1
     5    3   33 1
     6    4   34 1
     7    5    6 1
     8    6    7 2
     9    6    8 1
    10    6    9 1
    11    8   35 1
    12    9   10 1
    13   10   11 2
    14   10   12 1
    15   10   13 1
    16   13   14 1
    17   14   15 1
    18   14   36 1
    19   14   37 1
    20   15   16 1
    21   15   17 1
    22   15   38 1
    23   16   21 1
    24   17   18 1
    25   17   19 1
    26   17   39 1
    27   18   40 1
    28   19   20 1
    29   19   21 1
    30   19   41 1
    31   20   42 1
    32   21   22 1
    33   21   43 1
    34   22   23 ar
    35   22   32 ar
    36   23   24 ar
    37   23   44 1
    38   24   25 ar
    39   25   26 ar
    40   25   32 ar
    41   26   27 2
    42   26   28 ar
    43   28   29 ar
    44   28   45 1
    45   29   30 1
    46   29   31 ar
    47   30   46 1
    48   30   47 1
    49   31   32 ar
@<TRIPOS>SUBSTRUCTURE
     1 GTP         1 GROUP   0 A     ****
@<TRIPOS>MOLECULE
[[[5-(2-amino-6-oxo-1~{H}-purin-9-yl)-3,4-dihydroxy-tetrahydrofuran-2-yl]methoxy-oxido-phosphoryl]oxy-hydroxy-phosphoryl] phosphate
   45    47     1     0     0
SMALL
USER_CHARGES

@<TRIPOS>ATOM
      1 PG          4.5660   31.3910   21.6350 P.3       1 GTP         1.4135
      2 O1G         4.6130   31.9070   23.0690 O.2       1 GTP        -0.9287
      3 O2G         3.8920   32.3190   20.6310 O.3       1 GTP        -0.9287
      4 O3G         4.1430   30.0120   21.6130 O.3       1 GTP        -0.9287
      5 O3B         6.1600   31.3600   21.2280 O.3       1 GTP        -0.7688
      6 PB          6.8770   31.2020   19.7450 P.3       1 GTP         1.8803
      7 O1B         7.0790   29.7090   19.4730 O.2       1 GTP        -0.9490
      8 O2B         6.1250   31.9700   18.7490 O.3       1 GTP        -0.8024
      9 O3A         8.2510   31.8900   20.0030 O.3       1 GTP        -0.8185
     10 PA          8.8460   33.2610   19.4110 P.3       1 GTP         1.6070
     11 O1A         8.8880   33.2560   17.9570 O.2       1 GTP        -0.8710
     12 O2A         8.1050   34.3980   20.1290 O.3       1 GTP        -0.8710
     13 O5'        10.4300   33.1530   19.9000 O.3       1 GTP        -0.5602
     14 C5'        10.5490   33.0440   21.3780 C.3       1 GTP         0.2033
     15 C4'        12.0460   33.6180   21.4740 C.3       1 GTP         0.1113
     16 O4'        13.0520   32.8300   20.8180 O.3       1 GTP        -0.3741
     17 C3'        12.3070   34.9690   21.0570 C.3       1 GTP         0.0719
     18 O3'        13.1090   35.6720   21.9710 O.3       1 GTP        -0.5763
     19 C2'        12.8390   34.9710   19.5930 C.3       1 GTP         0.0663
     20 O2'        13.6720   35.9610   19.3550 O.3       1 GTP        -0.6025
     21 C1'        13.8460   33.6220   19.9270 C.3       1 GTP         0.2164
     22 N9         14.0010   32.8330   18.6490 N.pl3     1 GTP        -0.1876
     23 C8         12.9340   32.4520   17.8480 C.ar      1 GTP         0.4559
     24 N7         13.6400   31.7980   16.8990 N.ar      1 GTP        -0.6183
     25 C5         15.0290   31.8890   17.0010 C.ar      1 GTP         0.1956
     26 C6         15.8990   31.3940   16.2380 C.ar      1 GTP         0.6474
     27 O6         15.9820   30.6800   15.1910 O.2       1 GTP        -0.6356
     28 N1         17.2740   31.6280   16.8000 N.am      1 GTP        -0.5045
     29 C2         17.3040   32.2950   17.8960 C.ar      1 GTP         0.6089
     30 N2         18.6770   32.4500   18.4750 N.pl3     1 GTP        -0.8726
     31 N3         16.3840   32.7360   18.7390 N.ar      1 GTP        -0.6214
     32 C4         15.2180   32.5170   18.1350 C.ar      1 GTP         0.0602
     33 HOB2        5.1247   31.6353   18.4370 H         1 GTP         0.4180
     34 H5'         9.7718   33.6593   21.8548 H         1 GTP         0.0430
     35 H5''       10.4216   31.9939   21.6797 H         1 GTP         0.0430
     36 H4'        12.2583   33.6282   22.5533 H         1 GTP         0.0885
     37 H3'        11.3699   35.5332   21.1732 H         1 GTP         0.0713
     38 HO3'       12.8165   35.7279   23.0299 H         1 GTP         0.3971
     39 H2'        12.1431   35.1631   18.7630 H         1 GTP         0.0765
     40 HO2'       13.2830   36.9601   19.1092 H         1 GTP         0.4245
     41 H1'        14.8453   33.7628   20.3647 H         1 GTP         0.0973
     42 H8         11.8730   32.6240   17.9510 H         1 GTP         0.1260
     43 HN1        18.1572   31.2365   16.2739 H         1 GTP         0.3201
     44 HN21       19.5568   32.1296   17.8977 H         1 GTP         0.3883
     45 HN22       18.8054   32.8843   19.4775 H         1 GTP         0.3883
@<TRIPOS>BOND
     1    1    2 2
     2    1    3 1
     3    1    4 1
     4    1    5 1
     5    5    6 1
     6    6    7 2
     7    6    8 1
     8    6    9 1
     9    8   33 1
    10    9   10 1
    11   10   11 2
    12   10   12 1
    13   10   13 1
    14   13   14 1
    15   14   15 1
    16   14   34 1
    17   14   35 1
    18   15   16 1
    19   15   17 1
    20   15   36 1
    21   16   21 1
    22   17   18 1
    23   17   19 1
    24   17   37 1
    25   18   38 1
    26   19   20 1
    27   19   21 1
    28   19   39 1
    29   20   40 1
    30   21   22 1
    31   21   41 1
    32   22   23 ar
    33   22   32 ar
    34   23   24 ar
    35   23   42 1
    36   24   25 ar
    37   25   26 ar
    38   25   32 ar
    39   26   27 2
    40   26   28 ar
    41   28   29 ar
    42   28   43 1
    43   29   30 1
    44   29   31 ar
    45   30   44 1
    46   30   45 1
    47   31   32 ar
@<TRIPOS>SUBSTRUCTURE
     1 GTP         1 GROUP   0 A     ****
@<TRIPOS>MOLECULE
[[[5-(2-amino-6-oxo-7,8-dihydro-1~{H}-purin-8-ylium-9-yl)-3,4-dihydroxy-tetrahydrofuran-2-yl]methoxy-hydroxy-phosphoryl]oxy-hydroxy-phosphoryl] hydrogen phosphate
   48    50     1     0     0
SMALL
USER_CHARGES

@<TRIPOS>ATOM
      1 PG          4.5660   31.3910   21.6350 P.3       1 GTP         1.5447
      2 O1G         4.6130   31.9070   23.0690 O.2       1 GTP        -0.8127
      3 O2G         3.8920   32.3190   20.6310 O.3       1 GTP        -0.8127
      4 O3G         4.1430   30.0120   21.6130 O.3       1 GTP        -0.8049
      5 O3B         6.1600   31.3600   21.2280 O.3       1 GTP        -0.8003
      6 PB          6.8770   31.2020   19.7450 P.3       1 GTP         1.9111
      7 O1B         7.0790   29.7090   19.4730 O.2       1 GTP        -0.8562
      8 O2B         6.1250   31.9700   18.7490 O.3       1 GTP        -0.8098
      9 O3A         8.2510   31.8900   20.0030 O.3       1 GTP        -0.8079
     10 PA          8.8460   33.2610   19.4110 P.3       1 GTP         1.8071
     11 O1A         8.8880   33.2560   17.9570 O.2       1 GTP        -0.8181
     12 O2A         8.1050   34.3980   20.1290 O.3       1 GTP        -0.8246
     13 O5'        10.4300   33.1530   19.9000 O.3       1 GTP        -0.5611
     14 C5'        10.5490   33.0440   21.3780 C.3       1 GTP         0.1851
     15 C4'        12.0460   33.6180   21.4740 C.3       1 GTP         0.1234
     16 O4'        13.0520   32.8300   20.8180 O.3       1 GTP        -0.3908
     17 C3'        12.3070   34.9690   21.0570 C.3       1 GTP         0.1334
     18 O3'        13.1090   35.6720   21.9710 O.3       1 GTP        -0.5682
     19 C2'        12.8390   34.9710   19.5930 C.3       1 GTP         0.0664
     20 O2'        13.6720   35.9610   19.3550 O.3       1 GTP        -0.5641
     21 C1'        13.8460   33.6220   19.9270 C.3       1 GTP         0.3775
     22 N9         14.0010   32.8330   18.6490 N.pl3     1 GTP        -0.4532
     23 C8         12.9340   32.4520   17.8480 C.cat     1 GTP         0.2478
     24 N7         13.6400   31.7980   16.8990 N.pl3     1 GTP        -0.4455
     25 C5         15.0290   31.8890   17.0010 C.ar      1 GTP        -0.2021
     26 C6         15.8990   31.3940   16.2380 C.ar      1 GTP         0.7587
     27 O6         15.9820   30.6800   15.1910 O.2       1 GTP        -0.5658
     28 N1         17.2740   31.6280   16.8000 N.am      1 GTP        -0.5023
     29 C2         17.3040   32.2950   17.8960 C.ar      1 GTP         0.7668
     30 N2         18.6770   32.4500   18.4750 N.pl3     1 GTP        -0.9081
     31 N3         16.3840   32.7360   18.7390 N.ar      1 GTP        -0.6810
     32 C4         15.2180   32.5170   18.1350 C.ar      1 GTP         0.3822
     33 HOG3        3.1013   29.7523   21.8527 H         1 GTP         0.4378
     34 HOB2        5.1247   31.6353   18.4370 H         1 GTP         0.4940
     35 HOA2        7.0451   34.5904   19.9065 H         1 GTP         0.4843
     36 H5'         9.7718   33.6593   21.8548 H         1 GTP         0.0446
     37 H5''       10.4216   31.9939   21.6797 H         1 GTP         0.0446
     38 H4'        12.2583   33.6282   22.5533 H         1 GTP         0.1473
     39 H3'        11.3699   35.5332   21.1732 H         1 GTP         0.0863
     40 HO3'       12.8165   35.7279   23.0299 H         1 GTP         0.4307
     41 H2'        12.1431   35.1631   18.7630 H         1 GTP         0.0558
     42 HO2'       13.2830   36.9601   19.1092 H         1 GTP         0.4175
     43 H1'        14.8453   33.7628   20.3647 H         1 GTP         0.1450
     44 H8         11.8730   32.6240   17.9510 H         1 GTP         0.2688
     45 HN1        18.1572   31.2365   16.2739 H         1 GTP         0.3574
     46 HN21       19.5568   32.1296   17.8977 H         1 GTP         0.4744
     47 HN22       18.8054   32.8843   19.4775 H         1 GTP         0.4744
     48 H48        13.1150   31.2389   16.1105 H         1 GTP         0.5229
@<TRIPOS>BOND
     1    1    2 2
     2    1    3 1
     3    1    4 1
     4    1    5 1
     5    4   33 1
     6    5    6 1
     7    6    7 2
     8    6    8 1
     9    6    9 1
    10    8   34 1
    11    9   10 1
    12   10   11 2
    13   10   12 1
    14   10   13 1
    15   12   35 1
    16   13   14 1
    17   14   15 1
    18   14   36 1
    19   14   37 1
    20   15   16 1
    21   15   17 1
    22   15   38 1
    23   16   21 1
    24   17   18 1
    25   17   19 1
    26   17   39 1
    27   18   40 1
    28   19   20 1
    29   19   21 1
    30   19   41 1
    31   20   42 1
    32   21   22 1
    33   21   43 1
    34   22   23 ar
    35   22   32 ar
    36   23   24 ar
    37   23   44 1
    38   24   25 ar
    39   24   48 1
    40   25   26 ar
    41   25   32 ar
    42   26   27 2
    43   26   28 ar
    44   28   29 ar
    45   28   45 1
    46   29   30 1
    47   29   31 ar
    48   30   46 1
    49   30   47 1
    50   31   32 ar
@<TRIPOS>SUBSTRUCTURE
     1 GTP         1 GROUP   0 A     ****
@<TRIPOS>MOLECULE
[[[5-(2-amino-6-oxo-1~{H}-purin-9-yl)-3,4-dihydroxy-tetrahydrofuran-2-yl]methoxy-oxido-phosphoryl]oxy-oxido-phosphoryl] phosphate
   44    46     1     0     0
SMALL
USER_CHARGES

@<TRIPOS>ATOM
      1 PG          4.5660   31.3910   21.6350 P.3       1 GTP         1.3829
      2 O1G         4.6130   31.9070   23.0690 O.2       1 GTP        -0.9757
      3 O2G         3.8920   32.3190   20.6310 O.3       1 GTP        -0.9757
      4 O3G         4.1430   30.0120   21.6130 O.3       1 GTP        -0.9757
      5 O3B         6.1600   31.3600   21.2280 O.3       1 GTP        -0.7389
      6 PB          6.8770   31.2020   19.7450 P.3       1 GTP         1.5384
      7 O1B         7.0790   29.7090   19.4730 O.2       1 GTP        -0.8948
      8 O2B         6.1250   31.9700   18.7490 O.3       1 GTP        -0.8948
      9 O3A         8.2510   31.8900   20.0030 O.3       1 GTP        -0.7420
     10 PA          8.8460   33.2610   19.4110 P.3       1 GTP         1.5254
     11 O1A         8.8880   33.2560   17.9570 O.2       1 GTP        -0.8812
     12 O2A         8.1050   34.3980   20.1290 O.3       1 GTP        -0.8812
     13 O5'        10.4300   33.1530   19.9000 O.3       1 GTP        -0.5720
     14 C5'        10.5490   33.0440   21.3780 C.3       1 GTP         0.2195
     15 C4'        12.0460   33.6180   21.4740 C.3       1 GTP         0.0900
     16 O4'        13.0520   32.8300   20.8180 O.3       1 GTP        -0.3725
     17 C3'        12.3070   34.9690   21.0570 C.3       1 GTP         0.0729
     18 O3'        13.1090   35.6720   21.9710 O.3       1 GTP        -0.6361
     19 C2'        12.8390   34.9710   19.5930 C.3       1 GTP         0.1120
     20 O2'        13.6720   35.9610   19.3550 O.3       1 GTP        -0.6183
     21 C1'        13.8460   33.6220   19.9270 C.3       1 GTP         0.2260
     22 N9         14.0010   32.8330   18.6490 N.pl3     1 GTP        -0.1831
     23 C8         12.9340   32.4520   17.8480 C.ar      1 GTP         0.4536
     24 N7         13.6400   31.7980   16.8990 N.ar      1 GTP        -0.6249
     25 C5         15.0290   31.8890   17.0010 C.ar      1 GTP         0.1719
     26 C6         15.8990   31.3940   16.2380 C.ar      1 GTP         0.6550
     27 O6         15.9820   30.6800   15.1910 O.2       1 GTP        -0.6574
     28 N1         17.2740   31.6280   16.8000 N.am      1 GTP        -0.5174
     29 C2         17.3040   32.2950   17.8960 C.ar      1 GTP         0.6623
     30 N2         18.6770   32.4500   18.4750 N.pl3     1 GTP        -0.9844
     31 N3         16.3840   32.7360   18.7390 N.ar      1 GTP        -0.6218
     32 C4         15.2180   32.5170   18.1350 C.ar      1 GTP         0.0791
     33 H5'         9.7718   33.6593   21.8548 H         1 GTP         0.0419
     34 H5''       10.4216   31.9939   21.6797 H         1 GTP         0.0419
     35 H4'        12.2583   33.6282   22.5533 H         1 GTP         0.0780
     36 H3'        11.3699   35.5332   21.1732 H         1 GTP         0.0539
     37 HO3'       12.8165   35.7279   23.0299 H         1 GTP         0.4655
     38 H2'        12.1431   35.1631   18.7630 H         1 GTP         0.0380
     39 HO2'       13.2830   36.9601   19.1092 H         1 GTP         0.4323
     40 H1'        14.8453   33.7628   20.3647 H         1 GTP         0.0951
     41 H8         11.8730   32.6240   17.9510 H         1 GTP         0.1402
     42 HN1        18.1572   31.2365   16.2739 H         1 GTP         0.3032
     43 HN21       19.5568   32.1296   17.8977 H         1 GTP         0.4346
     44 HN22       18.8054   32.8843   19.4775 H         1 GTP         0.4346
@<TRIPOS>BOND
     1    1    2 2
     2    1    3 1
     3    1    4 1
     4    1    5 1
     5    5    6 1
     6    6    7 2
     7    6    8 1
     8    6    9 1
     9    9   10 1
    10   10   11 2
    11   10   12 1
    12   10   13 1
    13   13   14 1
    14   14   15 1
    15   14   33 1
    16   14   34 1
    17   15   16 1
    18   15   17 1
    19   15   35 1
    20   16   21 1
    21   17   18 1
    22   17   19 1
    23   17   36 1
    24   18   37 1
    25   19   20 1
    26   19   21 1
    27   19   38 1
    28   20   39 1
    29   21   22 1
    30   21   40 1
    31   22   23 ar
    32   22   32 ar
    33   23   24 ar
    34   23   41 1
    35   24   25 ar
    36   25   26 ar
    37   25   32 ar
    38   26   27 2
    39   26   28 ar
    40   28   29 ar
    41   28   42 1
    42   29   30 1
    43   29   31 ar
    44   30   43 1
    45   30   44 1
    46   31   32 ar
@<TRIPOS>SUBSTRUCTURE
     1 GTP         1 GROUP   0 A     ****
@<TRIPOS>MOLECULE
[5-(2-amino-6-oxo-7,8-dihydro-1~{H}-purin-8-ylium-9-yl)-3,4-dihydroxy-tetrahydrofuran-2-yl]methyl [hydroxy(phosphonooxy)phosphoryl] phosphate
   48    50     1     0     0
SMALL
USER_CHARGES

@<TRIPOS>ATOM
      1 PG          4.5660   31.3910   21.6350 P.3       1 GTP         1.8301
      2 O1G         4.6130   31.9070   23.0690 O.2       1 GTP        -0.8529
      3 O2G         3.8920   32.3190   20.6310 O.3       1 GTP        -0.7985
      4 O3G         4.1430   30.0120   21.6130 O.3       1 GTP        -0.7985
      5 O3B         6.1600   31.3600   21.2280 O.3       1 GTP        -0.8209
      6 PB          6.8770   31.2020   19.7450 P.3       1 GTP         1.9302
      7 O1B         7.0790   29.7090   19.4730 O.2       1 GTP        -0.8866
      8 O2B         6.1250   31.9700   18.7490 O.3       1 GTP        -0.8029
      9 O3A         8.2510   31.8900   20.0030 O.3       1 GTP        -0.7970
     10 PA          8.8460   33.2610   19.4110 P.3       1 GTP         1.5633
     11 O1A         8.8880   33.2560   17.9570 O.2       1 GTP        -0.8168
     12 O2A         8.1050   34.3980   20.1290 O.3       1 GTP        -0.8168
     13 O5'        10.4300   33.1530   19.9000 O.3       1 GTP        -0.5621
     14 C5'        10.5490   33.0440   21.3780 C.3       1 GTP         0.1793
     15 C4'        12.0460   33.6180   21.4740 C.3       1 GTP         0.1266
     16 O4'        13.0520   32.8300   20.8180 O.3       1 GTP        -0.4066
     17 C3'        12.3070   34.9690   21.0570 C.3       1 GTP         0.0961
     18 O3'        13.1090   35.6720   21.9710 O.3       1 GTP        -0.5774
     19 C2'        12.8390   34.9710   19.5930 C.3       1 GTP         0.0708
     20 O2'        13.6720   35.9610   19.3550 O.3       1 GTP        -0.5799
     21 C1'        13.8460   33.6220   19.9270 C.3       1 GTP         0.4212
     22 N9         14.0010   32.8330   18.6490 N.pl3     1 GTP        -0.4557
     23 C8         12.9340   32.4520   17.8480 C.cat     1 GTP         0.2704
     24 N7         13.6400   31.7980   16.8990 N.pl3     1 GTP        -0.4606
     25 C5         15.0290   31.8890   17.0010 C.ar      1 GTP        -0.1962
     26 C6         15.8990   31.3940   16.2380 C.ar      1 GTP         0.7570
     27 O6         15.9820   30.6800   15.1910 O.2       1 GTP        -0.5744
     28 N1         17.2740   31.6280   16.8000 N.am      1 GTP        -0.5028
     29 C2         17.3040   32.2950   17.8960 C.ar      1 GTP         0.7561
     30 N2         18.6770   32.4500   18.4750 N.pl3     1 GTP        -0.9174
     31 N3         16.3840   32.7360   18.7390 N.ar      1 GTP        -0.6686
     32 C4         15.2180   32.5170   18.1350 C.ar      1 GTP         0.3714
     33 HOG2        2.8098   32.5054   20.6948 H         1 GTP         0.4922
     34 HOG3        3.1013   29.7523   21.8527 H         1 GTP         0.4922
     35 HOB2        5.1247   31.6353   18.4370 H         1 GTP         0.4827
     36 H5'         9.7718   33.6593   21.8548 H         1 GTP         0.0366
     37 H5''       10.4216   31.9939   21.6797 H         1 GTP         0.0366
     38 H4'        12.2583   33.6282   22.5533 H         1 GTP         0.1437
     39 H3'        11.3699   35.5332   21.1732 H         1 GTP         0.0859
     40 HO3'       12.8165   35.7279   23.0299 H         1 GTP         0.4171
     41 H2'        12.1431   35.1631   18.7630 H         1 GTP         0.0756
     42 HO2'       13.2830   36.9601   19.1092 H         1 GTP         0.4209
     43 H1'        14.8453   33.7628   20.3647 H         1 GTP         0.1277
     44 H8         11.8730   32.6240   17.9510 H         1 GTP         0.2909
     45 HN1        18.1572   31.2365   16.2739 H         1 GTP         0.3540
     46 HN21       19.5568   32.1296   17.8977 H         1 GTP         0.4707
     47 HN22       18.8054   32.8843   19.4775 H         1 GTP         0.4707
     48 H48        13.1150   31.2389   16.1105 H         1 GTP         0.5224
@<TRIPOS>BOND
     1    1    2 2
     2    1    3 1
     3    1    4 1
     4    1    5 1
     5    3   33 1
     6    4   34 1
     7    5    6 1
     8    6    7 2
     9    6    8 1
    10    6    9 1
    11    8   35 1
    12    9   10 1
    13   10   11 2
    14   10   12 1
    15   10   13 1
    16   13   14 1
    17   14   15 1
    18   14   36 1
    19   14   37 1
    20   15   16 1
    21   15   17 1
    22   15   38 1
    23   16   21 1
    24   17   18 1
    25   17   19 1
    26   17   39 1
    27   18   40 1
    28   19   20 1
    29   19   21 1
    30   19   41 1
    31   20   42 1
    32   21   22 1
    33   21   43 1
    34   22   23 ar
    35   22   32 ar
    36   23   24 ar
    37   23   44 1
    38   24   25 ar
    39   24   48 1
    40   25   26 ar
    41   25   32 ar
    42   26   27 2
    43   26   28 ar
    44   28   29 ar
    45   28   45 1
    46   29   30 1
    47   29   31 ar
    48   30   46 1
    49   30   47 1
    50   31   32 ar
@<TRIPOS>SUBSTRUCTURE
     1 GTP         1 GROUP   0 A     ****
@<TRIPOS>MOLECULE
[[[5-(2-amino-6-oxo-1~{H}-purin-9-yl)-3,4-dihydroxy-tetrahydrofuran-2-yl]methoxy-hydroxy-phosphoryl]oxy-oxido-phosphoryl] phosphate
   45    47     1     0     0
SMALL
USER_CHARGES

@<TRIPOS>ATOM
      1 PG          4.5660   31.3910   21.6350 P.3       1 GTP        -1.1921
      2 O1G         4.6130   31.9070   23.0690 O.2       1 GTP         0.3195
      3 O2G         3.8920   32.3190   20.6310 O.3       1 GTP         0.3195
      4 O3G         4.1430   30.0120   21.6130 O.3       1 GTP         0.3195
      5 O3B         6.1600   31.3600   21.2280 O.3       1 GTP         0.4672
      6 PB          6.8770   31.2020   19.7450 P.3       1 GTP        -1.1062
      7 O1B         7.0790   29.7090   19.4730 O.2       1 GTP         0.3195
      8 O2B         6.1250   31.9700   18.7490 O.3       1 GTP         0.3195
      9 O3A         8.2510   31.8900   20.0030 O.3       1 GTP         0.4672
     10 PA          8.8460   33.2610   19.4110 P.3       1 GTP        -0.9715
     11 O1A         8.8880   33.2560   17.9570 O.2       1 GTP         0.2707
     12 O2A         8.1050   34.3980   20.1290 O.3       1 GTP         0.0326
     13 O5'        10.4300   33.1530   19.9000 O.3       1 GTP         0.1618
     14 C5'        10.5490   33.0440   21.3780 C.3       1 GTP         0.1504
     15 C4'        12.0460   33.6180   21.4740 C.3       1 GTP         0.1111
     16 O4'        13.0520   32.8300   20.8180 O.3       1 GTP        -0.1436
     17 C3'        12.3070   34.9690   21.0570 C.3       1 GTP         0.1111
     18 O3'        13.1090   35.6720   21.9710 O.3       1 GTP        -0.2728
     19 C2'        12.8390   34.9710   19.5930 C.3       1 GTP         0.1111
     20 O2'        13.6720   35.9610   19.3550 O.3       1 GTP        -0.2728
     21 C1'        13.8460   33.6220   19.9270 C.3       1 GTP         0.0918
     22 N9         14.0010   32.8330   18.6490 N.pl3     1 GTP        -0.0449
     23 C8         12.9340   32.4520   17.8480 C.ar      1 GTP         0.4884
     24 N7         13.6400   31.7980   16.8990 N.ar      1 GTP        -0.5260
     25 C5         15.0290   31.8890   17.0010 C.ar      1 GTP         0.4178
     26 C6         15.8990   31.3940   16.2380 C.ar      1 GTP         0.2530
     27 O6         15.9820   30.6800   15.1910 O.2       1 GTP        -0.2755
     28 N1         17.2740   31.6280   16.8000 N.am      1 GTP        -0.1604
     29 C2         17.3040   32.2950   17.8960 C.ar      1 GTP         0.4468
     30 N2         18.6770   32.4500   18.4750 N.pl3     1 GTP        -0.5618
     31 N3         16.3840   32.7360   18.7390 N.ar      1 GTP        -0.4271
     32 C4         15.2180   32.5170   18.1350 C.ar      1 GTP         0.0498
     33 HOA2        7.0451   34.5904   19.9065 H         1 GTP         0.2010
     34 H5'         9.7718   33.6593   21.8548 H         1 GTP        -0.0393
     35 H5''       10.4216   31.9939   21.6797 H         1 GTP        -0.0393
     36 H4'        12.2583   33.6282   22.5533 H         1 GTP        -0.0393
     37 H3'        11.3699   35.5332   21.1732 H         1 GTP        -0.0393
     38 HO3'       12.8165   35.7279   23.0299 H         1 GTP         0.2010
     39 H2'        12.1431   35.1631   18.7630 H         1 GTP        -0.0393
     40 HO2'       13.2830   36.9601   19.1092 H         1 GTP         0.2010
     41 H1'        14.8453   33.7628   20.3647 H         1 GTP        -0.0393
     42 H8         11.8730   32.6240   17.9510 H         1 GTP        -0.1369
     43 HN1        18.1572   31.2365   16.2739 H         1 GTP         0.0865
     44 HN21       19.5568   32.1296   17.8977 H         1 GTP         0.2048
     45 HN22       18.8054   32.8843   19.4775 H         1 GTP         0.2048
@<TRIPOS>BOND
     1    1    2 2
     2    1    3 1
     3    1    4 1
     4    1    5 1
     5    5    6 1
     6    6    7 2
     7    6    8 1
     8    6    9 1
     9    9   10 1
    10   10   11 2
    11   10   12 1
    12   10   13 1
    13   12   33 1
    14   13   14 1
    15   14   15 1
    16   14   34 1
    17   14   35 1
    18   15   16 1
    19   15   17 1
    20   15   36 1
    21   16   21 1
    22   17   18 1
    23   17   19 1
    24   17   37 1
    25   18   38 1
    26   19   20 1
    27   19   21 1
    28   19   39 1
    29   20   40 1
    30   21   22 1
    31   21   41 1
    32   22   23 ar
    33   22   32 ar
    34   23   24 ar
    35   23   42 1
    36   24   25 ar
    37   25   26 ar
    38   25   32 ar
    39   26   27 2
    40   26   28 ar
    41   28   29 ar
    42   28   43 1
    43   29   30 1
    44   29   31 ar
    45   30   44 1
    46   30   45 1
    47   31   32 ar
@<TRIPOS>SUBSTRUCTURE
     1 GTP         1 GROUP   0 A     ****
@<TRIPOS>MOLECULE
[[5-(2-amino-6-oxo-1~{H}-purin-9-yl)-3,4-dihydroxy-tetrahydrofuran-2-yl]methoxy-hydroxy-phosphoryl] phosphono hydrogen phosphate
   48    50     1     0     0
SMALL
USER_CHARGES

@<TRIPOS>ATOM
      1 PG          4.5660   31.3910   21.6350 P.3       1 GTP         1.8160
      2 O1G         4.6130   31.9070   23.0690 O.2       1 GTP        -0.8277
      3 O2G         3.8920   32.3190   20.6310 O.3       1 GTP        -0.7983
      4 O3G         4.1430   30.0120   21.6130 O.3       1 GTP        -0.7983
      5 O3B         6.1600   31.3600   21.2280 O.3       1 GTP        -0.8272
      6 PB          6.8770   31.2020   19.7450 P.3       1 GTP         1.9429
      7 O1B         7.0790   29.7090   19.4730 O.2       1 GTP        -0.8481
      8 O2B         6.1250   31.9700   18.7490 O.3       1 GTP        -0.8171
      9 O3A         8.2510   31.8900   20.0030 O.3       1 GTP        -0.8114
     10 PA          8.8460   33.2610   19.4110 P.3       1 GTP         1.8017
     11 O1A         8.8880   33.2560   17.9570 O.2       1 GTP        -0.7846
     12 O2A         8.1050   34.3980   20.1290 O.3       1 GTP        -0.8074
     13 O5'        10.4300   33.1530   19.9000 O.3       1 GTP        -0.5669
     14 C5'        10.5490   33.0440   21.3780 C.3       1 GTP         0.1637
     15 C4'        12.0460   33.6180   21.4740 C.3       1 GTP         0.1099
     16 O4'        13.0520   32.8300   20.8180 O.3       1 GTP        -0.4100
     17 C3'        12.3070   34.9690   21.0570 C.3       1 GTP         0.0924
     18 O3'        13.1090   35.6720   21.9710 O.3       1 GTP        -0.5892
     19 C2'        12.8390   34.9710   19.5930 C.3       1 GTP         0.0635
     20 O2'        13.6720   35.9610   19.3550 O.3       1 GTP        -0.5749
     21 C1'        13.8460   33.6220   19.9270 C.3       1 GTP         0.2557
     22 N9         14.0010   32.8330   18.6490 N.pl3     1 GTP        -0.2236
     23 C8         12.9340   32.4520   17.8480 C.ar      1 GTP         0.4148
     24 N7         13.6400   31.7980   16.8990 N.ar      1 GTP        -0.5808
     25 C5         15.0290   31.8890   17.0010 C.ar      1 GTP         0.1777
     26 C6         15.8990   31.3940   16.2380 C.ar      1 GTP         0.6505
     27 O6         15.9820   30.6800   15.1910 O.2       1 GTP        -0.5947
     28 N1         17.2740   31.6280   16.8000 N.am      1 GTP        -0.5110
     29 C2         17.3040   32.2950   17.8960 C.ar      1 GTP         0.6844
     30 N2         18.6770   32.4500   18.4750 N.pl3     1 GTP        -0.8920
     31 N3         16.3840   32.7360   18.7390 N.ar      1 GTP        -0.6705
     32 C4         15.2180   32.5170   18.1350 C.ar      1 GTP         0.1220
     33 HOG2        2.8098   32.5054   20.6948 H         1 GTP         0.5087
     34 HOG3        3.1013   29.7523   21.8527 H         1 GTP         0.5087
     35 HOB2        5.1247   31.6353   18.4370 H         1 GTP         0.5092
     36 HOA2        7.0451   34.5904   19.9065 H         1 GTP         0.5041
     37 H5'         9.7718   33.6593   21.8548 H         1 GTP         0.0584
     38 H5''       10.4216   31.9939   21.6797 H         1 GTP         0.0584
     39 H4'        12.2583   33.6282   22.5533 H         1 GTP         0.1192
     40 H3'        11.3699   35.5332   21.1732 H         1 GTP         0.0735
     41 HO3'       12.8165   35.7279   23.0299 H         1 GTP         0.4308
     42 H2'        12.1431   35.1631   18.7630 H         1 GTP         0.0746
     43 HO2'       13.2830   36.9601   19.1092 H         1 GTP         0.4224
     44 H1'        14.8453   33.7628   20.3647 H         1 GTP         0.1162
     45 H8         11.8730   32.6240   17.9510 H         1 GTP         0.0741
     46 HN1        18.1572   31.2365   16.2739 H         1 GTP         0.3343
     47 HN21       19.5568   32.1296   17.8977 H         1 GTP         0.4229
     48 HN22       18.8054   32.8843   19.4775 H         1 GTP         0.4229
@<TRIPOS>BOND
     1    1    2 2
     2    1    3 1
     3    1    4 1
     4    1    5 1
     5    3   33 1
     6    4   34 1
     7    5    6 1
     8    6    7 2
     9    6    8 1
    10    6    9 1
    11    8   35 1
    12    9   10 1
    13   10   11 2
    14   10   12 1
    15   10   13 1
    16   12   36 1
    17   13   14 1
    18   14   15 1
    19   14   37 1
    20   14   38 1
    21   15   16 1
    22   15   17 1
    23   15   39 1
    24   16   21 1
    25   17   18 1
    26   17   19 1
    27   17   40 1
    28   18   41 1
    29   19   20 1
    30   19   21 1
    31   19   42 1
    32   20   43 1
    33   21   22 1
    34   21   44 1
    35   22   23 ar
    36   22   32 ar
    37   23   24 ar
    38   23   45 1
    39   24   25 ar
    40   25   26 ar
    41   25   32 ar
    42   26   27 2
    43   26   28 ar
    44   28   29 ar
    45   28   46 1
    46   29   30 1
    47   29   31 ar
    48   30   47 1
    49   30   48 1
    50   31   32 ar
@<TRIPOS>SUBSTRUCTURE
     1 GTP         1 GROUP   0 A     ****
@<TRIPOS>MOLECULE
[[[5-(2-amino-6-oxo-1~{H}-purin-9-yl)-3,4-dihydroxy-tetrahydrofuran-2-yl]methoxy-hydroxy-phosphoryl]oxy-hydroxy-phosphoryl] phosphate
   46    48     1     0     0
SMALL
USER_CHARGES

@<TRIPOS>ATOM
      1 PG          4.5660   31.3910   21.6350 P.3       1 GTP         1.3594
      2 O1G         4.6130   31.9070   23.0690 O.2       1 GTP        -0.8909
      3 O2G         3.8920   32.3190   20.6310 O.3       1 GTP        -0.8909
      4 O3G         4.1430   30.0120   21.6130 O.3       1 GTP        -0.8909
      5 O3B         6.1600   31.3600   21.2280 O.3       1 GTP        -0.7106
      6 PB          6.8770   31.2020   19.7450 P.3       1 GTP         1.8242
      7 O1B         7.0790   29.7090   19.4730 O.2       1 GTP        -0.9138
      8 O2B         6.1250   31.9700   18.7490 O.3       1 GTP        -0.7900
      9 O3A         8.2510   31.8900   20.0030 O.3       1 GTP        -0.8086
     10 PA          8.8460   33.2610   19.4110 P.3       1 GTP         1.7888
     11 O1A         8.8880   33.2560   17.9570 O.2       1 GTP        -0.8200
     12 O2A         8.1050   34.3980   20.1290 O.3       1 GTP        -0.8185
     13 O5'        10.4300   33.1530   19.9000 O.3       1 GTP        -0.5679
     14 C5'        10.5490   33.0440   21.3780 C.3       1 GTP         0.1794
     15 C4'        12.0460   33.6180   21.4740 C.3       1 GTP         0.1313
     16 O4'        13.0520   32.8300   20.8180 O.3       1 GTP        -0.3993
     17 C3'        12.3070   34.9690   21.0570 C.3       1 GTP         0.0846
     18 O3'        13.1090   35.6720   21.9710 O.3       1 GTP        -0.5819
     19 C2'        12.8390   34.9710   19.5930 C.3       1 GTP         0.0567
     20 O2'        13.6720   35.9610   19.3550 O.3       1 GTP        -0.5837
     21 C1'        13.8460   33.6220   19.9270 C.3       1 GTP         0.2547
     22 N9         14.0010   32.8330   18.6490 N.pl3     1 GTP        -0.2013
     23 C8         12.9340   32.4520   17.8480 C.ar      1 GTP         0.4384
     24 N7         13.6400   31.7980   16.8990 N.ar      1 GTP        -0.6072
     25 C5         15.0290   31.8890   17.0010 C.ar      1 GTP         0.1855
     26 C6         15.8990   31.3940   16.2380 C.ar      1 GTP         0.6502
     27 O6         15.9820   30.6800   15.1910 O.2       1 GTP        -0.6193
     28 N1         17.2740   31.6280   16.8000 N.am      1 GTP        -0.5097
     29 C2         17.3040   32.2950   17.8960 C.ar      1 GTP         0.6454
     30 N2         18.6770   32.4500   18.4750 N.pl3     1 GTP        -0.8839
     31 N3         16.3840   32.7360   18.7390 N.ar      1 GTP        -0.6390
     32 C4         15.2180   32.5170   18.1350 C.ar      1 GTP         0.0961
     33 HOB2        5.1247   31.6353   18.4370 H         1 GTP         0.4357
     34 HOA2        7.0451   34.5904   19.9065 H         1 GTP         0.4835
     35 H5'         9.7718   33.6593   21.8548 H         1 GTP         0.0448
     36 H5''       10.4216   31.9939   21.6797 H         1 GTP         0.0448
     37 H4'        12.2583   33.6282   22.5533 H         1 GTP         0.1246
     38 H3'        11.3699   35.5332   21.1732 H         1 GTP         0.0764
     39 HO3'       12.8165   35.7279   23.0299 H         1 GTP         0.4062
     40 H2'        12.1431   35.1631   18.7630 H         1 GTP         0.0706
     41 HO2'       13.2830   36.9601   19.1092 H         1 GTP         0.4064
     42 H1'        14.8453   33.7628   20.3647 H         1 GTP         0.1053
     43 H8         11.8730   32.6240   17.9510 H         1 GTP         0.0995
     44 HN1        18.1572   31.2365   16.2739 H         1 GTP         0.3262
     45 HN21       19.5568   32.1296   17.8977 H         1 GTP         0.4043
     46 HN22       18.8054   32.8843   19.4775 H         1 GTP         0.4043
@<TRIPOS>BOND
     1    1    2 2
     2    1    3 1
     3    1    4 1
     4    1    5 1
     5    5    6 1
     6    6    7 2
     7    6    8 1
     8    6    9 1
     9    8   33 1
    10    9   10 1
    11   10   11 2
    12   10   12 1
    13   10   13 1
    14   12   34 1
    15   13   14 1
    16   14   15 1
    17   14   35 1
    18   14   36 1
    19   15   16 1
    20   15   17 1
    21   15   37 1
    22   16   21 1
    23   17   18 1
    24   17   19 1
    25   17   38 1
    26   18   39 1
    27   19   20 1
    28   19   21 1
    29   19   40 1
    30   20   41 1
    31   21   22 1
    32   21   42 1
    33   22   23 ar
    34   22   32 ar
    35   23   24 ar
    36   23   43 1
    37   24   25 ar
    38   25   26 ar
    39   25   32 ar
    40   26   27 2
    41   26   28 ar
    42   28   29 ar
    43   28   44 1
    44   29   30 1
    45   29   31 ar
    46   30   45 1
    47   30   46 1
    48   31   32 ar
@<TRIPOS>SUBSTRUCTURE
     1 GTP         1 GROUP   0 A     ****
@<TRIPOS>MOLECULE
[[[5-(2-amino-6-oxo-7,8-dihydro-1~{H}-purin-8-ylium-9-yl)-3,4-dihydroxy-tetrahydrofuran-2-yl]methoxy-oxido-phosphoryl]oxy-hydroxy-phosphoryl] phosphate
   46    48     1     0     0
SMALL
USER_CHARGES

@<TRIPOS>ATOM
      1 PG          4.5660   31.3910   21.6350 P.3       1 GTP        -1.1921
      2 O1G         4.6130   31.9070   23.0690 O.2       1 GTP         0.3195
      3 O2G         3.8920   32.3190   20.6310 O.3       1 GTP         0.3195
      4 O3G         4.1430   30.0120   21.6130 O.3       1 GTP         0.3195
      5 O3B         6.1600   31.3600   21.2280 O.3       1 GTP         0.4672
      6 PB          6.8770   31.2020   19.7450 P.3       1 GTP        -0.9715
      7 O1B         7.0790   29.7090   19.4730 O.2       1 GTP         0.2707
      8 O2B         6.1250   31.9700   18.7490 O.3       1 GTP         0.0326
      9 O3A         8.2510   31.8900   20.0030 O.3       1 GTP         0.4672
     10 PA          8.8460   33.2610   19.4110 P.3       1 GTP        -1.1062
     11 O1A         8.8880   33.2560   17.9570 O.2       1 GTP         0.3195
     12 O2A         8.1050   34.3980   20.1290 O.3       1 GTP         0.3195
     13 O5'        10.4300   33.1530   19.9000 O.3       1 GTP         0.1618
     14 C5'        10.5490   33.0440   21.3780 C.3       1 GTP         0.1504
     15 C4'        12.0460   33.6180   21.4740 C.3       1 GTP         0.1111
     16 O4'        13.0520   32.8300   20.8180 O.3       1 GTP        -0.1436
     17 C3'        12.3070   34.9690   21.0570 C.3       1 GTP         0.1111
     18 O3'        13.1090   35.6720   21.9710 O.3       1 GTP        -0.2728
     19 C2'        12.8390   34.9710   19.5930 C.3       1 GTP         0.1111
     20 O2'        13.6720   35.9610   19.3550 O.3       1 GTP        -0.2728
     21 C1'        13.8460   33.6220   19.9270 C.3       1 GTP         0.2693
     22 N9         14.0010   32.8330   18.6490 N.pl3     1 GTP        -0.3222
     23 C8         12.9340   32.4520   17.8480 C.cat     1 GTP         0.1640
     24 N7         13.6400   31.7980   16.8990 N.pl3     1 GTP        -0.3688
     25 C5         15.0290   31.8890   17.0010 C.ar      1 GTP         0.0648
     26 C6         15.8990   31.3940   16.2380 C.ar      1 GTP         0.3597
     27 O6         15.9820   30.6800   15.1910 O.2       1 GTP        -0.2755
     28 N1         17.2740   31.6280   16.8000 N.am      1 GTP        -0.1604
     29 C2         17.3040   32.2950   17.8960 C.ar      1 GTP         0.4468
     30 N2         18.6770   32.4500   18.4750 N.pl3     1 GTP        -0.5618
     31 N3         16.3840   32.7360   18.7390 N.ar      1 GTP        -0.4283
     32 C4         15.2180   32.5170   18.1350 C.ar      1 GTP         0.2226
     33 HOB2        5.1247   31.6353   18.4370 H         1 GTP         0.2010
     34 H5'         9.7718   33.6593   21.8548 H         1 GTP        -0.0393
     35 H5''       10.4216   31.9939   21.6797 H         1 GTP        -0.0393
     36 H4'        12.2583   33.6282   22.5533 H         1 GTP        -0.0393
     37 H3'        11.3699   35.5332   21.1732 H         1 GTP        -0.0393
     38 HO3'       12.8165   35.7279   23.0299 H         1 GTP         0.2010
     39 H2'        12.1431   35.1631   18.7630 H         1 GTP        -0.0393
     40 HO2'       13.2830   36.9601   19.1092 H         1 GTP         0.2010
     41 H1'        14.8453   33.7628   20.3647 H         1 GTP        -0.0393
     42 H8         11.8730   32.6240   17.9510 H         1 GTP         0.0000
     43 HN1        18.1572   31.2365   16.2739 H         1 GTP         0.0865
     44 HN21       19.5568   32.1296   17.8977 H         1 GTP         0.2048
     45 HN22       18.8054   32.8843   19.4775 H         1 GTP         0.2048
     46 H46        13.1150   31.2389   16.1105 H         1 GTP         0.2048
@<TRIPOS>BOND
     1    1    2 2
     2    1    3 1
     3    1    4 1
     4    1    5 1
     5    5    6 1
     6    6    7 2
     7    6    8 1
     8    6    9 1
     9    8   33 1
    10    9   10 1
    11   10   11 2
    12   10   12 1
    13   10   13 1
    14   13   14 1
    15   14   15 1
    16   14   34 1
    17   14   35 1
    18   15   16 1
    19   15   17 1
    20   15   36 1
    21   16   21 1
    22   17   18 1
    23   17   19 1
    24   17   37 1
    25   18   38 1
    26   19   20 1
    27   19   21 1
    28   19   39 1
    29   20   40 1
    30   21   22 1
    31   21   41 1
    32   22   23 ar
    33   22   32 ar
    34   23   24 ar
    35   23   42 1
    36   24   25 ar
    37   24   46 1
    38   25   26 ar
    39   25   32 ar
    40   26   27 2
    41   26   28 ar
    42   28   29 ar
    43   28   43 1
    44   29   30 1
    45   29   31 ar
    46   30   44 1
    47   30   45 1
    48   31   32 ar
@<TRIPOS>SUBSTRUCTURE
     1 GTP         1 GROUP   0 A     ****
@<TRIPOS>MOLECULE
[[[5-(2-amino-6-oxo-7,8-dihydro-1~{H}-purin-8-ylium-9-yl)-3,4-dihydroxy-tetrahydrofuran-2-yl]methoxy-oxido-phosphoryl]oxy-oxido-phosphoryl] phosphate
   45    47     1     0     0
SMALL
USER_CHARGES

@<TRIPOS>ATOM
      1 PG          4.5660   31.3910   21.6350 P.3       1 GTP        -1.1921
      2 O1G         4.6130   31.9070   23.0690 O.2       1 GTP         0.3195
      3 O2G         3.8920   32.3190   20.6310 O.3       1 GTP         0.3195
      4 O3G         4.1430   30.0120   21.6130 O.3       1 GTP         0.3195
      5 O3B         6.1600   31.3600   21.2280 O.3       1 GTP         0.4672
      6 PB          6.8770   31.2020   19.7450 P.3       1 GTP        -1.1062
      7 O1B         7.0790   29.7090   19.4730 O.2       1 GTP         0.3195
      8 O2B         6.1250   31.9700   18.7490 O.3       1 GTP         0.3195
      9 O3A         8.2510   31.8900   20.0030 O.3       1 GTP         0.4672
     10 PA          8.8460   33.2610   19.4110 P.3       1 GTP        -1.1062
     11 O1A         8.8880   33.2560   17.9570 O.2       1 GTP         0.3195
     12 O2A         8.1050   34.3980   20.1290 O.3       1 GTP         0.3195
     13 O5'        10.4300   33.1530   19.9000 O.3       1 GTP         0.1618
     14 C5'        10.5490   33.0440   21.3780 C.3       1 GTP         0.1504
     15 C4'        12.0460   33.6180   21.4740 C.3       1 GTP         0.1111
     16 O4'        13.0520   32.8300   20.8180 O.3       1 GTP        -0.1436
     17 C3'        12.3070   34.9690   21.0570 C.3       1 GTP         0.1111
     18 O3'        13.1090   35.6720   21.9710 O.3       1 GTP        -0.2728
     19 C2'        12.8390   34.9710   19.5930 C.3       1 GTP         0.1111
     20 O2'        13.6720   35.9610   19.3550 O.3       1 GTP        -0.2728
     21 C1'        13.8460   33.6220   19.9270 C.3       1 GTP         0.2693
     22 N9         14.0010   32.8330   18.6490 N.pl3     1 GTP        -0.3222
     23 C8         12.9340   32.4520   17.8480 C.cat     1 GTP         0.1640
     24 N7         13.6400   31.7980   16.8990 N.pl3     1 GTP        -0.3688
     25 C5         15.0290   31.8890   17.0010 C.ar      1 GTP         0.0648
     26 C6         15.8990   31.3940   16.2380 C.ar      1 GTP         0.3597
     27 O6         15.9820   30.6800   15.1910 O.2       1 GTP        -0.2755
     28 N1         17.2740   31.6280   16.8000 N.am      1 GTP        -0.1604
     29 C2         17.3040   32.2950   17.8960 C.ar      1 GTP         0.4468
     30 N2         18.6770   32.4500   18.4750 N.pl3     1 GTP        -0.5618
     31 N3         16.3840   32.7360   18.7390 N.ar      1 GTP        -0.4283
     32 C4         15.2180   32.5170   18.1350 C.ar      1 GTP         0.2226
     33 H5'         9.7718   33.6593   21.8548 H         1 GTP        -0.0393
     34 H5''       10.4216   31.9939   21.6797 H         1 GTP        -0.0393
     35 H4'        12.2583   33.6282   22.5533 H         1 GTP        -0.0393
     36 H3'        11.3699   35.5332   21.1732 H         1 GTP        -0.0393
     37 HO3'       12.8165   35.7279   23.0299 H         1 GTP         0.2010
     38 H2'        12.1431   35.1631   18.7630 H         1 GTP        -0.0393
     39 HO2'       13.2830   36.9601   19.1092 H         1 GTP         0.2010
     40 H1'        14.8453   33.7628   20.3647 H         1 GTP        -0.0393
     41 H8         11.8730   32.6240   17.9510 H         1 GTP         0.0000
     42 HN1        18.1572   31.2365   16.2739 H         1 GTP         0.0865
     43 HN21       19.5568   32.1296   17.8977 H         1 GTP         0.2048
     44 HN22       18.8054   32.8843   19.4775 H         1 GTP         0.2048
     45 H45        13.1150   31.2389   16.1105 H         1 GTP         0.2048
@<TRIPOS>BOND
     1    1    2 2
     2    1    3 1
     3    1    4 1
     4    1    5 1
     5    5    6 1
     6    6    7 2
     7    6    8 1
     8    6    9 1
     9    9   10 1
    10   10   11 2
    11   10   12 1
    12   10   13 1
    13   13   14 1
    14   14   15 1
    15   14   33 1
    16   14   34 1
    17   15   16 1
    18   15   17 1
    19   15   35 1
    20   16   21 1
    21   17   18 1
    22   17   19 1
    23   17   36 1
    24   18   37 1
    25   19   20 1
    26   19   21 1
    27   19   38 1
    28   20   39 1
    29   21   22 1
    30   21   40 1
    31   22   23 ar
    32   22   32 ar
    33   23   24 ar
    34   23   41 1
    35   24   25 ar
    36   24   45 1
    37   25   26 ar
    38   25   32 ar
    39   26   27 2
    40   26   28 ar
    41   28   29 ar
    42   28   42 1
    43   29   30 1
    44   29   31 ar
    45   30   43 1
    46   30   44 1
    47   31   32 ar
@<TRIPOS>SUBSTRUCTURE
     1 GTP         1 GROUP   0 A     ****
@<TRIPOS>MOLECULE
[[[5-(2-amino-6-oxo-7,8-dihydro-3~{H}-purin-8-ylium-9-yl)-3,4-dihydroxy-tetrahydrofuran-2-yl]methoxy-oxido-phosphoryl]oxy-oxido-phosphoryl] hydrogen phosphate
   46    48     1     0     0
SMALL
USER_CHARGES

@<TRIPOS>ATOM
      1 PG          4.5660   31.3910   21.6350 P.3       1 GTP         1.5447
      2 O1G         4.6130   31.9070   23.0690 O.2       1 GTP        -0.8705
      3 O2G         3.8920   32.3190   20.6310 O.3       1 GTP        -0.8705
      4 O3G         4.1430   30.0120   21.6130 O.3       1 GTP        -0.7914
      5 O3B         6.1600   31.3600   21.2280 O.3       1 GTP        -0.8116
      6 PB          6.8770   31.2020   19.7450 P.3       1 GTP         1.6738
      7 O1B         7.0790   29.7090   19.4730 O.2       1 GTP        -0.8763
      8 O2B         6.1250   31.9700   18.7490 O.3       1 GTP        -0.8763
      9 O3A         8.2510   31.8900   20.0030 O.3       1 GTP        -0.8005
     10 PA          8.8460   33.2610   19.4110 P.3       1 GTP         1.5754
     11 O1A         8.8880   33.2560   17.9570 O.2       1 GTP        -0.8771
     12 O2A         8.1050   34.3980   20.1290 O.3       1 GTP        -0.8771
     13 O5'        10.4300   33.1530   19.9000 O.3       1 GTP        -0.5809
     14 C5'        10.5490   33.0440   21.3780 C.3       1 GTP         0.1986
     15 C4'        12.0460   33.6180   21.4740 C.3       1 GTP         0.0418
     16 O4'        13.0520   32.8300   20.8180 O.3       1 GTP        -0.3505
     17 C3'        12.3070   34.9690   21.0570 C.3       1 GTP         0.0909
     18 O3'        13.1090   35.6720   21.9710 O.3       1 GTP        -0.6187
     19 C2'        12.8390   34.9710   19.5930 C.3       1 GTP         0.0706
     20 O2'        13.6720   35.9610   19.3550 O.3       1 GTP        -0.6294
     21 C1'        13.8460   33.6220   19.9270 C.3       1 GTP         0.3895
     22 N9         14.0010   32.8330   18.6490 N.pl3     1 GTP        -0.4733
     23 C8         12.9340   32.4520   17.8480 C.cat     1 GTP         0.2958
     24 N7         13.6400   31.7980   16.8990 N.pl3     1 GTP        -0.4933
     25 C5         15.0290   31.8890   17.0010 C.ar      1 GTP        -0.1494
     26 C6         15.8990   31.3940   16.2380 C.ar      1 GTP         0.7954
     27 O6         15.9820   30.6800   15.1910 O.2       1 GTP        -0.5729
     28 N1         17.2740   31.6280   16.8000 N.ar      1 GTP        -0.7443
     29 C2         17.3040   32.2950   17.8960 C.ar      1 GTP         0.8831
     30 N2         18.6770   32.4500   18.4750 N.pl3     1 GTP        -0.9204
     31 N3         16.3840   32.7360   18.7390 N.pl3     1 GTP        -0.7173
     32 C4         15.2180   32.5170   18.1350 C.ar      1 GTP         0.2626
     33 HOG3        3.1013   29.7523   21.8527 H         1 GTP         0.4102
     34 H5'         9.7718   33.6593   21.8548 H         1 GTP         0.0289
     35 H5''       10.4216   31.9939   21.6797 H         1 GTP         0.0289
     36 H4'        12.2583   33.6282   22.5533 H         1 GTP         0.2056
     37 H3'        11.3699   35.5332   21.1732 H         1 GTP         0.1140
     38 HO3'       12.8165   35.7279   23.0299 H         1 GTP         0.4287
     39 H2'        12.1431   35.1631   18.7630 H         1 GTP         0.0809
     40 HO2'       13.2830   36.9601   19.1092 H         1 GTP         0.4385
     41 H1'        14.8453   33.7628   20.3647 H         1 GTP         0.0794
     42 H8         11.8730   32.6240   17.9510 H         1 GTP         0.3821
     43 HN21       19.5568   32.1296   17.8977 H         1 GTP         0.4411
     44 HN22       18.8054   32.8843   19.4775 H         1 GTP         0.4411
     45 H45        16.6849   33.1690   19.7044 H         1 GTP         0.4819
     46 H46        13.1150   31.2389   16.1105 H         1 GTP         0.5182
@<TRIPOS>BOND
     1    1    2 2
     2    1    3 1
     3    1    4 1
     4    1    5 1
     5    4   33 1
     6    5    6 1
     7    6    7 2
     8    6    8 1
     9    6    9 1
    10    9   10 1
    11   10   11 2
    12   10   12 1
    13   10   13 1
    14   13   14 1
    15   14   15 1
    16   14   34 1
    17   14   35 1
    18   15   16 1
    19   15   17 1
    20   15   36 1
    21   16   21 1
    22   17   18 1
    23   17   19 1
    24   17   37 1
    25   18   38 1
    26   19   20 1
    27   19   21 1
    28   19   39 1
    29   20   40 1
    30   21   22 1
    31   21   41 1
    32   22   23 ar
    33   22   32 ar
    34   23   24 ar
    35   23   42 1
    36   24   25 ar
    37   24   46 1
    38   25   26 ar
    39   25   32 ar
    40   26   27 2
    41   26   28 ar
    42   28   29 ar
    43   29   30 1
    44   29   31 ar
    45   30   43 1
    46   30   44 1
    47   31   32 ar
    48   31   45 1
@<TRIPOS>SUBSTRUCTURE
     1 GTP         1 GROUP   0 A     ****
@<TRIPOS>MOLECULE
[[5-(2-amino-6-oxo-7,8-dihydro-1~{H}-purin-8-ylium-9-yl)-3,4-dihydroxy-tetrahydrofuran-2-yl]methoxy-hydroxy-phosphoryl] phosphono hydrogen phosphate
   49    51     1     0     0
SMALL
USER_CHARGES

@<TRIPOS>ATOM
      1 PG          4.5660   31.3910   21.6350 P.3       1 GTP         1.7996
      2 O1G         4.6130   31.9070   23.0690 O.2       1 GTP        -0.8112
      3 O2G         3.8920   32.3190   20.6310 O.3       1 GTP        -0.7934
      4 O3G         4.1430   30.0120   21.6130 O.3       1 GTP        -0.7934
      5 O3B         6.1600   31.3600   21.2280 O.3       1 GTP        -0.8067
      6 PB          6.8770   31.2020   19.7450 P.3       1 GTP         1.9429
      7 O1B         7.0790   29.7090   19.4730 O.2       1 GTP        -0.8303
      8 O2B         6.1250   31.9700   18.7490 O.3       1 GTP        -0.7951
      9 O3A         8.2510   31.8900   20.0030 O.3       1 GTP        -0.7994
     10 PA          8.8460   33.2610   19.4110 P.3       1 GTP         1.7871
     11 O1A         8.8880   33.2560   17.9570 O.2       1 GTP        -0.8044
     12 O2A         8.1050   34.3980   20.1290 O.3       1 GTP        -0.8076
     13 O5'        10.4300   33.1530   19.9000 O.3       1 GTP        -0.5620
     14 C5'        10.5490   33.0440   21.3780 C.3       1 GTP         0.1570
     15 C4'        12.0460   33.6180   21.4740 C.3       1 GTP         0.1395
     16 O4'        13.0520   32.8300   20.8180 O.3       1 GTP        -0.3978
     17 C3'        12.3070   34.9690   21.0570 C.3       1 GTP         0.0953
     18 O3'        13.1090   35.6720   21.9710 O.3       1 GTP        -0.5639
     19 C2'        12.8390   34.9710   19.5930 C.3       1 GTP         0.0640
     20 O2'        13.6720   35.9610   19.3550 O.3       1 GTP        -0.5724
     21 C1'        13.8460   33.6220   19.9270 C.3       1 GTP         0.4182
     22 N9         14.0010   32.8330   18.6490 N.pl3     1 GTP        -0.4563
     23 C8         12.9340   32.4520   17.8480 C.cat     1 GTP         0.2386
     24 N7         13.6400   31.7980   16.8990 N.pl3     1 GTP        -0.4432
     25 C5         15.0290   31.8890   17.0010 C.ar      1 GTP        -0.2050
     26 C6         15.8990   31.3940   16.2380 C.ar      1 GTP         0.7599
     27 O6         15.9820   30.6800   15.1910 O.2       1 GTP        -0.5606
     28 N1         17.2740   31.6280   16.8000 N.am      1 GTP        -0.5020
     29 C2         17.3040   32.2950   17.8960 C.ar      1 GTP         0.7674
     30 N2         18.6770   32.4500   18.4750 N.pl3     1 GTP        -0.9014
     31 N3         16.3840   32.7360   18.7390 N.ar      1 GTP        -0.6718
     32 C4         15.2180   32.5170   18.1350 C.ar      1 GTP         0.3897
     33 HOG2        2.8098   32.5054   20.6948 H         1 GTP         0.5007
     34 HOG3        3.1013   29.7523   21.8527 H         1 GTP         0.5007
     35 HOB2        5.1247   31.6353   18.4370 H         1 GTP         0.5193
     36 HOA2        7.0451   34.5904   19.9065 H         1 GTP         0.4890
     37 H5'         9.7718   33.6593   21.8548 H         1 GTP         0.0511
     38 H5''       10.4216   31.9939   21.6797 H         1 GTP         0.0511
     39 H4'        12.2583   33.6282   22.5533 H         1 GTP         0.1554
     40 H3'        11.3699   35.5332   21.1732 H         1 GTP         0.0796
     41 HO3'       12.8165   35.7279   23.0299 H         1 GTP         0.4259
     42 H2'        12.1431   35.1631   18.7630 H         1 GTP         0.0621
     43 HO2'       13.2830   36.9601   19.1092 H         1 GTP         0.4287
     44 H1'        14.8453   33.7628   20.3647 H         1 GTP         0.1525
     45 H8         11.8730   32.6240   17.9510 H         1 GTP         0.2675
     46 HN1        18.1572   31.2365   16.2739 H         1 GTP         0.3601
     47 HN21       19.5568   32.1296   17.8977 H         1 GTP         0.4770
     48 HN22       18.8054   32.8843   19.4775 H         1 GTP         0.4770
     49 H49        13.1150   31.2389   16.1105 H         1 GTP         0.5213
@<TRIPOS>BOND
     1    1    2 2
     2    1    3 1
     3    1    4 1
     4    1    5 1
     5    3   33 1
     6    4   34 1
     7    5    6 1
     8    6    7 2
     9    6    8 1
    10    6    9 1
    11    8   35 1
    12    9   10 1
    13   10   11 2
    14   10   12 1
    15   10   13 1
    16   12   36 1
    17   13   14 1
    18   14   15 1
    19   14   37 1
    20   14   38 1
    21   15   16 1
    22   15   17 1
    23   15   39 1
    24   16   21 1
    25   17   18 1
    26   17   19 1
    27   17   40 1
    28   18   41 1
    29   19   20 1
    30   19   21 1
    31   19   42 1
    32   20   43 1
    33   21   22 1
    34   21   44 1
    35   22   23 ar
    36   22   32 ar
    37   23   24 ar
    38   23   45 1
    39   24   25 ar
    40   24   49 1
    41   25   26 ar
    42   25   32 ar
    43   26   27 2
    44   26   28 ar
    45   28   29 ar
    46   28   46 1
    47   29   30 1
    48   29   31 ar
    49   30   47 1
    50   30   48 1
    51   31   32 ar
@<TRIPOS>SUBSTRUCTURE
     1 GTP         1 GROUP   0 A     ****
@<TRIPOS>MOLECULE
[[[5-(2-amino-6-oxo-7,8-dihydro-1~{H}-purin-8-ylium-9-yl)-3,4-dihydroxy-tetrahydrofuran-2-yl]methoxy-hydroxy-phosphoryl]oxy-oxido-phosphoryl] phosphate
   46    48     1     0     0
SMALL
USER_CHARGES

@<TRIPOS>ATOM
      1 PG          4.5660   31.3910   21.6350 P.3       1 GTP        -1.1921
      2 O1G         4.6130   31.9070   23.0690 O.2       1 GTP         0.3195
      3 O2G         3.8920   32.3190   20.6310 O.3       1 GTP         0.3195
      4 O3G         4.1430   30.0120   21.6130 O.3       1 GTP         0.3195
      5 O3B         6.1600   31.3600   21.2280 O.3       1 GTP         0.4672
      6 PB          6.8770   31.2020   19.7450 P.3       1 GTP        -1.1062
      7 O1B         7.0790   29.7090   19.4730 O.2       1 GTP         0.3195
      8 O2B         6.1250   31.9700   18.7490 O.3       1 GTP         0.3195
      9 O3A         8.2510   31.8900   20.0030 O.3       1 GTP         0.4672
     10 PA          8.8460   33.2610   19.4110 P.3       1 GTP        -0.9715
     11 O1A         8.8880   33.2560   17.9570 O.2       1 GTP         0.2707
     12 O2A         8.1050   34.3980   20.1290 O.3       1 GTP         0.0326
     13 O5'        10.4300   33.1530   19.9000 O.3       1 GTP         0.1618
     14 C5'        10.5490   33.0440   21.3780 C.3       1 GTP         0.1504
     15 C4'        12.0460   33.6180   21.4740 C.3       1 GTP         0.1111
     16 O4'        13.0520   32.8300   20.8180 O.3       1 GTP        -0.1436
     17 C3'        12.3070   34.9690   21.0570 C.3       1 GTP         0.1111
     18 O3'        13.1090   35.6720   21.9710 O.3       1 GTP        -0.2728
     19 C2'        12.8390   34.9710   19.5930 C.3       1 GTP         0.1111
     20 O2'        13.6720   35.9610   19.3550 O.3       1 GTP        -0.2728
     21 C1'        13.8460   33.6220   19.9270 C.3       1 GTP         0.2693
     22 N9         14.0010   32.8330   18.6490 N.pl3     1 GTP        -0.3222
     23 C8         12.9340   32.4520   17.8480 C.cat     1 GTP         0.1640
     24 N7         13.6400   31.7980   16.8990 N.pl3     1 GTP        -0.3688
     25 C5         15.0290   31.8890   17.0010 C.ar      1 GTP         0.0648
     26 C6         15.8990   31.3940   16.2380 C.ar      1 GTP         0.3597
     27 O6         15.9820   30.6800   15.1910 O.2       1 GTP        -0.2755
     28 N1         17.2740   31.6280   16.8000 N.am      1 GTP        -0.1604
     29 C2         17.3040   32.2950   17.8960 C.ar      1 GTP         0.4468
     30 N2         18.6770   32.4500   18.4750 N.pl3     1 GTP        -0.5618
     31 N3         16.3840   32.7360   18.7390 N.ar      1 GTP        -0.4283
     32 C4         15.2180   32.5170   18.1350 C.ar      1 GTP         0.2226
     33 HOA2        7.0451   34.5904   19.9065 H         1 GTP         0.2010
     34 H5'         9.7718   33.6593   21.8548 H         1 GTP        -0.0393
     35 H5''       10.4216   31.9939   21.6797 H         1 GTP        -0.0393
     36 H4'        12.2583   33.6282   22.5533 H         1 GTP        -0.0393
     37 H3'        11.3699   35.5332   21.1732 H         1 GTP        -0.0393
     38 HO3'       12.8165   35.7279   23.0299 H         1 GTP         0.2010
     39 H2'        12.1431   35.1631   18.7630 H         1 GTP        -0.0393
     40 HO2'       13.2830   36.9601   19.1092 H         1 GTP         0.2010
     41 H1'        14.8453   33.7628   20.3647 H         1 GTP        -0.0393
     42 H8         11.8730   32.6240   17.9510 H         1 GTP         0.0000
     43 HN1        18.1572   31.2365   16.2739 H         1 GTP         0.0865
     44 HN21       19.5568   32.1296   17.8977 H         1 GTP         0.2048
     45 HN22       18.8054   32.8843   19.4775 H         1 GTP         0.2048
     46 H46        13.1150   31.2389   16.1105 H         1 GTP         0.2048
@<TRIPOS>BOND
     1    1    2 2
     2    1    3 1
     3    1    4 1
     4    1    5 1
     5    5    6 1
     6    6    7 2
     7    6    8 1
     8    6    9 1
     9    9   10 1
    10   10   11 2
    11   10   12 1
    12   10   13 1
    13   12   33 1
    14   13   14 1
    15   14   15 1
    16   14   34 1
    17   14   35 1
    18   15   16 1
    19   15   17 1
    20   15   36 1
    21   16   21 1
    22   17   18 1
    23   17   19 1
    24   17   37 1
    25   18   38 1
    26   19   20 1
    27   19   21 1
    28   19   39 1
    29   20   40 1
    30   21   22 1
    31   21   41 1
    32   22   23 ar
    33   22   32 ar
    34   23   24 ar
    35   23   42 1
    36   24   25 ar
    37   24   46 1
    38   25   26 ar
    39   25   32 ar
    40   26   27 2
    41   26   28 ar
    42   28   29 ar
    43   28   43 1
    44   29   30 1
    45   29   31 ar
    46   30   44 1
    47   30   45 1
    48   31   32 ar
@<TRIPOS>SUBSTRUCTURE
     1 GTP         1 GROUP   0 A     ****
@<TRIPOS>MOLECULE
[[[5-(2-amino-6-oxo-1,3-dihydropurin-2-ylium-9-yl)-3,4-dihydroxy-tetrahydrofuran-2-yl]methoxy-oxido-phosphoryl]oxy-oxido-phosphoryl] hydrogen phosphate
   46    48     1     0     0
SMALL
USER_CHARGES

@<TRIPOS>ATOM
      1 PG          4.5660   31.3910   21.6350 P.3       1 GTP         1.5400
      2 O1G         4.6130   31.9070   23.0690 O.2       1 GTP        -0.8909
      3 O2G         3.8920   32.3190   20.6310 O.3       1 GTP        -0.8909
      4 O3G         4.1430   30.0120   21.6130 O.3       1 GTP        -0.7980
      5 O3B         6.1600   31.3600   21.2280 O.3       1 GTP        -0.7612
      6 PB          6.8770   31.2020   19.7450 P.3       1 GTP         1.5847
      7 O1B         7.0790   29.7090   19.4730 O.2       1 GTP        -0.8859
      8 O2B         6.1250   31.9700   18.7490 O.3       1 GTP        -0.8859
      9 O3A         8.2510   31.8900   20.0030 O.3       1 GTP        -0.7486
     10 PA          8.8460   33.2610   19.4110 P.3       1 GTP         1.5001
     11 O1A         8.8880   33.2560   17.9570 O.2       1 GTP        -0.8487
     12 O2A         8.1050   34.3980   20.1290 O.3       1 GTP        -0.8487
     13 O5'        10.4300   33.1530   19.9000 O.3       1 GTP        -0.5474
     14 C5'        10.5490   33.0440   21.3780 C.3       1 GTP         0.2547
     15 C4'        12.0460   33.6180   21.4740 C.3       1 GTP         0.0926
     16 O4'        13.0520   32.8300   20.8180 O.3       1 GTP        -0.3593
     17 C3'        12.3070   34.9690   21.0570 C.3       1 GTP         0.0907
     18 O3'        13.1090   35.6720   21.9710 O.3       1 GTP        -0.5209
     19 C2'        12.8390   34.9710   19.5930 C.3       1 GTP         0.0305
     20 O2'        13.6720   35.9610   19.3550 O.3       1 GTP        -0.5978
     21 C1'        13.8460   33.6220   19.9270 C.3       1 GTP         0.2339
     22 N9         14.0010   32.8330   18.6490 N.pl3     1 GTP        -0.1765
     23 C8         12.9340   32.4520   17.8480 C.ar      1 GTP         0.4947
     24 N7         13.6400   31.7980   16.8990 N.ar      1 GTP        -0.5802
     25 C5         15.0290   31.8890   17.0010 C.ar      1 GTP         0.2279
     26 C6         15.8990   31.3940   16.2380 C.ar      1 GTP         0.6513
     27 O6         15.9820   30.6800   15.1910 O.2       1 GTP        -0.5111
     28 N1         17.2740   31.6280   16.8000 N.am      1 GTP        -0.4713
     29 C2         17.3040   32.2950   17.8960 C.cat     1 GTP         0.5256
     30 N2         18.6770   32.4500   18.4750 N.pl3     1 GTP        -0.8665
     31 N3         16.3840   32.7360   18.7390 N.pl3     1 GTP        -0.5398
     32 C4         15.2180   32.5170   18.1350 C.ar      1 GTP        -0.0275
     33 HOG3        3.1013   29.7523   21.8527 H         1 GTP         0.4161
     34 H5'         9.7718   33.6593   21.8548 H         1 GTP         0.0348
     35 H5''       10.4216   31.9939   21.6797 H         1 GTP         0.0348
     36 H4'        12.2583   33.6282   22.5533 H         1 GTP         0.1215
     37 H3'        11.3699   35.5332   21.1732 H         1 GTP         0.0576
     38 HO3'       12.8165   35.7279   23.0299 H         1 GTP         0.3842
     39 H2'        12.1431   35.1631   18.7630 H         1 GTP         0.0252
     40 HO2'       13.2830   36.9601   19.1092 H         1 GTP         0.4224
     41 H1'        14.8453   33.7628   20.3647 H         1 GTP         0.0745
     42 H8         11.8730   32.6240   17.9510 H         1 GTP         0.1522
     43 HN1        18.1572   31.2365   16.2739 H         1 GTP         0.3518
     44 HN21       19.5568   32.1296   17.8977 H         1 GTP         0.4761
     45 HN22       18.8054   32.8843   19.4775 H         1 GTP         0.4761
     46 H46        16.6849   33.1690   19.7044 H         1 GTP         0.5030
@<TRIPOS>BOND
     1    1    2 2
     2    1    3 1
     3    1    4 1
     4    1    5 1
     5    4   33 1
     6    5    6 1
     7    6    7 2
     8    6    8 1
     9    6    9 1
    10    9   10 1
    11   10   11 2
    12   10   12 1
    13   10   13 1
    14   13   14 1
    15   14   15 1
    16   14   34 1
    17   14   35 1
    18   15   16 1
    19   15   17 1
    20   15   36 1
    21   16   21 1
    22   17   18 1
    23   17   19 1
    24   17   37 1
    25   18   38 1
    26   19   20 1
    27   19   21 1
    28   19   39 1
    29   20   40 1
    30   21   22 1
    31   21   41 1
    32   22   23 ar
    33   22   32 ar
    34   23   24 ar
    35   23   42 1
    36   24   25 ar
    37   25   26 ar
    38   25   32 ar
    39   26   27 2
    40   26   28 ar
    41   28   29 ar
    42   28   43 1
    43   29   30 1
    44   29   31 ar
    45   30   44 1
    46   30   45 1
    47   31   32 ar
    48   31   46 1
@<TRIPOS>SUBSTRUCTURE
     1 GTP         1 GROUP   0 A     ****
