@<TRIPOS>MOLECULE
[[[5-(2-amino-6-oxo-7,8-dihydro-1~{H}-purin-8-ylium-9-yl)-3,4-dihydroxy-tetrahydrofuran-2-yl]methoxy-hydroxy-phosphoryl]oxy-oxido-phosphoryl] phosphate
   46    48     1     0     0
SMALL
USER_CHARGES

@<TRIPOS>ATOM
      1 PG         -2.3112   -0.3592   -3.8708 P.3       1 GTP        -1.1921
      2 O1G        -1.1101    0.2414   -4.5933 O.co2     1 GTP         0.3195
      3 O2G        -3.5992   -0.3643   -4.6870 O.co2     1 GTP         0.3195
      4 O3G        -2.4856    0.1296   -2.4365 O.co2     1 GTP         0.3195
      5 O3B        -1.9296   -1.9530   -3.6968 O.3       1 GTP         0.4672
      6 PB         -0.6877   -2.6969   -2.9416 P.3       1 GTP        -1.1062
      7 O1B        -0.6177   -2.2068   -1.5125 O.co2     1 GTP         0.3195
      8 O2B        -0.7603   -4.1755   -3.2533 O.co2     1 GTP         0.3195
      9 O3A         0.5548   -2.0505   -3.7791 O.3       1 GTP         0.4672
     10 PA          2.1490   -2.2861   -3.6338 P.3       1 GTP        -0.9715
     11 O1A         2.5798   -3.7086   -3.8453 O.2       1 GTP         0.2707
     12 O2A         2.7964   -1.2188   -4.6629 O.3       1 GTP         0.0326
     13 O5'         2.5245   -1.6648   -2.1878 O.3       1 GTP         0.1618
     14 C5'         2.2816   -0.2918   -1.9206 C.3       1 GTP         0.1504
     15 C4'         2.7248    0.0226   -0.4980 C.3       1 GTP         0.1111
     16 O4'         2.4697    1.4219   -0.2462 O.3       1 GTP        -0.1436
     17 C3'         1.9404   -0.7419    0.5596 C.3       1 GTP         0.1111
     18 O3'         2.7418   -0.8086    1.7389 O.3       1 GTP        -0.2728
     19 C2'         0.7477    0.1630    0.7858 C.3       1 GTP         0.1111
     20 O2'         0.1373   -0.0577    2.0407 O.3       1 GTP        -0.2728
     21 C1'         1.3733    1.5427    0.6747 C.3       1 GTP         0.2693
     22 N9          0.4520    2.5240    0.1767 N.pl3     1 GTP        -0.3222
     23 C8          0.2203    2.8205   -1.0970 C.ar      1 GTP         0.1640
     24 N7         -0.6947    3.7752   -1.2304 N.pl3     1 GTP        -0.3688
     25 C5         -1.0607    4.0987    0.0476 C.ar      1 GTP         0.0648
     26 C6         -2.0310    5.0839    0.5029 C.ar      1 GTP         0.3597
     27 O6         -2.6779    5.7867   -0.2609 O.2       1 GTP        -0.2755
     28 N1         -2.1030    5.0975    1.8948 N.pl3     1 GTP        -0.1604
     29 C2         -1.3422    4.2721    2.7403 C.ar      1 GTP         0.4468
     30 N2         -1.5624    4.4419    4.0823 N.pl3     1 GTP        -0.5618
     31 N3         -0.4796    3.3981    2.2792 N.2       1 GTP        -0.4283
     32 C4         -0.3754    3.3496    0.9208 C.ar      1 GTP         0.2226
     33 HOA2        3.7717   -1.1194   -4.6922 H         1 GTP         0.2010
     34 H5'         2.8432    0.3119   -2.6398 H         1 GTP        -0.0393
     35 H5''        1.2128   -0.0927   -2.0428 H         1 GTP        -0.0393
     36 H4'         3.8044   -0.1397   -0.4040 H         1 GTP        -0.0393
     37 H3'         1.6764   -1.7639    0.2728 H         1 GTP        -0.0393
     38 HO3'        2.2232   -1.2979    2.3953 H         1 GTP         0.2010
     39 H2'        -0.0011    0.0027    0.0003 H         1 GTP        -0.0393
     40 HO2'       -0.6141    0.5574    2.1082 H         1 GTP         0.2010
     41 H1'         1.7826    1.9024    1.6451 H         1 GTP        -0.0393
     42 H8          0.7110    2.3472   -1.9295 H         1 GTP         0.0000
     43 HN1        -2.7504    5.7495    2.3282 H         1 GTP         0.0865
     44 HN21       -1.0467    3.8796    4.7190 H         1 GTP         0.2048
     45 HN22       -2.2294    5.1209    4.3680 H         1 GTP         0.2048
     46 H46        -1.0382    4.1687   -2.0954 H         1 GTP         0.2048
@<TRIPOS>BOND
     1    1    2 2
     2    1    3 1
     3    1    4 1
     4    1    5 1
     5    5    6 1
     6    6    7 2
     7    6    8 1
     8    6    9 1
     9    9   10 1
    10   10   11 2
    11   10   12 1
    12   10   13 1
    13   12   33 1
    14   13   14 1
    15   14   15 1
    16   14   34 1
    17   14   35 1
    18   15   16 1
    19   15   17 1
    20   15   36 1
    21   16   21 1
    22   17   18 1
    23   17   19 1
    24   17   37 1
    25   18   38 1
    26   19   20 1
    27   19   21 1
    28   19   39 1
    29   20   40 1
    30   21   22 1
    31   21   41 1
    32   22   23 ar
    33   22   32 ar
    34   23   24 ar
    35   23   42 1
    36   24   25 ar
    37   24   46 1
    38   25   26 ar
    39   25   32 ar
    40   26   27 2
    41   26   28 ar
    42   28   29 ar
    43   28   43 1
    44   29   30 1
    45   29   31 ar
    46   30   44 1
    47   30   45 1
    48   31   32 ar
@<TRIPOS>SUBSTRUCTURE
     1 GTP         1 GROUP 0 A     ****
@<TRIPOS>MOLECULE
[[[5-(2-amino-6-oxo-7,8-dihydro-1~{H}-purin-8-ylium-9-yl)-3,4-dihydroxy-tetrahydrofuran-2-yl]methoxy-hydroxy-phosphoryl]oxy-oxido-phosphoryl] phosphate
   46    48     1     0     0
SMALL
USER_CHARGES

@<TRIPOS>ATOM
      1 PG          6.1560   -2.2849   -2.2438 P.3       1 GTP        -1.1921
      2 O1G         7.3695   -1.6415   -2.9064 O.co2     1 GTP         0.3195
      3 O2G         5.8606   -1.7729   -0.8383 O.co2     1 GTP         0.3195
      4 O3G         6.1043   -3.8036   -2.3763 O.co2     1 GTP         0.3195
      5 O3B         4.8762   -1.7702   -3.1455 O.3       1 GTP         0.4672
      6 PB          4.5192   -1.9510   -4.7285 P.3       1 GTP        -1.1062
      7 O1B         5.5345   -1.1891   -5.5508 O.co2     1 GTP         0.3195
      8 O2B         4.2500   -3.4167   -4.9895 O.co2     1 GTP         0.3195
      9 O3A         3.0998   -1.1470   -4.7716 O.3       1 GTP         0.4672
     10 PA          2.7598    0.3945   -4.4166 P.3       1 GTP        -0.9715
     11 O1A         3.4977    1.3943   -5.2592 O.2       1 GTP         0.2707
     12 O2A         1.1474    0.4728   -4.5232 O.3       1 GTP         0.0326
     13 O5'         3.0213    0.5153   -2.8245 O.3       1 GTP         0.1618
     14 C5'         2.2816   -0.2918   -1.9206 C.3       1 GTP         0.1504
     15 C4'         2.7248    0.0226   -0.4980 C.3       1 GTP         0.1111
     16 O4'         2.4697    1.4219   -0.2462 O.3       1 GTP        -0.1436
     17 C3'         1.9404   -0.7419    0.5596 C.3       1 GTP         0.1111
     18 O3'         2.7418   -0.8086    1.7389 O.3       1 GTP        -0.2728
     19 C2'         0.7477    0.1630    0.7858 C.3       1 GTP         0.1111
     20 O2'         0.1373   -0.0577    2.0407 O.3       1 GTP        -0.2728
     21 C1'         1.3733    1.5427    0.6747 C.3       1 GTP         0.2693
     22 N9          0.4520    2.5240    0.1767 N.pl3     1 GTP        -0.3222
     23 C8          0.2203    2.8205   -1.0970 C.ar      1 GTP         0.1640
     24 N7         -0.6947    3.7752   -1.2304 N.pl3     1 GTP        -0.3688
     25 C5         -1.0607    4.0987    0.0476 C.ar      1 GTP         0.0648
     26 C6         -2.0310    5.0839    0.5029 C.ar      1 GTP         0.3597
     27 O6         -2.6779    5.7867   -0.2609 O.2       1 GTP        -0.2755
     28 N1         -2.1030    5.0975    1.8948 N.pl3     1 GTP        -0.1604
     29 C2         -1.3422    4.2721    2.7403 C.ar      1 GTP         0.4468
     30 N2         -1.5624    4.4419    4.0823 N.pl3     1 GTP        -0.5618
     31 N3         -0.4796    3.3981    2.2792 N.2       1 GTP        -0.4283
     32 C4         -0.3754    3.3496    0.9208 C.ar      1 GTP         0.2226
     33 HOA2        0.6950    1.3054   -4.2697 H         1 GTP         0.2010
     34 H5'         1.2163   -0.0770   -2.0471 H         1 GTP        -0.0393
     35 H5''        2.4655   -1.3443   -2.1563 H         1 GTP        -0.0393
     36 H4'         3.8044   -0.1397   -0.4040 H         1 GTP        -0.0393
     37 H3'         1.6764   -1.7639    0.2728 H         1 GTP        -0.0393
     38 HO3'        2.2232   -1.2979    2.3953 H         1 GTP         0.2010
     39 H2'        -0.0011    0.0027    0.0003 H         1 GTP        -0.0393
     40 HO2'       -0.6141    0.5574    2.1082 H         1 GTP         0.2010
     41 H1'         1.7826    1.9024    1.6451 H         1 GTP        -0.0393
     42 H8          0.7110    2.3472   -1.9295 H         1 GTP         0.0000
     43 HN1        -2.7504    5.7495    2.3282 H         1 GTP         0.0865
     44 HN21       -1.0467    3.8796    4.7190 H         1 GTP         0.2048
     45 HN22       -2.2294    5.1209    4.3680 H         1 GTP         0.2048
     46 H46        -1.0382    4.1687   -2.0954 H         1 GTP         0.2048
@<TRIPOS>BOND
     1    1    2 2
     2    1    3 1
     3    1    4 1
     4    1    5 1
     5    5    6 1
     6    6    7 2
     7    6    8 1
     8    6    9 1
     9    9   10 1
    10   10   11 2
    11   10   12 1
    12   10   13 1
    13   12   33 1
    14   13   14 1
    15   14   15 1
    16   14   34 1
    17   14   35 1
    18   15   16 1
    19   15   17 1
    20   15   36 1
    21   16   21 1
    22   17   18 1
    23   17   19 1
    24   17   37 1
    25   18   38 1
    26   19   20 1
    27   19   21 1
    28   19   39 1
    29   20   40 1
    30   21   22 1
    31   21   41 1
    32   22   23 ar
    33   22   32 ar
    34   23   24 ar
    35   23   42 1
    36   24   25 ar
    37   24   46 1
    38   25   26 ar
    39   25   32 ar
    40   26   27 2
    41   26   28 ar
    42   28   29 ar
    43   28   43 1
    44   29   30 1
    45   29   31 ar
    46   30   44 1
    47   30   45 1
    48   31   32 ar
@<TRIPOS>SUBSTRUCTURE
     1 GTP         1 GROUP 0 A     ****
@<TRIPOS>MOLECULE
[[[5-(2-amino-6-oxo-7,8-dihydro-1~{H}-purin-8-ylium-9-yl)-3,4-dihydroxy-tetrahydrofuran-2-yl]methoxy-hydroxy-phosphoryl]oxy-oxido-phosphoryl] phosphate
   46    48     1     0     0
SMALL
USER_CHARGES

@<TRIPOS>ATOM
      1 PG          2.8992   -4.4649   -4.5864 P.3       1 GTP        -1.1921
      2 O1G         1.5955   -3.6737   -4.5707 O.co2     1 GTP         0.3195
      3 O2G         2.9044   -5.6512   -5.5443 O.co2     1 GTP         0.3195
      4 O3G         3.4542   -4.7813   -3.2013 O.co2     1 GTP         0.3195
      5 O3B         4.0046   -3.4203   -5.2210 O.3       1 GTP         0.4672
      6 PB          4.5192   -1.9510   -4.7285 P.3       1 GTP        -1.1062
      7 O1B         4.9791   -2.0485   -3.2909 O.co2     1 GTP         0.3195
      8 O2B         5.4264   -1.3833   -5.7978 O.co2     1 GTP         0.3195
      9 O3A         3.0998   -1.1470   -4.7716 O.3       1 GTP         0.4672
     10 PA          2.7598    0.3945   -4.4166 P.3       1 GTP        -0.9715
     11 O1A         3.4977    1.3943   -5.2592 O.2       1 GTP         0.2707
     12 O2A         1.1474    0.4728   -4.5232 O.3       1 GTP         0.0326
     13 O5'         3.0213    0.5153   -2.8245 O.3       1 GTP         0.1618
     14 C5'         2.2816   -0.2918   -1.9206 C.3       1 GTP         0.1504
     15 C4'         2.7248    0.0226   -0.4980 C.3       1 GTP         0.1111
     16 O4'         2.4697    1.4219   -0.2462 O.3       1 GTP        -0.1436
     17 C3'         1.9404   -0.7419    0.5596 C.3       1 GTP         0.1111
     18 O3'         2.7418   -0.8086    1.7389 O.3       1 GTP        -0.2728
     19 C2'         0.7477    0.1630    0.7858 C.3       1 GTP         0.1111
     20 O2'         0.1373   -0.0577    2.0407 O.3       1 GTP        -0.2728
     21 C1'         1.3733    1.5427    0.6747 C.3       1 GTP         0.2693
     22 N9          0.4520    2.5240    0.1767 N.pl3     1 GTP        -0.3222
     23 C8          0.2203    2.8205   -1.0970 C.ar      1 GTP         0.1640
     24 N7         -0.6947    3.7752   -1.2304 N.pl3     1 GTP        -0.3688
     25 C5         -1.0607    4.0987    0.0476 C.ar      1 GTP         0.0648
     26 C6         -2.0310    5.0839    0.5029 C.ar      1 GTP         0.3597
     27 O6         -2.6779    5.7867   -0.2609 O.2       1 GTP        -0.2755
     28 N1         -2.1030    5.0975    1.8948 N.pl3     1 GTP        -0.1604
     29 C2         -1.3422    4.2721    2.7403 C.ar      1 GTP         0.4468
     30 N2         -1.5624    4.4419    4.0823 N.pl3     1 GTP        -0.5618
     31 N3         -0.4796    3.3981    2.2792 N.2       1 GTP        -0.4283
     32 C4         -0.3754    3.3496    0.9208 C.ar      1 GTP         0.2226
     33 HOA2        0.6950    1.3054   -4.2697 H         1 GTP         0.2010
     34 H5'         1.2163   -0.0770   -2.0471 H         1 GTP        -0.0393
     35 H5''        2.4655   -1.3443   -2.1563 H         1 GTP        -0.0393
     36 H4'         3.8044   -0.1397   -0.4040 H         1 GTP        -0.0393
     37 H3'         1.6764   -1.7639    0.2728 H         1 GTP        -0.0393
     38 HO3'        2.2232   -1.2979    2.3953 H         1 GTP         0.2010
     39 H2'        -0.0011    0.0027    0.0003 H         1 GTP        -0.0393
     40 HO2'       -0.6141    0.5574    2.1082 H         1 GTP         0.2010
     41 H1'         1.7826    1.9024    1.6451 H         1 GTP        -0.0393
     42 H8          0.7110    2.3472   -1.9295 H         1 GTP         0.0000
     43 HN1        -2.7504    5.7495    2.3282 H         1 GTP         0.0865
     44 HN21       -1.0467    3.8796    4.7190 H         1 GTP         0.2048
     45 HN22       -2.2294    5.1209    4.3680 H         1 GTP         0.2048
     46 H46        -1.0382    4.1687   -2.0954 H         1 GTP         0.2048
@<TRIPOS>BOND
     1    1    2 2
     2    1    3 1
     3    1    4 1
     4    1    5 1
     5    5    6 1
     6    6    7 2
     7    6    8 1
     8    6    9 1
     9    9   10 1
    10   10   11 2
    11   10   12 1
    12   10   13 1
    13   12   33 1
    14   13   14 1
    15   14   15 1
    16   14   34 1
    17   14   35 1
    18   15   16 1
    19   15   17 1
    20   15   36 1
    21   16   21 1
    22   17   18 1
    23   17   19 1
    24   17   37 1
    25   18   38 1
    26   19   20 1
    27   19   21 1
    28   19   39 1
    29   20   40 1
    30   21   22 1
    31   21   41 1
    32   22   23 ar
    33   22   32 ar
    34   23   24 ar
    35   23   42 1
    36   24   25 ar
    37   24   46 1
    38   25   26 ar
    39   25   32 ar
    40   26   27 2
    41   26   28 ar
    42   28   29 ar
    43   28   43 1
    44   29   30 1
    45   29   31 ar
    46   30   44 1
    47   30   45 1
    48   31   32 ar
@<TRIPOS>SUBSTRUCTURE
     1 GTP         1 GROUP 0 A     ****
@<TRIPOS>MOLECULE
[[[5-(2-amino-6-oxo-7,8-dihydro-1~{H}-purin-8-ylium-9-yl)-3,4-dihydroxy-tetrahydrofuran-2-yl]methoxy-hydroxy-phosphoryl]oxy-oxido-phosphoryl] phosphate
   46    48     1     0     0
SMALL
USER_CHARGES

@<TRIPOS>ATOM
      1 PG          6.9111   -1.1723   -6.3522 P.3       1 GTP        -1.1921
      2 O1G         6.9770   -2.5537   -6.9948 O.co2     1 GTP         0.3195
      3 O2G         7.0543   -0.0139   -7.3333 O.co2     1 GTP         0.3195
      4 O3G         7.7587   -1.0287   -5.0921 O.co2     1 GTP         0.3195
      5 O3B         5.3637   -1.0518   -5.7981 O.3       1 GTP         0.4672
      6 PB          4.5192   -1.9510   -4.7285 P.3       1 GTP        -1.1062
      7 O1B         4.3122   -3.3338   -5.3052 O.co2     1 GTP         0.3195
      8 O2B         5.1365   -1.7642   -3.3600 O.co2     1 GTP         0.3195
      9 O3A         3.0998   -1.1470   -4.7716 O.3       1 GTP         0.4672
     10 PA          2.7598    0.3945   -4.4166 P.3       1 GTP        -0.9715
     11 O1A         3.4977    1.3943   -5.2592 O.2       1 GTP         0.2707
     12 O2A         1.1474    0.4728   -4.5232 O.3       1 GTP         0.0326
     13 O5'         3.0213    0.5153   -2.8245 O.3       1 GTP         0.1618
     14 C5'         2.2816   -0.2918   -1.9206 C.3       1 GTP         0.1504
     15 C4'         2.7248    0.0226   -0.4980 C.3       1 GTP         0.1111
     16 O4'         2.4697    1.4219   -0.2462 O.3       1 GTP        -0.1436
     17 C3'         1.9404   -0.7419    0.5596 C.3       1 GTP         0.1111
     18 O3'         2.7418   -0.8086    1.7389 O.3       1 GTP        -0.2728
     19 C2'         0.7477    0.1630    0.7858 C.3       1 GTP         0.1111
     20 O2'         0.1373   -0.0577    2.0407 O.3       1 GTP        -0.2728
     21 C1'         1.3733    1.5427    0.6747 C.3       1 GTP         0.2693
     22 N9          0.4520    2.5240    0.1767 N.pl3     1 GTP        -0.3222
     23 C8          0.2203    2.8205   -1.0970 C.ar      1 GTP         0.1640
     24 N7         -0.6947    3.7752   -1.2304 N.pl3     1 GTP        -0.3688
     25 C5         -1.0607    4.0987    0.0476 C.ar      1 GTP         0.0648
     26 C6         -2.0310    5.0839    0.5029 C.ar      1 GTP         0.3597
     27 O6         -2.6779    5.7867   -0.2609 O.2       1 GTP        -0.2755
     28 N1         -2.1030    5.0975    1.8948 N.pl3     1 GTP        -0.1604
     29 C2         -1.3422    4.2721    2.7403 C.ar      1 GTP         0.4468
     30 N2         -1.5624    4.4419    4.0823 N.pl3     1 GTP        -0.5618
     31 N3         -0.4796    3.3981    2.2792 N.2       1 GTP        -0.4283
     32 C4         -0.3754    3.3496    0.9208 C.ar      1 GTP         0.2226
     33 HOA2        0.6950    1.3054   -4.2697 H         1 GTP         0.2010
     34 H5'         1.2163   -0.0770   -2.0471 H         1 GTP        -0.0393
     35 H5''        2.4655   -1.3443   -2.1563 H         1 GTP        -0.0393
     36 H4'         3.8044   -0.1397   -0.4040 H         1 GTP        -0.0393
     37 H3'         1.6764   -1.7639    0.2728 H         1 GTP        -0.0393
     38 HO3'        2.2232   -1.2979    2.3953 H         1 GTP         0.2010
     39 H2'        -0.0011    0.0027    0.0003 H         1 GTP        -0.0393
     40 HO2'       -0.6141    0.5574    2.1082 H         1 GTP         0.2010
     41 H1'         1.7826    1.9024    1.6451 H         1 GTP        -0.0393
     42 H8          0.7110    2.3472   -1.9295 H         1 GTP         0.0000
     43 HN1        -2.7504    5.7495    2.3282 H         1 GTP         0.0865
     44 HN21       -1.0467    3.8796    4.7190 H         1 GTP         0.2048
     45 HN22       -2.2294    5.1209    4.3680 H         1 GTP         0.2048
     46 H46        -1.0382    4.1687   -2.0954 H         1 GTP         0.2048
@<TRIPOS>BOND
     1    1    2 2
     2    1    3 1
     3    1    4 1
     4    1    5 1
     5    5    6 1
     6    6    7 2
     7    6    8 1
     8    6    9 1
     9    9   10 1
    10   10   11 2
    11   10   12 1
    12   10   13 1
    13   12   33 1
    14   13   14 1
    15   14   15 1
    16   14   34 1
    17   14   35 1
    18   15   16 1
    19   15   17 1
    20   15   36 1
    21   16   21 1
    22   17   18 1
    23   17   19 1
    24   17   37 1
    25   18   38 1
    26   19   20 1
    27   19   21 1
    28   19   39 1
    29   20   40 1
    30   21   22 1
    31   21   41 1
    32   22   23 ar
    33   22   32 ar
    34   23   24 ar
    35   23   42 1
    36   24   25 ar
    37   24   46 1
    38   25   26 ar
    39   25   32 ar
    40   26   27 2
    41   26   28 ar
    42   28   29 ar
    43   28   43 1
    44   29   30 1
    45   29   31 ar
    46   30   44 1
    47   30   45 1
    48   31   32 ar
@<TRIPOS>SUBSTRUCTURE
     1 GTP         1 GROUP 0 A     ****
@<TRIPOS>MOLECULE
[[[5-(2-amino-6-oxo-7,8-dihydro-1~{H}-purin-8-ylium-9-yl)-3,4-dihydroxy-tetrahydrofuran-2-yl]methoxy-hydroxy-phosphoryl]oxy-oxido-phosphoryl] phosphate
   46    48     1     0     0
SMALL
USER_CHARGES

@<TRIPOS>ATOM
      1 PG         -1.1824   -3.6803   -0.4099 P.3       1 GTP        -1.1921
      2 O1G        -1.1574   -5.1707   -0.7317 O.co2     1 GTP         0.3195
      3 O2G        -0.3648   -3.2868    0.8155 O.co2     1 GTP         0.3195
      4 O3G        -2.5726   -3.0544   -0.4574 O.co2     1 GTP         0.3195
      5 O3B        -0.3931   -2.9753   -1.6733 O.3       1 GTP         0.4672
      6 PB         -0.6973   -2.9691   -3.2775 P.3       1 GTP        -1.1062
      7 O1B        -0.5182   -4.3709   -3.8165 O.co2     1 GTP         0.3195
      8 O2B        -1.9806   -2.2036   -3.5140 O.co2     1 GTP         0.3195
      9 O3A         0.5548   -2.0505   -3.7791 O.3       1 GTP         0.4672
     10 PA          2.1490   -2.2861   -3.6338 P.3       1 GTP        -0.9715
     11 O1A         2.5798   -3.7086   -3.8453 O.2       1 GTP         0.2707
     12 O2A         2.7964   -1.2188   -4.6629 O.3       1 GTP         0.0326
     13 O5'         2.5245   -1.6648   -2.1878 O.3       1 GTP         0.1618
     14 C5'         2.2816   -0.2918   -1.9206 C.3       1 GTP         0.1504
     15 C4'         2.7248    0.0226   -0.4980 C.3       1 GTP         0.1111
     16 O4'         2.4697    1.4219   -0.2462 O.3       1 GTP        -0.1436
     17 C3'         1.9404   -0.7419    0.5596 C.3       1 GTP         0.1111
     18 O3'         2.7418   -0.8086    1.7389 O.3       1 GTP        -0.2728
     19 C2'         0.7477    0.1630    0.7858 C.3       1 GTP         0.1111
     20 O2'         0.1373   -0.0577    2.0407 O.3       1 GTP        -0.2728
     21 C1'         1.3733    1.5427    0.6747 C.3       1 GTP         0.2693
     22 N9          0.4520    2.5240    0.1767 N.pl3     1 GTP        -0.3222
     23 C8          0.2203    2.8205   -1.0970 C.ar      1 GTP         0.1640
     24 N7         -0.6947    3.7752   -1.2304 N.pl3     1 GTP        -0.3688
     25 C5         -1.0607    4.0987    0.0476 C.ar      1 GTP         0.0648
     26 C6         -2.0310    5.0839    0.5029 C.ar      1 GTP         0.3597
     27 O6         -2.6779    5.7867   -0.2609 O.2       1 GTP        -0.2755
     28 N1         -2.1030    5.0975    1.8948 N.pl3     1 GTP        -0.1604
     29 C2         -1.3422    4.2721    2.7403 C.ar      1 GTP         0.4468
     30 N2         -1.5624    4.4419    4.0823 N.pl3     1 GTP        -0.5618
     31 N3         -0.4796    3.3981    2.2792 N.2       1 GTP        -0.4283
     32 C4         -0.3754    3.3496    0.9208 C.ar      1 GTP         0.2226
     33 HOA2        3.7717   -1.1194   -4.6922 H         1 GTP         0.2010
     34 H5'         2.8432    0.3119   -2.6398 H         1 GTP        -0.0393
     35 H5''        1.2128   -0.0927   -2.0428 H         1 GTP        -0.0393
     36 H4'         3.8044   -0.1397   -0.4040 H         1 GTP        -0.0393
     37 H3'         1.6764   -1.7639    0.2728 H         1 GTP        -0.0393
     38 HO3'        2.2232   -1.2979    2.3953 H         1 GTP         0.2010
     39 H2'        -0.0011    0.0027    0.0003 H         1 GTP        -0.0393
     40 HO2'       -0.6141    0.5574    2.1082 H         1 GTP         0.2010
     41 H1'         1.7826    1.9024    1.6451 H         1 GTP        -0.0393
     42 H8          0.7110    2.3472   -1.9295 H         1 GTP         0.0000
     43 HN1        -2.7504    5.7495    2.3282 H         1 GTP         0.0865
     44 HN21       -1.0467    3.8796    4.7190 H         1 GTP         0.2048
     45 HN22       -2.2294    5.1209    4.3680 H         1 GTP         0.2048
     46 H46        -1.0382    4.1687   -2.0954 H         1 GTP         0.2048
@<TRIPOS>BOND
     1    1    2 2
     2    1    3 1
     3    1    4 1
     4    1    5 1
     5    5    6 1
     6    6    7 2
     7    6    8 1
     8    6    9 1
     9    9   10 1
    10   10   11 2
    11   10   12 1
    12   10   13 1
    13   12   33 1
    14   13   14 1
    15   14   15 1
    16   14   34 1
    17   14   35 1
    18   15   16 1
    19   15   17 1
    20   15   36 1
    21   16   21 1
    22   17   18 1
    23   17   19 1
    24   17   37 1
    25   18   38 1
    26   19   20 1
    27   19   21 1
    28   19   39 1
    29   20   40 1
    30   21   22 1
    31   21   41 1
    32   22   23 ar
    33   22   32 ar
    34   23   24 ar
    35   23   42 1
    36   24   25 ar
    37   24   46 1
    38   25   26 ar
    39   25   32 ar
    40   26   27 2
    41   26   28 ar
    42   28   29 ar
    43   28   43 1
    44   29   30 1
    45   29   31 ar
    46   30   44 1
    47   30   45 1
    48   31   32 ar
@<TRIPOS>SUBSTRUCTURE
     1 GTP         1 GROUP 0 A     ****
@<TRIPOS>MOLECULE
[[[5-(2-amino-6-oxo-7,8-dihydro-1~{H}-purin-8-ylium-9-yl)-3,4-dihydroxy-tetrahydrofuran-2-yl]methoxy-hydroxy-phosphoryl]oxy-oxido-phosphoryl] phosphate
   46    48     1     0     0
SMALL
USER_CHARGES

@<TRIPOS>ATOM
      1 PG         -1.2513   -5.6351   -2.8230 P.3       1 GTP        -1.1921
      2 O1G        -2.6651   -5.4280   -3.3558 O.co2     1 GTP         0.3195
      3 O2G        -0.4877   -6.7742   -3.4895 O.co2     1 GTP         0.3195
      4 O3G        -1.1498   -5.6248   -1.3011 O.co2     1 GTP         0.3195
      5 O3B        -0.4390   -4.2753   -3.2780 O.3       1 GTP         0.4672
      6 PB         -0.6877   -2.6969   -2.9416 P.3       1 GTP        -1.1062
      7 O1B        -1.9859   -2.2574   -3.5812 O.co2     1 GTP         0.3195
      8 O2B        -0.4366   -2.4814   -1.4654 O.co2     1 GTP         0.3195
      9 O3A         0.5548   -2.0505   -3.7791 O.3       1 GTP         0.4672
     10 PA          2.1490   -2.2861   -3.6338 P.3       1 GTP        -0.9715
     11 O1A         2.5798   -3.7086   -3.8453 O.2       1 GTP         0.2707
     12 O2A         2.7964   -1.2188   -4.6629 O.3       1 GTP         0.0326
     13 O5'         2.5245   -1.6648   -2.1878 O.3       1 GTP         0.1618
     14 C5'         2.2816   -0.2918   -1.9206 C.3       1 GTP         0.1504
     15 C4'         2.7248    0.0226   -0.4980 C.3       1 GTP         0.1111
     16 O4'         2.4697    1.4219   -0.2462 O.3       1 GTP        -0.1436
     17 C3'         1.9404   -0.7419    0.5596 C.3       1 GTP         0.1111
     18 O3'         2.7418   -0.8086    1.7389 O.3       1 GTP        -0.2728
     19 C2'         0.7477    0.1630    0.7858 C.3       1 GTP         0.1111
     20 O2'         0.1373   -0.0577    2.0407 O.3       1 GTP        -0.2728
     21 C1'         1.3733    1.5427    0.6747 C.3       1 GTP         0.2693
     22 N9          0.4520    2.5240    0.1767 N.pl3     1 GTP        -0.3222
     23 C8          0.2203    2.8205   -1.0970 C.ar      1 GTP         0.1640
     24 N7         -0.6947    3.7752   -1.2304 N.pl3     1 GTP        -0.3688
     25 C5         -1.0607    4.0987    0.0476 C.ar      1 GTP         0.0648
     26 C6         -2.0310    5.0839    0.5029 C.ar      1 GTP         0.3597
     27 O6         -2.6779    5.7867   -0.2609 O.2       1 GTP        -0.2755
     28 N1         -2.1030    5.0975    1.8948 N.pl3     1 GTP        -0.1604
     29 C2         -1.3422    4.2721    2.7403 C.ar      1 GTP         0.4468
     30 N2         -1.5624    4.4419    4.0823 N.pl3     1 GTP        -0.5618
     31 N3         -0.4796    3.3981    2.2792 N.2       1 GTP        -0.4283
     32 C4         -0.3754    3.3496    0.9208 C.ar      1 GTP         0.2226
     33 HOA2        3.7717   -1.1194   -4.6922 H         1 GTP         0.2010
     34 H5'         2.8432    0.3119   -2.6398 H         1 GTP        -0.0393
     35 H5''        1.2128   -0.0927   -2.0428 H         1 GTP        -0.0393
     36 H4'         3.8044   -0.1397   -0.4040 H         1 GTP        -0.0393
     37 H3'         1.6764   -1.7639    0.2728 H         1 GTP        -0.0393
     38 HO3'        2.2232   -1.2979    2.3953 H         1 GTP         0.2010
     39 H2'        -0.0011    0.0027    0.0003 H         1 GTP        -0.0393
     40 HO2'       -0.6141    0.5574    2.1082 H         1 GTP         0.2010
     41 H1'         1.7826    1.9024    1.6451 H         1 GTP        -0.0393
     42 H8          0.7110    2.3472   -1.9295 H         1 GTP         0.0000
     43 HN1        -2.7504    5.7495    2.3282 H         1 GTP         0.0865
     44 HN21       -1.0467    3.8796    4.7190 H         1 GTP         0.2048
     45 HN22       -2.2294    5.1209    4.3680 H         1 GTP         0.2048
     46 H46        -1.0382    4.1687   -2.0954 H         1 GTP         0.2048
@<TRIPOS>BOND
     1    1    2 2
     2    1    3 1
     3    1    4 1
     4    1    5 1
     5    5    6 1
     6    6    7 2
     7    6    8 1
     8    6    9 1
     9    9   10 1
    10   10   11 2
    11   10   12 1
    12   10   13 1
    13   12   33 1
    14   13   14 1
    15   14   15 1
    16   14   34 1
    17   14   35 1
    18   15   16 1
    19   15   17 1
    20   15   36 1
    21   16   21 1
    22   17   18 1
    23   17   19 1
    24   17   37 1
    25   18   38 1
    26   19   20 1
    27   19   21 1
    28   19   39 1
    29   20   40 1
    30   21   22 1
    31   21   41 1
    32   22   23 ar
    33   22   32 ar
    34   23   24 ar
    35   23   42 1
    36   24   25 ar
    37   24   46 1
    38   25   26 ar
    39   25   32 ar
    40   26   27 2
    41   26   28 ar
    42   28   29 ar
    43   28   43 1
    44   29   30 1
    45   29   31 ar
    46   30   44 1
    47   30   45 1
    48   31   32 ar
@<TRIPOS>SUBSTRUCTURE
     1 GTP         1 GROUP 0 A     ****
@<TRIPOS>MOLECULE
[[[5-(2-amino-6-oxo-7,8-dihydro-1~{H}-purin-8-ylium-9-yl)-3,4-dihydroxy-tetrahydrofuran-2-yl]methoxy-hydroxy-phosphoryl]oxy-oxido-phosphoryl] phosphate
   46    48     1     0     0
SMALL
USER_CHARGES

@<TRIPOS>ATOM
      1 PG          4.9536   -3.8917   -5.1080 P.3       1 GTP        -1.1921
      2 O1G         5.1430   -3.0585   -3.8448 O.co2     1 GTP         0.3195
      3 O2G         4.8089   -5.3890   -4.8590 O.co2     1 GTP         0.3195
      4 O3G         5.9151   -3.5391   -6.2385 O.co2     1 GTP         0.3195
      5 O3B         3.4822   -3.4280   -5.6876 O.3       1 GTP         0.4672
      6 PB          2.9109   -1.9749   -6.1651 P.3       1 GTP        -1.1062
      7 O1B         3.8459   -1.3972   -7.2042 O.co2     1 GTP         0.3195
      8 O2B         1.4307   -2.1156   -6.4442 O.co2     1 GTP         0.3195
      9 O3A         3.0998   -1.1470   -4.7716 O.3       1 GTP         0.4672
     10 PA          2.7598    0.3945   -4.4166 P.3       1 GTP        -0.9715
     11 O1A         3.4977    1.3943   -5.2592 O.2       1 GTP         0.2707
     12 O2A         1.1474    0.4728   -4.5232 O.3       1 GTP         0.0326
     13 O5'         3.0213    0.5153   -2.8245 O.3       1 GTP         0.1618
     14 C5'         2.2816   -0.2918   -1.9206 C.3       1 GTP         0.1504
     15 C4'         2.7248    0.0226   -0.4980 C.3       1 GTP         0.1111
     16 O4'         2.4697    1.4219   -0.2462 O.3       1 GTP        -0.1436
     17 C3'         1.9404   -0.7419    0.5596 C.3       1 GTP         0.1111
     18 O3'         2.7418   -0.8086    1.7389 O.3       1 GTP        -0.2728
     19 C2'         0.7477    0.1630    0.7858 C.3       1 GTP         0.1111
     20 O2'         0.1373   -0.0577    2.0407 O.3       1 GTP        -0.2728
     21 C1'         1.3733    1.5427    0.6747 C.3       1 GTP         0.2693
     22 N9          0.4520    2.5240    0.1767 N.pl3     1 GTP        -0.3222
     23 C8          0.2203    2.8205   -1.0970 C.ar      1 GTP         0.1640
     24 N7         -0.6947    3.7752   -1.2304 N.pl3     1 GTP        -0.3688
     25 C5         -1.0607    4.0987    0.0476 C.ar      1 GTP         0.0648
     26 C6         -2.0310    5.0839    0.5029 C.ar      1 GTP         0.3597
     27 O6         -2.6779    5.7867   -0.2609 O.2       1 GTP        -0.2755
     28 N1         -2.1030    5.0975    1.8948 N.pl3     1 GTP        -0.1604
     29 C2         -1.3422    4.2721    2.7403 C.ar      1 GTP         0.4468
     30 N2         -1.5624    4.4419    4.0823 N.pl3     1 GTP        -0.5618
     31 N3         -0.4796    3.3981    2.2792 N.2       1 GTP        -0.4283
     32 C4         -0.3754    3.3496    0.9208 C.ar      1 GTP         0.2226
     33 HOA2        0.6950    1.3054   -4.2697 H         1 GTP         0.2010
     34 H5'         1.2163   -0.0770   -2.0471 H         1 GTP        -0.0393
     35 H5''        2.4655   -1.3443   -2.1563 H         1 GTP        -0.0393
     36 H4'         3.8044   -0.1397   -0.4040 H         1 GTP        -0.0393
     37 H3'         1.6764   -1.7639    0.2728 H         1 GTP        -0.0393
     38 HO3'        2.2232   -1.2979    2.3953 H         1 GTP         0.2010
     39 H2'        -0.0011    0.0027    0.0003 H         1 GTP        -0.0393
     40 HO2'       -0.6141    0.5574    2.1082 H         1 GTP         0.2010
     41 H1'         1.7826    1.9024    1.6451 H         1 GTP        -0.0393
     42 H8          0.7110    2.3472   -1.9295 H         1 GTP         0.0000
     43 HN1        -2.7504    5.7495    2.3282 H         1 GTP         0.0865
     44 HN21       -1.0467    3.8796    4.7190 H         1 GTP         0.2048
     45 HN22       -2.2294    5.1209    4.3680 H         1 GTP         0.2048
     46 H46        -1.0382    4.1687   -2.0954 H         1 GTP         0.2048
@<TRIPOS>BOND
     1    1    2 2
     2    1    3 1
     3    1    4 1
     4    1    5 1
     5    5    6 1
     6    6    7 2
     7    6    8 1
     8    6    9 1
     9    9   10 1
    10   10   11 2
    11   10   12 1
    12   10   13 1
    13   12   33 1
    14   13   14 1
    15   14   15 1
    16   14   34 1
    17   14   35 1
    18   15   16 1
    19   15   17 1
    20   15   36 1
    21   16   21 1
    22   17   18 1
    23   17   19 1
    24   17   37 1
    25   18   38 1
    26   19   20 1
    27   19   21 1
    28   19   39 1
    29   20   40 1
    30   21   22 1
    31   21   41 1
    32   22   23 ar
    33   22   32 ar
    34   23   24 ar
    35   23   42 1
    36   24   25 ar
    37   24   46 1
    38   25   26 ar
    39   25   32 ar
    40   26   27 2
    41   26   28 ar
    42   28   29 ar
    43   28   43 1
    44   29   30 1
    45   29   31 ar
    46   30   44 1
    47   30   45 1
    48   31   32 ar
@<TRIPOS>SUBSTRUCTURE
     1 GTP         1 GROUP 0 A     ****
@<TRIPOS>MOLECULE
[[[5-(2-amino-6-oxo-7,8-dihydro-1~{H}-purin-8-ylium-9-yl)-3,4-dihydroxy-tetrahydrofuran-2-yl]methoxy-hydroxy-phosphoryl]oxy-oxido-phosphoryl] phosphate
   46    48     1     0     0
SMALL
USER_CHARGES

@<TRIPOS>ATOM
      1 PG         -3.9418   -2.4906   -1.7358 P.3       1 GTP        -1.1921
      2 O1G        -4.2366   -3.9841   -1.8264 O.co2     1 GTP         0.3195
      3 O2G        -4.1818   -1.8838   -0.3577 O.co2     1 GTP         0.3195
      4 O3G        -4.5168   -1.6697   -2.8857 O.co2     1 GTP         0.3195
      5 O3B        -2.3120   -2.3809   -1.9542 O.3       1 GTP         0.4672
      6 PB         -1.3489   -2.8301   -3.1938 P.3       1 GTP        -1.1062
      7 O1B        -1.3642   -4.3384   -3.3057 O.co2     1 GTP         0.3195
      8 O2B        -1.6744   -1.9590   -4.3871 O.co2     1 GTP         0.3195
      9 O3A         0.0932   -2.3638   -2.5889 O.3       1 GTP         0.4672
     10 PA          1.5771   -2.4667   -3.2257 P.3       1 GTP        -0.9715
     11 O1A         2.0159   -3.8691   -3.5331 O.2       1 GTP         0.2707
     12 O2A         1.5230   -1.4752   -4.5030 O.3       1 GTP         0.0326
     13 O5'         2.5245   -1.6648   -2.1878 O.3       1 GTP         0.1618
     14 C5'         2.2816   -0.2918   -1.9206 C.3       1 GTP         0.1504
     15 C4'         2.7248    0.0226   -0.4980 C.3       1 GTP         0.1111
     16 O4'         2.4697    1.4219   -0.2462 O.3       1 GTP        -0.1436
     17 C3'         1.9404   -0.7419    0.5596 C.3       1 GTP         0.1111
     18 O3'         2.7418   -0.8086    1.7389 O.3       1 GTP        -0.2728
     19 C2'         0.7477    0.1630    0.7858 C.3       1 GTP         0.1111
     20 O2'         0.1373   -0.0577    2.0407 O.3       1 GTP        -0.2728
     21 C1'         1.3733    1.5427    0.6747 C.3       1 GTP         0.2693
     22 N9          0.4520    2.5240    0.1767 N.pl3     1 GTP        -0.3222
     23 C8          0.2203    2.8205   -1.0970 C.ar      1 GTP         0.1640
     24 N7         -0.6947    3.7752   -1.2304 N.pl3     1 GTP        -0.3688
     25 C5         -1.0607    4.0987    0.0476 C.ar      1 GTP         0.0648
     26 C6         -2.0310    5.0839    0.5029 C.ar      1 GTP         0.3597
     27 O6         -2.6779    5.7867   -0.2609 O.2       1 GTP        -0.2755
     28 N1         -2.1030    5.0975    1.8948 N.pl3     1 GTP        -0.1604
     29 C2         -1.3422    4.2721    2.7403 C.ar      1 GTP         0.4468
     30 N2         -1.5624    4.4419    4.0823 N.pl3     1 GTP        -0.5618
     31 N3         -0.4796    3.3981    2.2792 N.2       1 GTP        -0.4283
     32 C4         -0.3754    3.3496    0.9208 C.ar      1 GTP         0.2226
     33 HOA2        0.9315   -1.6991   -5.2527 H         1 GTP         0.2010
     34 H5'         2.8432    0.3119   -2.6398 H         1 GTP        -0.0393
     35 H5''        1.2128   -0.0927   -2.0428 H         1 GTP        -0.0393
     36 H4'         3.8044   -0.1397   -0.4040 H         1 GTP        -0.0393
     37 H3'         1.6764   -1.7639    0.2728 H         1 GTP        -0.0393
     38 HO3'        2.2232   -1.2979    2.3953 H         1 GTP         0.2010
     39 H2'        -0.0011    0.0027    0.0003 H         1 GTP        -0.0393
     40 HO2'       -0.6141    0.5574    2.1082 H         1 GTP         0.2010
     41 H1'         1.7826    1.9024    1.6451 H         1 GTP        -0.0393
     42 H8          0.7110    2.3472   -1.9295 H         1 GTP         0.0000
     43 HN1        -2.7504    5.7495    2.3282 H         1 GTP         0.0865
     44 HN21       -1.0467    3.8796    4.7190 H         1 GTP         0.2048
     45 HN22       -2.2294    5.1209    4.3680 H         1 GTP         0.2048
     46 H46        -1.0382    4.1687   -2.0954 H         1 GTP         0.2048
@<TRIPOS>BOND
     1    1    2 2
     2    1    3 1
     3    1    4 1
     4    1    5 1
     5    5    6 1
     6    6    7 2
     7    6    8 1
     8    6    9 1
     9    9   10 1
    10   10   11 2
    11   10   12 1
    12   10   13 1
    13   12   33 1
    14   13   14 1
    15   14   15 1
    16   14   34 1
    17   14   35 1
    18   15   16 1
    19   15   17 1
    20   15   36 1
    21   16   21 1
    22   17   18 1
    23   17   19 1
    24   17   37 1
    25   18   38 1
    26   19   20 1
    27   19   21 1
    28   19   39 1
    29   20   40 1
    30   21   22 1
    31   21   41 1
    32   22   23 ar
    33   22   32 ar
    34   23   24 ar
    35   23   42 1
    36   24   25 ar
    37   24   46 1
    38   25   26 ar
    39   25   32 ar
    40   26   27 2
    41   26   28 ar
    42   28   29 ar
    43   28   43 1
    44   29   30 1
    45   29   31 ar
    46   30   44 1
    47   30   45 1
    48   31   32 ar
@<TRIPOS>SUBSTRUCTURE
     1 GTP         1 GROUP 0 A     ****
@<TRIPOS>MOLECULE
[[[5-(2-amino-6-oxo-7,8-dihydro-1~{H}-purin-8-ylium-9-yl)-3,4-dihydroxy-tetrahydrofuran-2-yl]methoxy-hydroxy-phosphoryl]oxy-oxido-phosphoryl] phosphate
   46    48     1     0     0
SMALL
USER_CHARGES

@<TRIPOS>ATOM
      1 PG          4.2428   -1.2118   -8.7357 P.3       1 GTP        -1.1921
      2 O1G         2.9001   -1.1196   -9.4528 O.co2     1 GTP         0.3195
      3 O2G         5.1824   -0.0416   -9.0054 O.co2     1 GTP         0.3195
      4 O3G         4.9097   -2.5802   -8.8326 O.co2     1 GTP         0.3195
      5 O3B         3.8640   -1.0740   -7.1378 O.3       1 GTP         0.4672
      6 PB          2.9109   -1.9749   -6.1651 P.3       1 GTP        -1.1062
      7 O1B         1.4753   -1.8379   -6.6211 O.co2     1 GTP         0.3195
      8 O2B         3.5490   -3.3373   -6.0056 O.co2     1 GTP         0.3195
      9 O3A         3.0998   -1.1470   -4.7716 O.3       1 GTP         0.4672
     10 PA          2.7598    0.3945   -4.4166 P.3       1 GTP        -0.9715
     11 O1A         3.4977    1.3943   -5.2592 O.2       1 GTP         0.2707
     12 O2A         1.1474    0.4728   -4.5232 O.3       1 GTP         0.0326
     13 O5'         3.0213    0.5153   -2.8245 O.3       1 GTP         0.1618
     14 C5'         2.2816   -0.2918   -1.9206 C.3       1 GTP         0.1504
     15 C4'         2.7248    0.0226   -0.4980 C.3       1 GTP         0.1111
     16 O4'         2.4697    1.4219   -0.2462 O.3       1 GTP        -0.1436
     17 C3'         1.9404   -0.7419    0.5596 C.3       1 GTP         0.1111
     18 O3'         2.7418   -0.8086    1.7389 O.3       1 GTP        -0.2728
     19 C2'         0.7477    0.1630    0.7858 C.3       1 GTP         0.1111
     20 O2'         0.1373   -0.0577    2.0407 O.3       1 GTP        -0.2728
     21 C1'         1.3733    1.5427    0.6747 C.3       1 GTP         0.2693
     22 N9          0.4520    2.5240    0.1767 N.pl3     1 GTP        -0.3222
     23 C8          0.2203    2.8205   -1.0970 C.ar      1 GTP         0.1640
     24 N7         -0.6947    3.7752   -1.2304 N.pl3     1 GTP        -0.3688
     25 C5         -1.0607    4.0987    0.0476 C.ar      1 GTP         0.0648
     26 C6         -2.0310    5.0839    0.5029 C.ar      1 GTP         0.3597
     27 O6         -2.6779    5.7867   -0.2609 O.2       1 GTP        -0.2755
     28 N1         -2.1030    5.0975    1.8948 N.pl3     1 GTP        -0.1604
     29 C2         -1.3422    4.2721    2.7403 C.ar      1 GTP         0.4468
     30 N2         -1.5624    4.4419    4.0823 N.pl3     1 GTP        -0.5618
     31 N3         -0.4796    3.3981    2.2792 N.2       1 GTP        -0.4283
     32 C4         -0.3754    3.3496    0.9208 C.ar      1 GTP         0.2226
     33 HOA2        0.6950    1.3054   -4.2697 H         1 GTP         0.2010
     34 H5'         1.2163   -0.0770   -2.0471 H         1 GTP        -0.0393
     35 H5''        2.4655   -1.3443   -2.1563 H         1 GTP        -0.0393
     36 H4'         3.8044   -0.1397   -0.4040 H         1 GTP        -0.0393
     37 H3'         1.6764   -1.7639    0.2728 H         1 GTP        -0.0393
     38 HO3'        2.2232   -1.2979    2.3953 H         1 GTP         0.2010
     39 H2'        -0.0011    0.0027    0.0003 H         1 GTP        -0.0393
     40 HO2'       -0.6141    0.5574    2.1082 H         1 GTP         0.2010
     41 H1'         1.7826    1.9024    1.6451 H         1 GTP        -0.0393
     42 H8          0.7110    2.3472   -1.9295 H         1 GTP         0.0000
     43 HN1        -2.7504    5.7495    2.3282 H         1 GTP         0.0865
     44 HN21       -1.0467    3.8796    4.7190 H         1 GTP         0.2048
     45 HN22       -2.2294    5.1209    4.3680 H         1 GTP         0.2048
     46 H46        -1.0382    4.1687   -2.0954 H         1 GTP         0.2048
@<TRIPOS>BOND
     1    1    2 2
     2    1    3 1
     3    1    4 1
     4    1    5 1
     5    5    6 1
     6    6    7 2
     7    6    8 1
     8    6    9 1
     9    9   10 1
    10   10   11 2
    11   10   12 1
    12   10   13 1
    13   12   33 1
    14   13   14 1
    15   14   15 1
    16   14   34 1
    17   14   35 1
    18   15   16 1
    19   15   17 1
    20   15   36 1
    21   16   21 1
    22   17   18 1
    23   17   19 1
    24   17   37 1
    25   18   38 1
    26   19   20 1
    27   19   21 1
    28   19   39 1
    29   20   40 1
    30   21   22 1
    31   21   41 1
    32   22   23 ar
    33   22   32 ar
    34   23   24 ar
    35   23   42 1
    36   24   25 ar
    37   24   46 1
    38   25   26 ar
    39   25   32 ar
    40   26   27 2
    41   26   28 ar
    42   28   29 ar
    43   28   43 1
    44   29   30 1
    45   29   31 ar
    46   30   44 1
    47   30   45 1
    48   31   32 ar
@<TRIPOS>SUBSTRUCTURE
     1 GTP         1 GROUP 0 A     ****
@<TRIPOS>MOLECULE
[[[5-(2-amino-6-oxo-7,8-dihydro-1~{H}-purin-8-ylium-9-yl)-3,4-dihydroxy-tetrahydrofuran-2-yl]methoxy-hydroxy-phosphoryl]oxy-oxido-phosphoryl] phosphate
   46    48     1     0     0
SMALL
USER_CHARGES

@<TRIPOS>ATOM
      1 PG          0.2641   -2.3723   -7.5070 P.3       1 GTP        -1.1921
      2 O1G         0.4270   -3.8882   -7.4728 O.co2     1 GTP         0.3195
      3 O2G        -1.1076   -1.8762   -7.0629 O.co2     1 GTP         0.3195
      4 O3G         0.7786   -1.7177   -8.7851 O.co2     1 GTP         0.3195
      5 O3B         1.2951   -1.8233   -6.3445 O.3       1 GTP         0.4672
      6 PB          2.9109   -1.9749   -6.1651 P.3       1 GTP        -1.1062
      7 O1B         3.2427   -3.4292   -5.9153 O.co2     1 GTP         0.3195
      8 O2B         3.5860   -1.2039   -7.2780 O.co2     1 GTP         0.3195
      9 O3A         3.0998   -1.1470   -4.7716 O.3       1 GTP         0.4672
     10 PA          2.7598    0.3945   -4.4166 P.3       1 GTP        -0.9715
     11 O1A         3.4977    1.3943   -5.2592 O.2       1 GTP         0.2707
     12 O2A         1.1474    0.4728   -4.5232 O.3       1 GTP         0.0326
     13 O5'         3.0213    0.5153   -2.8245 O.3       1 GTP         0.1618
     14 C5'         2.2816   -0.2918   -1.9206 C.3       1 GTP         0.1504
     15 C4'         2.7248    0.0226   -0.4980 C.3       1 GTP         0.1111
     16 O4'         2.4697    1.4219   -0.2462 O.3       1 GTP        -0.1436
     17 C3'         1.9404   -0.7419    0.5596 C.3       1 GTP         0.1111
     18 O3'         2.7418   -0.8086    1.7389 O.3       1 GTP        -0.2728
     19 C2'         0.7477    0.1630    0.7858 C.3       1 GTP         0.1111
     20 O2'         0.1373   -0.0577    2.0407 O.3       1 GTP        -0.2728
     21 C1'         1.3733    1.5427    0.6747 C.3       1 GTP         0.2693
     22 N9          0.4520    2.5240    0.1767 N.pl3     1 GTP        -0.3222
     23 C8          0.2203    2.8205   -1.0970 C.ar      1 GTP         0.1640
     24 N7         -0.6947    3.7752   -1.2304 N.pl3     1 GTP        -0.3688
     25 C5         -1.0607    4.0987    0.0476 C.ar      1 GTP         0.0648
     26 C6         -2.0310    5.0839    0.5029 C.ar      1 GTP         0.3597
     27 O6         -2.6779    5.7867   -0.2609 O.2       1 GTP        -0.2755
     28 N1         -2.1030    5.0975    1.8948 N.pl3     1 GTP        -0.1604
     29 C2         -1.3422    4.2721    2.7403 C.ar      1 GTP         0.4468
     30 N2         -1.5624    4.4419    4.0823 N.pl3     1 GTP        -0.5618
     31 N3         -0.4796    3.3981    2.2792 N.2       1 GTP        -0.4283
     32 C4         -0.3754    3.3496    0.9208 C.ar      1 GTP         0.2226
     33 HOA2        0.7224    0.3356   -5.3964 H         1 GTP         0.2010
     34 H5'         1.2163   -0.0770   -2.0471 H         1 GTP        -0.0393
     35 H5''        2.4655   -1.3443   -2.1563 H         1 GTP        -0.0393
     36 H4'         3.8044   -0.1397   -0.4040 H         1 GTP        -0.0393
     37 H3'         1.6764   -1.7639    0.2728 H         1 GTP        -0.0393
     38 HO3'        2.2232   -1.2979    2.3953 H         1 GTP         0.2010
     39 H2'        -0.0011    0.0027    0.0003 H         1 GTP        -0.0393
     40 HO2'       -0.6141    0.5574    2.1082 H         1 GTP         0.2010
     41 H1'         1.7826    1.9024    1.6451 H         1 GTP        -0.0393
     42 H8          0.7110    2.3472   -1.9295 H         1 GTP         0.0000
     43 HN1        -2.7504    5.7495    2.3282 H         1 GTP         0.0865
     44 HN21       -1.0467    3.8796    4.7190 H         1 GTP         0.2048
     45 HN22       -2.2294    5.1209    4.3680 H         1 GTP         0.2048
     46 H46        -1.0382    4.1687   -2.0954 H         1 GTP         0.2048
@<TRIPOS>BOND
     1    1    2 2
     2    1    3 1
     3    1    4 1
     4    1    5 1
     5    5    6 1
     6    6    7 2
     7    6    8 1
     8    6    9 1
     9    9   10 1
    10   10   11 2
    11   10   12 1
    12   10   13 1
    13   12   33 1
    14   13   14 1
    15   14   15 1
    16   14   34 1
    17   14   35 1
    18   15   16 1
    19   15   17 1
    20   15   36 1
    21   16   21 1
    22   17   18 1
    23   17   19 1
    24   17   37 1
    25   18   38 1
    26   19   20 1
    27   19   21 1
    28   19   39 1
    29   20   40 1
    30   21   22 1
    31   21   41 1
    32   22   23 ar
    33   22   32 ar
    34   23   24 ar
    35   23   42 1
    36   24   25 ar
    37   24   46 1
    38   25   26 ar
    39   25   32 ar
    40   26   27 2
    41   26   28 ar
    42   28   29 ar
    43   28   43 1
    44   29   30 1
    45   29   31 ar
    46   30   44 1
    47   30   45 1
    48   31   32 ar
@<TRIPOS>SUBSTRUCTURE
     1 GTP         1 GROUP 0 A     ****
@<TRIPOS>MOLECULE
[[[5-(2-amino-6-oxo-7,8-dihydro-1~{H}-purin-8-ylium-9-yl)-3,4-dihydroxy-tetrahydrofuran-2-yl]methoxy-hydroxy-phosphoryl]oxy-oxido-phosphoryl] phosphate
   46    48     1     0     0
SMALL
USER_CHARGES

@<TRIPOS>ATOM
      1 PG          6.9900   -4.2744   -3.1655 P.3       1 GTP        -1.1921
      2 O1G         7.1766   -4.0681   -1.6661 O.co2     1 GTP         0.3195
      3 O2G         6.4384   -5.6432   -3.5489 O.co2     1 GTP         0.3195
      4 O3G         8.1769   -3.8230   -4.0104 O.co2     1 GTP         0.3195
      5 O3B         5.7929   -3.2195   -3.5781 O.3       1 GTP         0.4672
      6 PB          5.6860   -1.5949   -3.4555 P.3       1 GTP        -1.1062
      7 O1B         5.6557   -1.2141   -1.9920 O.co2     1 GTP         0.3195
      8 O2B         6.6980   -0.9805   -4.3974 O.co2     1 GTP         0.3195
      9 O3A         4.1953   -1.3810   -4.0840 O.3       1 GTP         0.4672
     10 PA          3.3423   -0.0257   -4.3151 P.3       1 GTP        -0.9715
     11 O1A         4.0065    0.9689   -5.2226 O.2       1 GTP         0.2707
     12 O2A         1.9005   -0.5544   -4.8241 O.3       1 GTP         0.0326
     13 O5'         3.0213    0.5153   -2.8245 O.3       1 GTP         0.1618
     14 C5'         2.2816   -0.2918   -1.9206 C.3       1 GTP         0.1504
     15 C4'         2.7248    0.0226   -0.4980 C.3       1 GTP         0.1111
     16 O4'         2.4697    1.4219   -0.2462 O.3       1 GTP        -0.1436
     17 C3'         1.9404   -0.7419    0.5596 C.3       1 GTP         0.1111
     18 O3'         2.7418   -0.8086    1.7389 O.3       1 GTP        -0.2728
     19 C2'         0.7477    0.1630    0.7858 C.3       1 GTP         0.1111
     20 O2'         0.1373   -0.0577    2.0407 O.3       1 GTP        -0.2728
     21 C1'         1.3733    1.5427    0.6747 C.3       1 GTP         0.2693
     22 N9          0.4520    2.5240    0.1767 N.pl3     1 GTP        -0.3222
     23 C8          0.2203    2.8205   -1.0970 C.ar      1 GTP         0.1640
     24 N7         -0.6947    3.7752   -1.2304 N.pl3     1 GTP        -0.3688
     25 C5         -1.0607    4.0987    0.0476 C.ar      1 GTP         0.0648
     26 C6         -2.0310    5.0839    0.5029 C.ar      1 GTP         0.3597
     27 O6         -2.6779    5.7867   -0.2609 O.2       1 GTP        -0.2755
     28 N1         -2.1030    5.0975    1.8948 N.pl3     1 GTP        -0.1604
     29 C2         -1.3422    4.2721    2.7403 C.ar      1 GTP         0.4468
     30 N2         -1.5624    4.4419    4.0823 N.pl3     1 GTP        -0.5618
     31 N3         -0.4796    3.3981    2.2792 N.2       1 GTP        -0.4283
     32 C4         -0.3754    3.3496    0.9208 C.ar      1 GTP         0.2226
     33 HOA2        1.1769    0.0945   -4.9566 H         1 GTP         0.2010
     34 H5'         1.2163   -0.0770   -2.0471 H         1 GTP        -0.0393
     35 H5''        2.4655   -1.3443   -2.1563 H         1 GTP        -0.0393
     36 H4'         3.8044   -0.1397   -0.4040 H         1 GTP        -0.0393
     37 H3'         1.6764   -1.7639    0.2728 H         1 GTP        -0.0393
     38 HO3'        2.2232   -1.2979    2.3953 H         1 GTP         0.2010
     39 H2'        -0.0011    0.0027    0.0003 H         1 GTP        -0.0393
     40 HO2'       -0.6141    0.5574    2.1082 H         1 GTP         0.2010
     41 H1'         1.7826    1.9024    1.6451 H         1 GTP        -0.0393
     42 H8          0.7110    2.3472   -1.9295 H         1 GTP         0.0000
     43 HN1        -2.7504    5.7495    2.3282 H         1 GTP         0.0865
     44 HN21       -1.0467    3.8796    4.7190 H         1 GTP         0.2048
     45 HN22       -2.2294    5.1209    4.3680 H         1 GTP         0.2048
     46 H46        -1.0382    4.1687   -2.0954 H         1 GTP         0.2048
@<TRIPOS>BOND
     1    1    2 2
     2    1    3 1
     3    1    4 1
     4    1    5 1
     5    5    6 1
     6    6    7 2
     7    6    8 1
     8    6    9 1
     9    9   10 1
    10   10   11 2
    11   10   12 1
    12   10   13 1
    13   12   33 1
    14   13   14 1
    15   14   15 1
    16   14   34 1
    17   14   35 1
    18   15   16 1
    19   15   17 1
    20   15   36 1
    21   16   21 1
    22   17   18 1
    23   17   19 1
    24   17   37 1
    25   18   38 1
    26   19   20 1
    27   19   21 1
    28   19   39 1
    29   20   40 1
    30   21   22 1
    31   21   41 1
    32   22   23 ar
    33   22   32 ar
    34   23   24 ar
    35   23   42 1
    36   24   25 ar
    37   24   46 1
    38   25   26 ar
    39   25   32 ar
    40   26   27 2
    41   26   28 ar
    42   28   29 ar
    43   28   43 1
    44   29   30 1
    45   29   31 ar
    46   30   44 1
    47   30   45 1
    48   31   32 ar
@<TRIPOS>SUBSTRUCTURE
     1 GTP         1 GROUP 0 A     ****
@<TRIPOS>MOLECULE
[[[5-(2-amino-6-oxo-7,8-dihydro-1~{H}-purin-8-ylium-9-yl)-3,4-dihydroxy-tetrahydrofuran-2-yl]methoxy-hydroxy-phosphoryl]oxy-oxido-phosphoryl] phosphate
   46    48     1     0     0
SMALL
USER_CHARGES

@<TRIPOS>ATOM
      1 PG          1.8607   -4.9659   -6.1873 P.3       1 GTP        -1.1921
      2 O1G         2.8642   -5.0407   -7.3332 O.co2     1 GTP         0.3195
      3 O2G         2.0856   -5.9952   -5.0851 O.co2     1 GTP         0.3195
      4 O3G         0.4082   -4.8427   -6.6364 O.co2     1 GTP         0.3195
      5 O3B         2.1708   -3.5173   -5.4654 O.3       1 GTP         0.4672
      6 PB          2.1307   -1.9879   -6.0360 P.3       1 GTP        -1.1062
      7 O1B         3.2222   -1.8210   -7.0696 O.co2     1 GTP         0.3195
      8 O2B         0.6944   -1.6398   -6.3594 O.co2     1 GTP         0.3195
      9 O3A         2.5655   -1.1900   -4.6806 O.3       1 GTP         0.4672
     10 PA          2.7598    0.3945   -4.4166 P.3       1 GTP        -0.9715
     11 O1A         3.8049    1.0362   -5.2825 O.2       1 GTP         0.2707
     12 O2A         1.2702    1.0033   -4.5836 O.3       1 GTP         0.0326
     13 O5'         3.0213    0.5153   -2.8245 O.3       1 GTP         0.1618
     14 C5'         2.2816   -0.2918   -1.9206 C.3       1 GTP         0.1504
     15 C4'         2.7248    0.0226   -0.4980 C.3       1 GTP         0.1111
     16 O4'         2.4697    1.4219   -0.2462 O.3       1 GTP        -0.1436
     17 C3'         1.9404   -0.7419    0.5596 C.3       1 GTP         0.1111
     18 O3'         2.7418   -0.8086    1.7389 O.3       1 GTP        -0.2728
     19 C2'         0.7477    0.1630    0.7858 C.3       1 GTP         0.1111
     20 O2'         0.1373   -0.0577    2.0407 O.3       1 GTP        -0.2728
     21 C1'         1.3733    1.5427    0.6747 C.3       1 GTP         0.2693
     22 N9          0.4520    2.5240    0.1767 N.pl3     1 GTP        -0.3222
     23 C8          0.2203    2.8205   -1.0970 C.ar      1 GTP         0.1640
     24 N7         -0.6947    3.7752   -1.2304 N.pl3     1 GTP        -0.3688
     25 C5         -1.0607    4.0987    0.0476 C.ar      1 GTP         0.0648
     26 C6         -2.0310    5.0839    0.5029 C.ar      1 GTP         0.3597
     27 O6         -2.6779    5.7867   -0.2609 O.2       1 GTP        -0.2755
     28 N1         -2.1030    5.0975    1.8948 N.pl3     1 GTP        -0.1604
     29 C2         -1.3422    4.2721    2.7403 C.ar      1 GTP         0.4468
     30 N2         -1.5624    4.4419    4.0823 N.pl3     1 GTP        -0.5618
     31 N3         -0.4796    3.3981    2.2792 N.2       1 GTP        -0.4283
     32 C4         -0.3754    3.3496    0.9208 C.ar      1 GTP         0.2226
     33 HOA2        0.8377    0.9648   -5.4631 H         1 GTP         0.2010
     34 H5'         1.2163   -0.0770   -2.0471 H         1 GTP        -0.0393
     35 H5''        2.4655   -1.3443   -2.1563 H         1 GTP        -0.0393
     36 H4'         3.8044   -0.1397   -0.4040 H         1 GTP        -0.0393
     37 H3'         1.6764   -1.7639    0.2728 H         1 GTP        -0.0393
     38 HO3'        2.2232   -1.2979    2.3953 H         1 GTP         0.2010
     39 H2'        -0.0011    0.0027    0.0003 H         1 GTP        -0.0393
     40 HO2'       -0.6141    0.5574    2.1082 H         1 GTP         0.2010
     41 H1'         1.7826    1.9024    1.6451 H         1 GTP        -0.0393
     42 H8          0.7110    2.3472   -1.9295 H         1 GTP         0.0000
     43 HN1        -2.7504    5.7495    2.3282 H         1 GTP         0.0865
     44 HN21       -1.0467    3.8796    4.7190 H         1 GTP         0.2048
     45 HN22       -2.2294    5.1209    4.3680 H         1 GTP         0.2048
     46 H46        -1.0382    4.1687   -2.0954 H         1 GTP         0.2048
@<TRIPOS>BOND
     1    1    2 2
     2    1    3 1
     3    1    4 1
     4    1    5 1
     5    5    6 1
     6    6    7 2
     7    6    8 1
     8    6    9 1
     9    9   10 1
    10   10   11 2
    11   10   12 1
    12   10   13 1
    13   12   33 1
    14   13   14 1
    15   14   15 1
    16   14   34 1
    17   14   35 1
    18   15   16 1
    19   15   17 1
    20   15   36 1
    21   16   21 1
    22   17   18 1
    23   17   19 1
    24   17   37 1
    25   18   38 1
    26   19   20 1
    27   19   21 1
    28   19   39 1
    29   20   40 1
    30   21   22 1
    31   21   41 1
    32   22   23 ar
    33   22   32 ar
    34   23   24 ar
    35   23   42 1
    36   24   25 ar
    37   24   46 1
    38   25   26 ar
    39   25   32 ar
    40   26   27 2
    41   26   28 ar
    42   28   29 ar
    43   28   43 1
    44   29   30 1
    45   29   31 ar
    46   30   44 1
    47   30   45 1
    48   31   32 ar
@<TRIPOS>SUBSTRUCTURE
     1 GTP         1 GROUP 0 A     ****
@<TRIPOS>MOLECULE
[[[5-(2-amino-6-oxo-7,8-dihydro-1~{H}-purin-8-ylium-9-yl)-3,4-dihydroxy-tetrahydrofuran-2-yl]methoxy-hydroxy-phosphoryl]oxy-oxido-phosphoryl] phosphate
   46    48     1     0     0
SMALL
USER_CHARGES

@<TRIPOS>ATOM
      1 PG         -2.4966   -1.7607   -5.7439 P.3       1 GTP        -1.1921
      2 O1G        -3.7618   -1.2977   -5.0295 O.co2     1 GTP         0.3195
      3 O2G        -1.8970   -0.7300   -6.6942 O.co2     1 GTP         0.3195
      4 O3G        -2.5886   -3.1665   -6.3286 O.co2     1 GTP         0.3195
      5 O3B        -1.3789   -1.9097   -4.5421 O.3       1 GTP         0.4672
      6 PB         -1.3489   -2.8301   -3.1938 P.3       1 GTP        -1.1062
      7 O1B        -2.4420   -2.3651   -2.2576 O.co2     1 GTP         0.3195
      8 O2B        -1.2488   -4.2806   -3.6119 O.co2     1 GTP         0.3195
      9 O3A         0.0932   -2.3638   -2.5889 O.3       1 GTP         0.4672
     10 PA          1.5771   -2.4667   -3.2257 P.3       1 GTP        -0.9715
     11 O1A         2.0159   -3.8691   -3.5331 O.2       1 GTP         0.2707
     12 O2A         1.5230   -1.4752   -4.5030 O.3       1 GTP         0.0326
     13 O5'         2.5245   -1.6648   -2.1878 O.3       1 GTP         0.1618
     14 C5'         2.2816   -0.2918   -1.9206 C.3       1 GTP         0.1504
     15 C4'         2.7248    0.0226   -0.4980 C.3       1 GTP         0.1111
     16 O4'         2.4697    1.4219   -0.2462 O.3       1 GTP        -0.1436
     17 C3'         1.9404   -0.7419    0.5596 C.3       1 GTP         0.1111
     18 O3'         2.7418   -0.8086    1.7389 O.3       1 GTP        -0.2728
     19 C2'         0.7477    0.1630    0.7858 C.3       1 GTP         0.1111
     20 O2'         0.1373   -0.0577    2.0407 O.3       1 GTP        -0.2728
     21 C1'         1.3733    1.5427    0.6747 C.3       1 GTP         0.2693
     22 N9          0.4520    2.5240    0.1767 N.pl3     1 GTP        -0.3222
     23 C8          0.2203    2.8205   -1.0970 C.ar      1 GTP         0.1640
     24 N7         -0.6947    3.7752   -1.2304 N.pl3     1 GTP        -0.3688
     25 C5         -1.0607    4.0987    0.0476 C.ar      1 GTP         0.0648
     26 C6         -2.0310    5.0839    0.5029 C.ar      1 GTP         0.3597
     27 O6         -2.6779    5.7867   -0.2609 O.2       1 GTP        -0.2755
     28 N1         -2.1030    5.0975    1.8948 N.pl3     1 GTP        -0.1604
     29 C2         -1.3422    4.2721    2.7403 C.ar      1 GTP         0.4468
     30 N2         -1.5624    4.4419    4.0823 N.pl3     1 GTP        -0.5618
     31 N3         -0.4796    3.3981    2.2792 N.2       1 GTP        -0.4283
     32 C4         -0.3754    3.3496    0.9208 C.ar      1 GTP         0.2226
     33 HOA2        0.9315   -1.6991   -5.2527 H         1 GTP         0.2010
     34 H5'         2.8432    0.3119   -2.6398 H         1 GTP        -0.0393
     35 H5''        1.2128   -0.0927   -2.0428 H         1 GTP        -0.0393
     36 H4'         3.8044   -0.1397   -0.4040 H         1 GTP        -0.0393
     37 H3'         1.6764   -1.7639    0.2728 H         1 GTP        -0.0393
     38 HO3'        2.2232   -1.2979    2.3953 H         1 GTP         0.2010
     39 H2'        -0.0011    0.0027    0.0003 H         1 GTP        -0.0393
     40 HO2'       -0.6141    0.5574    2.1082 H         1 GTP         0.2010
     41 H1'         1.7826    1.9024    1.6451 H         1 GTP        -0.0393
     42 H8          0.7110    2.3472   -1.9295 H         1 GTP         0.0000
     43 HN1        -2.7504    5.7495    2.3282 H         1 GTP         0.0865
     44 HN21       -1.0467    3.8796    4.7190 H         1 GTP         0.2048
     45 HN22       -2.2294    5.1209    4.3680 H         1 GTP         0.2048
     46 H46        -1.0382    4.1687   -2.0954 H         1 GTP         0.2048
@<TRIPOS>BOND
     1    1    2 2
     2    1    3 1
     3    1    4 1
     4    1    5 1
     5    5    6 1
     6    6    7 2
     7    6    8 1
     8    6    9 1
     9    9   10 1
    10   10   11 2
    11   10   12 1
    12   10   13 1
    13   12   33 1
    14   13   14 1
    15   14   15 1
    16   14   34 1
    17   14   35 1
    18   15   16 1
    19   15   17 1
    20   15   36 1
    21   16   21 1
    22   17   18 1
    23   17   19 1
    24   17   37 1
    25   18   38 1
    26   19   20 1
    27   19   21 1
    28   19   39 1
    29   20   40 1
    30   21   22 1
    31   21   41 1
    32   22   23 ar
    33   22   32 ar
    34   23   24 ar
    35   23   42 1
    36   24   25 ar
    37   24   46 1
    38   25   26 ar
    39   25   32 ar
    40   26   27 2
    41   26   28 ar
    42   28   29 ar
    43   28   43 1
    44   29   30 1
    45   29   31 ar
    46   30   44 1
    47   30   45 1
    48   31   32 ar
@<TRIPOS>SUBSTRUCTURE
     1 GTP         1 GROUP 0 A     ****
@<TRIPOS>MOLECULE
[[[5-(2-amino-6-oxo-7,8-dihydro-1~{H}-purin-8-ylium-9-yl)-3,4-dihydroxy-tetrahydrofuran-2-yl]methoxy-hydroxy-phosphoryl]oxy-oxido-phosphoryl] phosphate
   46    48     1     0     0
SMALL
USER_CHARGES

@<TRIPOS>ATOM
      1 PG         -2.7228   -2.3048    0.4263 P.3       1 GTP        -1.1921
      2 O1G        -1.9120   -2.7864    1.6247 O.co2     1 GTP         0.3195
      3 O2G        -3.2761   -0.8910    0.5675 O.co2     1 GTP         0.3195
      4 O3G        -3.7364   -3.3207   -0.0908 O.co2     1 GTP         0.3195
      5 O3B        -1.6221   -2.1945   -0.7952 O.3       1 GTP         0.4672
      6 PB         -0.6488   -3.3093   -1.4851 P.3       1 GTP        -1.1062
      7 O1B         0.3743   -3.7642   -0.4684 O.co2     1 GTP         0.3195
      8 O2B        -1.5172   -4.3103   -2.2151 O.co2     1 GTP         0.3195
      9 O3A         0.0932   -2.3638   -2.5889 O.3       1 GTP         0.4672
     10 PA          1.5771   -2.4667   -3.2257 P.3       1 GTP        -0.9715
     11 O1A         2.0159   -3.8691   -3.5331 O.2       1 GTP         0.2707
     12 O2A         1.5230   -1.4752   -4.5030 O.3       1 GTP         0.0326
     13 O5'         2.5245   -1.6648   -2.1878 O.3       1 GTP         0.1618
     14 C5'         2.2816   -0.2918   -1.9206 C.3       1 GTP         0.1504
     15 C4'         2.7248    0.0226   -0.4980 C.3       1 GTP         0.1111
     16 O4'         2.4697    1.4219   -0.2462 O.3       1 GTP        -0.1436
     17 C3'         1.9404   -0.7419    0.5596 C.3       1 GTP         0.1111
     18 O3'         2.7418   -0.8086    1.7389 O.3       1 GTP        -0.2728
     19 C2'         0.7477    0.1630    0.7858 C.3       1 GTP         0.1111
     20 O2'         0.1373   -0.0577    2.0407 O.3       1 GTP        -0.2728
     21 C1'         1.3733    1.5427    0.6747 C.3       1 GTP         0.2693
     22 N9          0.4520    2.5240    0.1767 N.pl3     1 GTP        -0.3222
     23 C8          0.2203    2.8205   -1.0970 C.ar      1 GTP         0.1640
     24 N7         -0.6947    3.7752   -1.2304 N.pl3     1 GTP        -0.3688
     25 C5         -1.0607    4.0987    0.0476 C.ar      1 GTP         0.0648
     26 C6         -2.0310    5.0839    0.5029 C.ar      1 GTP         0.3597
     27 O6         -2.6779    5.7867   -0.2609 O.2       1 GTP        -0.2755
     28 N1         -2.1030    5.0975    1.8948 N.pl3     1 GTP        -0.1604
     29 C2         -1.3422    4.2721    2.7403 C.ar      1 GTP         0.4468
     30 N2         -1.5624    4.4419    4.0823 N.pl3     1 GTP        -0.5618
     31 N3         -0.4796    3.3981    2.2792 N.2       1 GTP        -0.4283
     32 C4         -0.3754    3.3496    0.9208 C.ar      1 GTP         0.2226
     33 HOA2        2.3459   -1.3097   -5.0104 H         1 GTP         0.2010
     34 H5'         2.8432    0.3119   -2.6398 H         1 GTP        -0.0393
     35 H5''        1.2128   -0.0927   -2.0428 H         1 GTP        -0.0393
     36 H4'         3.8044   -0.1397   -0.4040 H         1 GTP        -0.0393
     37 H3'         1.6764   -1.7639    0.2728 H         1 GTP        -0.0393
     38 HO3'        2.2232   -1.2979    2.3953 H         1 GTP         0.2010
     39 H2'        -0.0011    0.0027    0.0003 H         1 GTP        -0.0393
     40 HO2'       -0.1563   -0.9855    2.0596 H         1 GTP         0.2010
     41 H1'         1.7826    1.9024    1.6451 H         1 GTP        -0.0393
     42 H8          0.7110    2.3472   -1.9295 H         1 GTP         0.0000
     43 HN1        -2.7504    5.7495    2.3282 H         1 GTP         0.0865
     44 HN21       -1.0467    3.8796    4.7190 H         1 GTP         0.2048
     45 HN22       -2.2294    5.1209    4.3680 H         1 GTP         0.2048
     46 H46        -1.0382    4.1687   -2.0954 H         1 GTP         0.2048
@<TRIPOS>BOND
     1    1    2 2
     2    1    3 1
     3    1    4 1
     4    1    5 1
     5    5    6 1
     6    6    7 2
     7    6    8 1
     8    6    9 1
     9    9   10 1
    10   10   11 2
    11   10   12 1
    12   10   13 1
    13   12   33 1
    14   13   14 1
    15   14   15 1
    16   14   34 1
    17   14   35 1
    18   15   16 1
    19   15   17 1
    20   15   36 1
    21   16   21 1
    22   17   18 1
    23   17   19 1
    24   17   37 1
    25   18   38 1
    26   19   20 1
    27   19   21 1
    28   19   39 1
    29   20   40 1
    30   21   22 1
    31   21   41 1
    32   22   23 ar
    33   22   32 ar
    34   23   24 ar
    35   23   42 1
    36   24   25 ar
    37   24   46 1
    38   25   26 ar
    39   25   32 ar
    40   26   27 2
    41   26   28 ar
    42   28   29 ar
    43   28   43 1
    44   29   30 1
    45   29   31 ar
    46   30   44 1
    47   30   45 1
    48   31   32 ar
@<TRIPOS>SUBSTRUCTURE
     1 GTP         1 GROUP 0 A     ****
@<TRIPOS>MOLECULE
[[[5-(2-amino-6-oxo-7,8-dihydro-1~{H}-purin-8-ylium-9-yl)-3,4-dihydroxy-tetrahydrofuran-2-yl]methoxy-hydroxy-phosphoryl]oxy-oxido-phosphoryl] phosphate
   46    48     1     0     0
SMALL
USER_CHARGES

@<TRIPOS>ATOM
      1 PG          6.1663   -3.0068   -0.6728 P.3       1 GTP        -1.1921
      2 O1G         4.7992   -3.3366   -1.2627 O.co2     1 GTP         0.3195
      3 O2G         7.0957   -4.2069   -0.5280 O.co2     1 GTP         0.3195
      4 O3G         6.1147   -2.1078    0.5583 O.co2     1 GTP         0.3195
      5 O3B         6.8885   -2.0640   -1.8153 O.3       1 GTP         0.4672
      6 PB          6.4607   -0.6311   -2.4711 P.3       1 GTP        -1.1062
      7 O1B         6.2191    0.3651   -1.3589 O.co2     1 GTP         0.3195
      8 O2B         7.4206   -0.3199   -3.5981 O.co2     1 GTP         0.3195
      9 O3A         5.0231   -1.0558   -3.1161 O.3       1 GTP         0.4672
     10 PA          3.9517   -0.1778   -3.9522 P.3       1 GTP        -0.9715
     11 O1A         4.5722    0.7720   -4.9354 O.2       1 GTP         0.2707
     12 O2A         2.9652   -1.2826   -4.6031 O.3       1 GTP         0.0326
     13 O5'         3.0213    0.5153   -2.8245 O.3       1 GTP         0.1618
     14 C5'         2.2816   -0.2918   -1.9206 C.3       1 GTP         0.1504
     15 C4'         2.7248    0.0226   -0.4980 C.3       1 GTP         0.1111
     16 O4'         2.4697    1.4219   -0.2462 O.3       1 GTP        -0.1436
     17 C3'         1.9404   -0.7419    0.5596 C.3       1 GTP         0.1111
     18 O3'         2.7418   -0.8086    1.7389 O.3       1 GTP        -0.2728
     19 C2'         0.7477    0.1630    0.7858 C.3       1 GTP         0.1111
     20 O2'         0.1373   -0.0577    2.0407 O.3       1 GTP        -0.2728
     21 C1'         1.3733    1.5427    0.6747 C.3       1 GTP         0.2693
     22 N9          0.4520    2.5240    0.1767 N.pl3     1 GTP        -0.3222
     23 C8          0.2203    2.8205   -1.0970 C.ar      1 GTP         0.1640
     24 N7         -0.6947    3.7752   -1.2304 N.pl3     1 GTP        -0.3688
     25 C5         -1.0607    4.0987    0.0476 C.ar      1 GTP         0.0648
     26 C6         -2.0310    5.0839    0.5029 C.ar      1 GTP         0.3597
     27 O6         -2.6779    5.7867   -0.2609 O.2       1 GTP        -0.2755
     28 N1         -2.1030    5.0975    1.8948 N.pl3     1 GTP        -0.1604
     29 C2         -1.3422    4.2721    2.7403 C.ar      1 GTP         0.4468
     30 N2         -1.5624    4.4419    4.0823 N.pl3     1 GTP        -0.5618
     31 N3         -0.4796    3.3981    2.2792 N.2       1 GTP        -0.4283
     32 C4         -0.3754    3.3496    0.9208 C.ar      1 GTP         0.2226
     33 HOA2        2.1750   -0.9797   -5.0990 H         1 GTP         0.2010
     34 H5'         1.2163   -0.0770   -2.0471 H         1 GTP        -0.0393
     35 H5''        2.4655   -1.3443   -2.1563 H         1 GTP        -0.0393
     36 H4'         3.8044   -0.1397   -0.4040 H         1 GTP        -0.0393
     37 H3'         1.6764   -1.7639    0.2728 H         1 GTP        -0.0393
     38 HO3'        2.2232   -1.2979    2.3953 H         1 GTP         0.2010
     39 H2'        -0.0011    0.0027    0.0003 H         1 GTP        -0.0393
     40 HO2'       -0.6141    0.5574    2.1082 H         1 GTP         0.2010
     41 H1'         1.7826    1.9024    1.6451 H         1 GTP        -0.0393
     42 H8          0.7110    2.3472   -1.9295 H         1 GTP         0.0000
     43 HN1        -2.7504    5.7495    2.3282 H         1 GTP         0.0865
     44 HN21       -1.0467    3.8796    4.7190 H         1 GTP         0.2048
     45 HN22       -2.2294    5.1209    4.3680 H         1 GTP         0.2048
     46 H46        -1.0382    4.1687   -2.0954 H         1 GTP         0.2048
@<TRIPOS>BOND
     1    1    2 2
     2    1    3 1
     3    1    4 1
     4    1    5 1
     5    5    6 1
     6    6    7 2
     7    6    8 1
     8    6    9 1
     9    9   10 1
    10   10   11 2
    11   10   12 1
    12   10   13 1
    13   12   33 1
    14   13   14 1
    15   14   15 1
    16   14   34 1
    17   14   35 1
    18   15   16 1
    19   15   17 1
    20   15   36 1
    21   16   21 1
    22   17   18 1
    23   17   19 1
    24   17   37 1
    25   18   38 1
    26   19   20 1
    27   19   21 1
    28   19   39 1
    29   20   40 1
    30   21   22 1
    31   21   41 1
    32   22   23 ar
    33   22   32 ar
    34   23   24 ar
    35   23   42 1
    36   24   25 ar
    37   24   46 1
    38   25   26 ar
    39   25   32 ar
    40   26   27 2
    41   26   28 ar
    42   28   29 ar
    43   28   43 1
    44   29   30 1
    45   29   31 ar
    46   30   44 1
    47   30   45 1
    48   31   32 ar
@<TRIPOS>SUBSTRUCTURE
     1 GTP         1 GROUP 0 A     ****
@<TRIPOS>MOLECULE
[[[5-(2-amino-6-oxo-7,8-dihydro-1~{H}-purin-8-ylium-9-yl)-3,4-dihydroxy-tetrahydrofuran-2-yl]methoxy-hydroxy-phosphoryl]oxy-oxido-phosphoryl] phosphate
   46    48     1     0     0
SMALL
USER_CHARGES

@<TRIPOS>ATOM
      1 PG          4.9346   -4.3780   -2.8372 P.3       1 GTP        -1.1921
      2 O1G         3.8518   -5.2834   -3.4145 O.co2     1 GTP         0.3195
      3 O2G         6.1685   -5.1164   -2.3301 O.co2     1 GTP         0.3195
      4 O3G         4.4118   -3.3106   -1.8812 O.co2     1 GTP         0.3195
      5 O3B         5.4771   -3.5125   -4.1304 O.3       1 GTP         0.4672
      6 PB          4.7136   -2.4969   -5.1560 P.3       1 GTP        -1.1062
      7 O1B         5.7380   -1.8572   -6.0665 O.co2     1 GTP         0.3195
      8 O2B         3.5089   -3.2140   -5.7243 O.co2     1 GTP         0.3195
      9 O3A         4.1953   -1.3810   -4.0840 O.3       1 GTP         0.4672
     10 PA          3.3423   -0.0257   -4.3151 P.3       1 GTP        -0.9715
     11 O1A         4.0065    0.9689   -5.2226 O.2       1 GTP         0.2707
     12 O2A         1.9005   -0.5544   -4.8241 O.3       1 GTP         0.0326
     13 O5'         3.0213    0.5153   -2.8245 O.3       1 GTP         0.1618
     14 C5'         2.2816   -0.2918   -1.9206 C.3       1 GTP         0.1504
     15 C4'         2.7248    0.0226   -0.4980 C.3       1 GTP         0.1111
     16 O4'         2.4697    1.4219   -0.2462 O.3       1 GTP        -0.1436
     17 C3'         1.9404   -0.7419    0.5596 C.3       1 GTP         0.1111
     18 O3'         2.7418   -0.8086    1.7389 O.3       1 GTP        -0.2728
     19 C2'         0.7477    0.1630    0.7858 C.3       1 GTP         0.1111
     20 O2'         0.1373   -0.0577    2.0407 O.3       1 GTP        -0.2728
     21 C1'         1.3733    1.5427    0.6747 C.3       1 GTP         0.2693
     22 N9          0.4520    2.5240    0.1767 N.pl3     1 GTP        -0.3222
     23 C8          0.2203    2.8205   -1.0970 C.ar      1 GTP         0.1640
     24 N7         -0.6947    3.7752   -1.2304 N.pl3     1 GTP        -0.3688
     25 C5         -1.0607    4.0987    0.0476 C.ar      1 GTP         0.0648
     26 C6         -2.0310    5.0839    0.5029 C.ar      1 GTP         0.3597
     27 O6         -2.6779    5.7867   -0.2609 O.2       1 GTP        -0.2755
     28 N1         -2.1030    5.0975    1.8948 N.pl3     1 GTP        -0.1604
     29 C2         -1.3422    4.2721    2.7403 C.ar      1 GTP         0.4468
     30 N2         -1.5624    4.4419    4.0823 N.pl3     1 GTP        -0.5618
     31 N3         -0.4796    3.3981    2.2792 N.2       1 GTP        -0.4283
     32 C4         -0.3754    3.3496    0.9208 C.ar      1 GTP         0.2226
     33 HOA2        1.8422   -1.0165   -5.6873 H         1 GTP         0.2010
     34 H5'         1.2163   -0.0770   -2.0471 H         1 GTP        -0.0393
     35 H5''        2.4655   -1.3443   -2.1563 H         1 GTP        -0.0393
     36 H4'         3.8044   -0.1397   -0.4040 H         1 GTP        -0.0393
     37 H3'         1.6764   -1.7639    0.2728 H         1 GTP        -0.0393
     38 HO3'        3.5554   -1.2733    1.4914 H         1 GTP         0.2010
     39 H2'        -0.0011    0.0027    0.0003 H         1 GTP        -0.0393
     40 HO2'       -0.6141    0.5574    2.1082 H         1 GTP         0.2010
     41 H1'         1.7826    1.9024    1.6451 H         1 GTP        -0.0393
     42 H8          0.7110    2.3472   -1.9295 H         1 GTP         0.0000
     43 HN1        -2.7504    5.7495    2.3282 H         1 GTP         0.0865
     44 HN21       -1.0467    3.8796    4.7190 H         1 GTP         0.2048
     45 HN22       -2.2294    5.1209    4.3680 H         1 GTP         0.2048
     46 H46        -1.0382    4.1687   -2.0954 H         1 GTP         0.2048
@<TRIPOS>BOND
     1    1    2 2
     2    1    3 1
     3    1    4 1
     4    1    5 1
     5    5    6 1
     6    6    7 2
     7    6    8 1
     8    6    9 1
     9    9   10 1
    10   10   11 2
    11   10   12 1
    12   10   13 1
    13   12   33 1
    14   13   14 1
    15   14   15 1
    16   14   34 1
    17   14   35 1
    18   15   16 1
    19   15   17 1
    20   15   36 1
    21   16   21 1
    22   17   18 1
    23   17   19 1
    24   17   37 1
    25   18   38 1
    26   19   20 1
    27   19   21 1
    28   19   39 1
    29   20   40 1
    30   21   22 1
    31   21   41 1
    32   22   23 ar
    33   22   32 ar
    34   23   24 ar
    35   23   42 1
    36   24   25 ar
    37   24   46 1
    38   25   26 ar
    39   25   32 ar
    40   26   27 2
    41   26   28 ar
    42   28   29 ar
    43   28   43 1
    44   29   30 1
    45   29   31 ar
    46   30   44 1
    47   30   45 1
    48   31   32 ar
@<TRIPOS>SUBSTRUCTURE
     1 GTP         1 GROUP 0 A     ****
@<TRIPOS>MOLECULE
[[[5-(2-amino-6-oxo-7,8-dihydro-1~{H}-purin-8-ylium-9-yl)-3,4-dihydroxy-tetrahydrofuran-2-yl]methoxy-hydroxy-phosphoryl]oxy-oxido-phosphoryl] phosphate
   46    48     1     0     0
SMALL
USER_CHARGES

@<TRIPOS>ATOM
      1 PG         -2.3258   -0.3819   -3.7479 P.3       1 GTP        -1.1921
      2 O1G        -2.1815    0.6039   -4.9024 O.co2     1 GTP         0.3195
      3 O2G        -3.7635   -0.6204   -3.2994 O.co2     1 GTP         0.3195
      4 O3G        -1.3471   -0.1484   -2.6014 O.co2     1 GTP         0.3195
      5 O3B        -1.8485   -1.8267   -4.3809 O.3       1 GTP         0.4672
      6 PB         -0.4382   -2.3081   -5.0482 P.3       1 GTP        -1.1062
      7 O1B        -0.5054   -3.7947   -5.3188 O.co2     1 GTP         0.3195
      8 O2B        -0.0766   -1.3338   -6.1475 O.co2     1 GTP         0.3195
      9 O3A         0.5548   -2.0505   -3.7791 O.3       1 GTP         0.4672
     10 PA          2.1490   -2.2861   -3.6338 P.3       1 GTP        -0.9715
     11 O1A         2.5798   -3.7086   -3.8453 O.2       1 GTP         0.2707
     12 O2A         2.7964   -1.2188   -4.6629 O.3       1 GTP         0.0326
     13 O5'         2.5245   -1.6648   -2.1878 O.3       1 GTP         0.1618
     14 C5'         2.2816   -0.2918   -1.9206 C.3       1 GTP         0.1504
     15 C4'         2.7248    0.0226   -0.4980 C.3       1 GTP         0.1111
     16 O4'         2.4697    1.4219   -0.2462 O.3       1 GTP        -0.1436
     17 C3'         1.9404   -0.7419    0.5596 C.3       1 GTP         0.1111
     18 O3'         2.7418   -0.8086    1.7389 O.3       1 GTP        -0.2728
     19 C2'         0.7477    0.1630    0.7858 C.3       1 GTP         0.1111
     20 O2'         0.1373   -0.0577    2.0407 O.3       1 GTP        -0.2728
     21 C1'         1.3733    1.5427    0.6747 C.3       1 GTP         0.2693
     22 N9          0.4520    2.5240    0.1767 N.pl3     1 GTP        -0.3222
     23 C8          0.2203    2.8205   -1.0970 C.ar      1 GTP         0.1640
     24 N7         -0.6947    3.7752   -1.2304 N.pl3     1 GTP        -0.3688
     25 C5         -1.0607    4.0987    0.0476 C.ar      1 GTP         0.0648
     26 C6         -2.0310    5.0839    0.5029 C.ar      1 GTP         0.3597
     27 O6         -2.6779    5.7867   -0.2609 O.2       1 GTP        -0.2755
     28 N1         -2.1030    5.0975    1.8948 N.pl3     1 GTP        -0.1604
     29 C2         -1.3422    4.2721    2.7403 C.ar      1 GTP         0.4468
     30 N2         -1.5624    4.4419    4.0823 N.pl3     1 GTP        -0.5618
     31 N3         -0.4796    3.3981    2.2792 N.2       1 GTP        -0.4283
     32 C4         -0.3754    3.3496    0.9208 C.ar      1 GTP         0.2226
     33 HOA2        2.6315   -1.3261   -5.6239 H         1 GTP         0.2010
     34 H5'         2.8432    0.3119   -2.6398 H         1 GTP        -0.0393
     35 H5''        1.2128   -0.0927   -2.0428 H         1 GTP        -0.0393
     36 H4'         3.8044   -0.1397   -0.4040 H         1 GTP        -0.0393
     37 H3'         1.6764   -1.7639    0.2728 H         1 GTP        -0.0393
     38 HO3'        3.5554   -1.2733    1.4914 H         1 GTP         0.2010
     39 H2'        -0.0011    0.0027    0.0003 H         1 GTP        -0.0393
     40 HO2'        0.8082    0.1199    2.7232 H         1 GTP         0.2010
     41 H1'         1.7826    1.9024    1.6451 H         1 GTP        -0.0393
     42 H8          0.7110    2.3472   -1.9295 H         1 GTP         0.0000
     43 HN1        -2.7504    5.7495    2.3282 H         1 GTP         0.0865
     44 HN21       -1.0467    3.8796    4.7190 H         1 GTP         0.2048
     45 HN22       -2.2294    5.1209    4.3680 H         1 GTP         0.2048
     46 H46        -1.0382    4.1687   -2.0954 H         1 GTP         0.2048
@<TRIPOS>BOND
     1    1    2 2
     2    1    3 1
     3    1    4 1
     4    1    5 1
     5    5    6 1
     6    6    7 2
     7    6    8 1
     8    6    9 1
     9    9   10 1
    10   10   11 2
    11   10   12 1
    12   10   13 1
    13   12   33 1
    14   13   14 1
    15   14   15 1
    16   14   34 1
    17   14   35 1
    18   15   16 1
    19   15   17 1
    20   15   36 1
    21   16   21 1
    22   17   18 1
    23   17   19 1
    24   17   37 1
    25   18   38 1
    26   19   20 1
    27   19   21 1
    28   19   39 1
    29   20   40 1
    30   21   22 1
    31   21   41 1
    32   22   23 ar
    33   22   32 ar
    34   23   24 ar
    35   23   42 1
    36   24   25 ar
    37   24   46 1
    38   25   26 ar
    39   25   32 ar
    40   26   27 2
    41   26   28 ar
    42   28   29 ar
    43   28   43 1
    44   29   30 1
    45   29   31 ar
    46   30   44 1
    47   30   45 1
    48   31   32 ar
@<TRIPOS>SUBSTRUCTURE
     1 GTP         1 GROUP 0 A     ****
@<TRIPOS>MOLECULE
[[[5-(2-amino-6-oxo-7,8-dihydro-1~{H}-purin-8-ylium-9-yl)-3,4-dihydroxy-tetrahydrofuran-2-yl]methoxy-hydroxy-phosphoryl]oxy-oxido-phosphoryl] phosphate
   46    48     1     0     0
SMALL
USER_CHARGES

@<TRIPOS>ATOM
      1 PG         -3.5599   -2.0383   -3.4716 P.3       1 GTP        -1.1921
      2 O1G        -3.7671   -1.5906   -2.0286 O.co2     1 GTP         0.3195
      3 O2G        -4.1374   -1.0881   -4.5149 O.co2     1 GTP         0.3195
      4 O3G        -3.8831   -3.5078   -3.7219 O.co2     1 GTP         0.3195
      5 O3B        -1.9296   -1.9530   -3.6968 O.3       1 GTP         0.4672
      6 PB         -0.6877   -2.6969   -2.9416 P.3       1 GTP        -1.1062
      7 O1B        -0.6177   -2.2068   -1.5125 O.co2     1 GTP         0.3195
      8 O2B        -0.7603   -4.1755   -3.2533 O.co2     1 GTP         0.3195
      9 O3A         0.5548   -2.0505   -3.7791 O.3       1 GTP         0.4672
     10 PA          2.1490   -2.2861   -3.6338 P.3       1 GTP        -0.9715
     11 O1A         2.5798   -3.7086   -3.8453 O.2       1 GTP         0.2707
     12 O2A         2.7964   -1.2188   -4.6629 O.3       1 GTP         0.0326
     13 O5'         2.5245   -1.6648   -2.1878 O.3       1 GTP         0.1618
     14 C5'         2.2816   -0.2918   -1.9206 C.3       1 GTP         0.1504
     15 C4'         2.7248    0.0226   -0.4980 C.3       1 GTP         0.1111
     16 O4'         2.4697    1.4219   -0.2462 O.3       1 GTP        -0.1436
     17 C3'         1.9404   -0.7419    0.5596 C.3       1 GTP         0.1111
     18 O3'         2.7418   -0.8086    1.7389 O.3       1 GTP        -0.2728
     19 C2'         0.7477    0.1630    0.7858 C.3       1 GTP         0.1111
     20 O2'         0.1373   -0.0577    2.0407 O.3       1 GTP        -0.2728
     21 C1'         1.3733    1.5427    0.6747 C.3       1 GTP         0.2693
     22 N9          0.4520    2.5240    0.1767 N.pl3     1 GTP        -0.3222
     23 C8         -0.2009    2.4849   -0.9792 C.ar      1 GTP         0.1640
     24 N7         -0.9840    3.5454   -1.1481 N.pl3     1 GTP        -0.3688
     25 C5         -0.8090    4.3005   -0.0206 C.ar      1 GTP         0.0648
     26 C6         -1.4206    5.5724    0.3362 C.ar      1 GTP         0.3597
     27 O6         -2.2199    6.1544   -0.3836 O.2       1 GTP        -0.2755
     28 N1         -0.9680    6.0043    1.5817 N.pl3     1 GTP        -0.1604
     29 C2         -0.0474    5.3055    2.3814 C.ar      1 GTP         0.4468
     30 N2          0.2680    5.9024    3.5740 N.pl3     1 GTP        -0.5618
     31 N3          0.4755    4.1601    2.0138 N.2       1 GTP        -0.4283
     32 C4          0.0611    3.6981    0.8001 C.ar      1 GTP         0.2226
     33 HOA2        3.7717   -1.1194   -4.6922 H         1 GTP         0.2010
     34 H5'         2.8432    0.3119   -2.6398 H         1 GTP        -0.0393
     35 H5''        1.2128   -0.0927   -2.0428 H         1 GTP        -0.0393
     36 H4'         3.8044   -0.1397   -0.4040 H         1 GTP        -0.0393
     37 H3'         1.6764   -1.7639    0.2728 H         1 GTP        -0.0393
     38 HO3'        2.2232   -1.2979    2.3953 H         1 GTP         0.2010
     39 H2'        -0.0011    0.0027    0.0003 H         1 GTP        -0.0393
     40 HO2'       -0.6141    0.5574    2.1082 H         1 GTP         0.2010
     41 H1'         1.7826    1.9024    1.6451 H         1 GTP        -0.0393
     42 H8         -0.1126    1.6906   -1.6997 H         1 GTP         0.0000
     43 HN1        -1.3285    6.8855    1.9361 H         1 GTP         0.0865
     44 HN21        0.9153    5.4446    4.1732 H         1 GTP         0.2048
     45 HN22       -0.1624    6.7706    3.7948 H         1 GTP         0.2048
     46 H46        -1.5768    3.7405   -1.9429 H         1 GTP         0.2048
@<TRIPOS>BOND
     1    1    2 2
     2    1    3 1
     3    1    4 1
     4    1    5 1
     5    5    6 1
     6    6    7 2
     7    6    8 1
     8    6    9 1
     9    9   10 1
    10   10   11 2
    11   10   12 1
    12   10   13 1
    13   12   33 1
    14   13   14 1
    15   14   15 1
    16   14   34 1
    17   14   35 1
    18   15   16 1
    19   15   17 1
    20   15   36 1
    21   16   21 1
    22   17   18 1
    23   17   19 1
    24   17   37 1
    25   18   38 1
    26   19   20 1
    27   19   21 1
    28   19   39 1
    29   20   40 1
    30   21   22 1
    31   21   41 1
    32   22   23 ar
    33   22   32 ar
    34   23   24 ar
    35   23   42 1
    36   24   25 ar
    37   24   46 1
    38   25   26 ar
    39   25   32 ar
    40   26   27 2
    41   26   28 ar
    42   28   29 ar
    43   28   43 1
    44   29   30 1
    45   29   31 ar
    46   30   44 1
    47   30   45 1
    48   31   32 ar
@<TRIPOS>SUBSTRUCTURE
     1 GTP         1 GROUP 0 A     ****
@<TRIPOS>MOLECULE
[[[5-(2-amino-6-oxo-7,8-dihydro-1~{H}-purin-8-ylium-9-yl)-3,4-dihydroxy-tetrahydrofuran-2-yl]methoxy-hydroxy-phosphoryl]oxy-oxido-phosphoryl] phosphate
   46    48     1     0     0
SMALL
USER_CHARGES

@<TRIPOS>ATOM
      1 PG         -1.2436   -1.6124   -4.1380 P.3       1 GTP        -1.1921
      2 O1G        -1.5488   -3.0803   -4.4172 O.co2     1 GTP         0.3195
      3 O2G        -1.5632   -1.1621   -2.7167 O.co2     1 GTP         0.3195
      4 O3G        -1.7359   -0.6557   -5.2192 O.co2     1 GTP         0.3195
      5 O3B         0.3978   -1.5084   -4.2420 O.3       1 GTP         0.4672
      6 PB          1.4320   -1.8311   -5.4636 P.3       1 GTP        -1.1062
      7 O1B         1.4070   -3.3164   -5.7484 O.co2     1 GTP         0.3195
      8 O2B         1.1920   -0.8242   -6.5668 O.co2     1 GTP         0.3195
      9 O3A         2.8382   -1.4630   -4.7219 O.3       1 GTP         0.4672
     10 PA          3.5157   -2.0910   -3.3935 P.3       1 GTP        -0.9715
     11 O1A         3.8038   -3.5613   -3.4894 O.2       1 GTP         0.2707
     12 O2A         4.8131   -1.1585   -3.1392 O.3       1 GTP         0.0326
     13 O5'         2.5245   -1.6648   -2.1878 O.3       1 GTP         0.1618
     14 C5'         2.2816   -0.2918   -1.9206 C.3       1 GTP         0.1504
     15 C4'         2.7248    0.0226   -0.4980 C.3       1 GTP         0.1111
     16 O4'         2.4697    1.4219   -0.2462 O.3       1 GTP        -0.1436
     17 C3'         1.9404   -0.7419    0.5596 C.3       1 GTP         0.1111
     18 O3'         2.7418   -0.8086    1.7389 O.3       1 GTP        -0.2728
     19 C2'         0.7477    0.1630    0.7858 C.3       1 GTP         0.1111
     20 O2'         0.1373   -0.0577    2.0407 O.3       1 GTP        -0.2728
     21 C1'         1.3733    1.5427    0.6747 C.3       1 GTP         0.2693
     22 N9          0.4520    2.5240    0.1767 N.pl3     1 GTP        -0.3222
     23 C8          0.2203    2.8205   -1.0970 C.ar      1 GTP         0.1640
     24 N7         -0.6947    3.7752   -1.2304 N.pl3     1 GTP        -0.3688
     25 C5         -1.0607    4.0987    0.0476 C.ar      1 GTP         0.0648
     26 C6         -2.0310    5.0839    0.5029 C.ar      1 GTP         0.3597
     27 O6         -2.6779    5.7867   -0.2609 O.2       1 GTP        -0.2755
     28 N1         -2.1030    5.0975    1.8948 N.pl3     1 GTP        -0.1604
     29 C2         -1.3422    4.2721    2.7403 C.ar      1 GTP         0.4468
     30 N2         -1.5624    4.4419    4.0823 N.pl3     1 GTP        -0.5618
     31 N3         -0.4796    3.3981    2.2792 N.2       1 GTP        -0.4283
     32 C4         -0.3754    3.3496    0.9208 C.ar      1 GTP         0.2226
     33 HOA2        5.3480   -1.3003   -2.3294 H         1 GTP         0.2010
     34 H5'         2.8432    0.3119   -2.6398 H         1 GTP        -0.0393
     35 H5''        1.2128   -0.0927   -2.0428 H         1 GTP        -0.0393
     36 H4'         3.8044   -0.1397   -0.4040 H         1 GTP        -0.0393
     37 H3'         1.6764   -1.7639    0.2728 H         1 GTP        -0.0393
     38 HO3'        2.2232   -1.2979    2.3953 H         1 GTP         0.2010
     39 H2'        -0.0011    0.0027    0.0003 H         1 GTP        -0.0393
     40 HO2'       -0.6141    0.5574    2.1082 H         1 GTP         0.2010
     41 H1'         1.7826    1.9024    1.6451 H         1 GTP        -0.0393
     42 H8          0.7110    2.3472   -1.9295 H         1 GTP         0.0000
     43 HN1        -2.7504    5.7495    2.3282 H         1 GTP         0.0865
     44 HN21       -1.0467    3.8796    4.7190 H         1 GTP         0.2048
     45 HN22       -2.2294    5.1209    4.3680 H         1 GTP         0.2048
     46 H46        -1.0382    4.1687   -2.0954 H         1 GTP         0.2048
@<TRIPOS>BOND
     1    1    2 2
     2    1    3 1
     3    1    4 1
     4    1    5 1
     5    5    6 1
     6    6    7 2
     7    6    8 1
     8    6    9 1
     9    9   10 1
    10   10   11 2
    11   10   12 1
    12   10   13 1
    13   12   33 1
    14   13   14 1
    15   14   15 1
    16   14   34 1
    17   14   35 1
    18   15   16 1
    19   15   17 1
    20   15   36 1
    21   16   21 1
    22   17   18 1
    23   17   19 1
    24   17   37 1
    25   18   38 1
    26   19   20 1
    27   19   21 1
    28   19   39 1
    29   20   40 1
    30   21   22 1
    31   21   41 1
    32   22   23 ar
    33   22   32 ar
    34   23   24 ar
    35   23   42 1
    36   24   25 ar
    37   24   46 1
    38   25   26 ar
    39   25   32 ar
    40   26   27 2
    41   26   28 ar
    42   28   29 ar
    43   28   43 1
    44   29   30 1
    45   29   31 ar
    46   30   44 1
    47   30   45 1
    48   31   32 ar
@<TRIPOS>SUBSTRUCTURE
     1 GTP         1 GROUP 0 A     ****
@<TRIPOS>MOLECULE
[[[5-(2-amino-6-oxo-7,8-dihydro-1~{H}-purin-8-ylium-9-yl)-3,4-dihydroxy-tetrahydrofuran-2-yl]methoxy-hydroxy-phosphoryl]oxy-oxido-phosphoryl] phosphate
   46    48     1     0     0
SMALL
USER_CHARGES

@<TRIPOS>ATOM
      1 PG         -0.8374   -4.9900   -6.3181 P.3       1 GTP        -1.1921
      2 O1G        -0.4178   -4.4531   -7.6824 O.co2     1 GTP         0.3195
      3 O2G        -0.1974   -6.3217   -5.9414 O.co2     1 GTP         0.3195
      4 O3G        -2.3387   -4.9252   -6.0563 O.co2     1 GTP         0.3195
      5 O3B        -0.2063   -3.9127   -5.2424 O.3       1 GTP         0.4672
      6 PB         -0.4382   -2.3081   -5.0482 P.3       1 GTP        -1.1062
      7 O1B         0.1160   -1.5826   -6.2541 O.co2     1 GTP         0.3195
      8 O2B        -1.8646   -2.0864   -4.5957 O.co2     1 GTP         0.3195
      9 O3A         0.5548   -2.0505   -3.7791 O.3       1 GTP         0.4672
     10 PA          2.1490   -2.2861   -3.6338 P.3       1 GTP        -0.9715
     11 O1A         2.5798   -3.7086   -3.8453 O.2       1 GTP         0.2707
     12 O2A         2.7964   -1.2188   -4.6629 O.3       1 GTP         0.0326
     13 O5'         2.5245   -1.6648   -2.1878 O.3       1 GTP         0.1618
     14 C5'         2.2816   -0.2918   -1.9206 C.3       1 GTP         0.1504
     15 C4'         2.7248    0.0226   -0.4980 C.3       1 GTP         0.1111
     16 O4'         2.4697    1.4219   -0.2462 O.3       1 GTP        -0.1436
     17 C3'         1.9404   -0.7419    0.5596 C.3       1 GTP         0.1111
     18 O3'         2.7418   -0.8086    1.7389 O.3       1 GTP        -0.2728
     19 C2'         0.7477    0.1630    0.7858 C.3       1 GTP         0.1111
     20 O2'         0.1373   -0.0577    2.0407 O.3       1 GTP        -0.2728
     21 C1'         1.3733    1.5427    0.6747 C.3       1 GTP         0.2693
     22 N9          0.4520    2.5240    0.1767 N.pl3     1 GTP        -0.3222
     23 C8          0.2203    2.8205   -1.0970 C.ar      1 GTP         0.1640
     24 N7         -0.6947    3.7752   -1.2304 N.pl3     1 GTP        -0.3688
     25 C5         -1.0607    4.0987    0.0476 C.ar      1 GTP         0.0648
     26 C6         -2.0310    5.0839    0.5029 C.ar      1 GTP         0.3597
     27 O6         -2.6779    5.7867   -0.2609 O.2       1 GTP        -0.2755
     28 N1         -2.1030    5.0975    1.8948 N.pl3     1 GTP        -0.1604
     29 C2         -1.3422    4.2721    2.7403 C.ar      1 GTP         0.4468
     30 N2         -1.5624    4.4419    4.0823 N.pl3     1 GTP        -0.5618
     31 N3         -0.4796    3.3981    2.2792 N.2       1 GTP        -0.4283
     32 C4         -0.3754    3.3496    0.9208 C.ar      1 GTP         0.2226
     33 HOA2        2.6315   -1.3261   -5.6239 H         1 GTP         0.2010
     34 H5'         2.8432    0.3119   -2.6398 H         1 GTP        -0.0393
     35 H5''        1.2128   -0.0927   -2.0428 H         1 GTP        -0.0393
     36 H4'         3.8044   -0.1397   -0.4040 H         1 GTP        -0.0393
     37 H3'         1.6764   -1.7639    0.2728 H         1 GTP        -0.0393
     38 HO3'        2.2232   -1.2979    2.3953 H         1 GTP         0.2010
     39 H2'        -0.0011    0.0027    0.0003 H         1 GTP        -0.0393
     40 HO2'       -0.6141    0.5574    2.1082 H         1 GTP         0.2010
     41 H1'         1.7826    1.9024    1.6451 H         1 GTP        -0.0393
     42 H8          0.7110    2.3472   -1.9295 H         1 GTP         0.0000
     43 HN1        -2.7504    5.7495    2.3282 H         1 GTP         0.0865
     44 HN21       -1.0467    3.8796    4.7190 H         1 GTP         0.2048
     45 HN22       -2.2294    5.1209    4.3680 H         1 GTP         0.2048
     46 H46        -1.0382    4.1687   -2.0954 H         1 GTP         0.2048
@<TRIPOS>BOND
     1    1    2 2
     2    1    3 1
     3    1    4 1
     4    1    5 1
     5    5    6 1
     6    6    7 2
     7    6    8 1
     8    6    9 1
     9    9   10 1
    10   10   11 2
    11   10   12 1
    12   10   13 1
    13   12   33 1
    14   13   14 1
    15   14   15 1
    16   14   34 1
    17   14   35 1
    18   15   16 1
    19   15   17 1
    20   15   36 1
    21   16   21 1
    22   17   18 1
    23   17   19 1
    24   17   37 1
    25   18   38 1
    26   19   20 1
    27   19   21 1
    28   19   39 1
    29   20   40 1
    30   21   22 1
    31   21   41 1
    32   22   23 ar
    33   22   32 ar
    34   23   24 ar
    35   23   42 1
    36   24   25 ar
    37   24   46 1
    38   25   26 ar
    39   25   32 ar
    40   26   27 2
    41   26   28 ar
    42   28   29 ar
    43   28   43 1
    44   29   30 1
    45   29   31 ar
    46   30   44 1
    47   30   45 1
    48   31   32 ar
@<TRIPOS>SUBSTRUCTURE
     1 GTP         1 GROUP 0 A     ****
@<TRIPOS>MOLECULE
[[[5-(2-amino-6-oxo-7,8-dihydro-1~{H}-purin-8-ylium-9-yl)-3,4-dihydroxy-tetrahydrofuran-2-yl]methoxy-hydroxy-phosphoryl]oxy-oxido-phosphoryl] phosphate
   46    48     1     0     0
SMALL
USER_CHARGES

@<TRIPOS>ATOM
      1 PG          6.7773    1.5099   -0.4022 P.3       1 GTP        -1.1921
      2 O1G         7.7650    2.2708   -1.2804 O.co2     1 GTP         0.3195
      3 O2G         5.6990    2.3807    0.2332 O.co2     1 GTP         0.3195
      4 O3G         7.4298    0.5248    0.5624 O.co2     1 GTP         0.3195
      5 O3B         5.9563    0.5419   -1.4533 O.3       1 GTP         0.4672
      6 PB          6.4607   -0.6311   -2.4711 P.3       1 GTP        -1.1062
      7 O1B         7.3141   -0.0084   -3.5534 O.co2     1 GTP         0.3195
      8 O2B         6.9770   -1.7875   -1.6434 O.co2     1 GTP         0.3195
      9 O3A         5.0231   -1.0558   -3.1161 O.3       1 GTP         0.4672
     10 PA          3.9517   -0.1778   -3.9522 P.3       1 GTP        -0.9715
     11 O1A         4.5722    0.7720   -4.9354 O.2       1 GTP         0.2707
     12 O2A         2.9652   -1.2826   -4.6031 O.3       1 GTP         0.0326
     13 O5'         3.0213    0.5153   -2.8245 O.3       1 GTP         0.1618
     14 C5'         2.2816   -0.2918   -1.9206 C.3       1 GTP         0.1504
     15 C4'         2.7248    0.0226   -0.4980 C.3       1 GTP         0.1111
     16 O4'         2.4697    1.4219   -0.2462 O.3       1 GTP        -0.1436
     17 C3'         1.9404   -0.7419    0.5596 C.3       1 GTP         0.1111
     18 O3'         2.7418   -0.8086    1.7389 O.3       1 GTP        -0.2728
     19 C2'         0.7477    0.1630    0.7858 C.3       1 GTP         0.1111
     20 O2'         0.1373   -0.0577    2.0407 O.3       1 GTP        -0.2728
     21 C1'         1.3733    1.5427    0.6747 C.3       1 GTP         0.2693
     22 N9          0.4520    2.5240    0.1767 N.pl3     1 GTP        -0.3222
     23 C8          0.2203    2.8205   -1.0970 C.ar      1 GTP         0.1640
     24 N7         -0.6947    3.7752   -1.2304 N.pl3     1 GTP        -0.3688
     25 C5         -1.0607    4.0987    0.0476 C.ar      1 GTP         0.0648
     26 C6         -2.0310    5.0839    0.5029 C.ar      1 GTP         0.3597
     27 O6         -2.6779    5.7867   -0.2609 O.2       1 GTP        -0.2755
     28 N1         -2.1030    5.0975    1.8948 N.pl3     1 GTP        -0.1604
     29 C2         -1.3422    4.2721    2.7403 C.ar      1 GTP         0.4468
     30 N2         -1.5624    4.4419    4.0823 N.pl3     1 GTP        -0.5618
     31 N3         -0.4796    3.3981    2.2792 N.2       1 GTP        -0.4283
     32 C4         -0.3754    3.3496    0.9208 C.ar      1 GTP         0.2226
     33 HOA2        2.1750   -0.9797   -5.0990 H         1 GTP         0.2010
     34 H5'         1.2163   -0.0770   -2.0471 H         1 GTP        -0.0393
     35 H5''        2.4655   -1.3443   -2.1563 H         1 GTP        -0.0393
     36 H4'         3.8044   -0.1397   -0.4040 H         1 GTP        -0.0393
     37 H3'         1.6764   -1.7639    0.2728 H         1 GTP        -0.0393
     38 HO3'        2.2232   -1.2979    2.3953 H         1 GTP         0.2010
     39 H2'        -0.0011    0.0027    0.0003 H         1 GTP        -0.0393
     40 HO2'       -0.6141    0.5574    2.1082 H         1 GTP         0.2010
     41 H1'         1.7826    1.9024    1.6451 H         1 GTP        -0.0393
     42 H8          0.7110    2.3472   -1.9295 H         1 GTP         0.0000
     43 HN1        -2.7504    5.7495    2.3282 H         1 GTP         0.0865
     44 HN21       -1.0467    3.8796    4.7190 H         1 GTP         0.2048
     45 HN22       -2.2294    5.1209    4.3680 H         1 GTP         0.2048
     46 H46        -1.0382    4.1687   -2.0954 H         1 GTP         0.2048
@<TRIPOS>BOND
     1    1    2 2
     2    1    3 1
     3    1    4 1
     4    1    5 1
     5    5    6 1
     6    6    7 2
     7    6    8 1
     8    6    9 1
     9    9   10 1
    10   10   11 2
    11   10   12 1
    12   10   13 1
    13   12   33 1
    14   13   14 1
    15   14   15 1
    16   14   34 1
    17   14   35 1
    18   15   16 1
    19   15   17 1
    20   15   36 1
    21   16   21 1
    22   17   18 1
    23   17   19 1
    24   17   37 1
    25   18   38 1
    26   19   20 1
    27   19   21 1
    28   19   39 1
    29   20   40 1
    30   21   22 1
    31   21   41 1
    32   22   23 ar
    33   22   32 ar
    34   23   24 ar
    35   23   42 1
    36   24   25 ar
    37   24   46 1
    38   25   26 ar
    39   25   32 ar
    40   26   27 2
    41   26   28 ar
    42   28   29 ar
    43   28   43 1
    44   29   30 1
    45   29   31 ar
    46   30   44 1
    47   30   45 1
    48   31   32 ar
@<TRIPOS>SUBSTRUCTURE
     1 GTP         1 GROUP 0 A     ****
@<TRIPOS>MOLECULE
[[[5-(2-amino-6-oxo-7,8-dihydro-1~{H}-purin-8-ylium-9-yl)-3,4-dihydroxy-tetrahydrofuran-2-yl]methoxy-hydroxy-phosphoryl]oxy-oxido-phosphoryl] phosphate
   46    48     1     0     0
SMALL
USER_CHARGES

@<TRIPOS>ATOM
      1 PG          3.2712   -3.9166   -6.6109 P.3       1 GTP        -1.1921
      2 O1G         4.2621   -3.5547   -7.7122 O.co2     1 GTP         0.3195
      3 O2G         3.0648   -5.4148   -6.4170 O.co2     1 GTP         0.3195
      4 O3G         1.9773   -3.1096   -6.6452 O.co2     1 GTP         0.3195
      5 O3B         4.0046   -3.4203   -5.2210 O.3       1 GTP         0.4672
      6 PB          4.5192   -1.9510   -4.7285 P.3       1 GTP        -1.1062
      7 O1B         4.9791   -2.0485   -3.2909 O.co2     1 GTP         0.3195
      8 O2B         5.4264   -1.3833   -5.7978 O.co2     1 GTP         0.3195
      9 O3A         3.0998   -1.1470   -4.7716 O.3       1 GTP         0.4672
     10 PA          2.7598    0.3945   -4.4166 P.3       1 GTP        -0.9715
     11 O1A         3.4977    1.3943   -5.2592 O.2       1 GTP         0.2707
     12 O2A         1.1474    0.4728   -4.5232 O.3       1 GTP         0.0326
     13 O5'         3.0213    0.5153   -2.8245 O.3       1 GTP         0.1618
     14 C5'         2.2816   -0.2918   -1.9206 C.3       1 GTP         0.1504
     15 C4'         2.7248    0.0226   -0.4980 C.3       1 GTP         0.1111
     16 O4'         2.4697    1.4219   -0.2462 O.3       1 GTP        -0.1436
     17 C3'         1.9404   -0.7419    0.5596 C.3       1 GTP         0.1111
     18 O3'         2.7418   -0.8086    1.7389 O.3       1 GTP        -0.2728
     19 C2'         0.7477    0.1630    0.7858 C.3       1 GTP         0.1111
     20 O2'         0.1373   -0.0577    2.0407 O.3       1 GTP        -0.2728
     21 C1'         1.3733    1.5427    0.6747 C.3       1 GTP         0.2693
     22 N9          0.4520    2.5240    0.1767 N.pl3     1 GTP        -0.3222
     23 C8         -0.2009    2.4849   -0.9792 C.ar      1 GTP         0.1640
     24 N7         -0.9840    3.5454   -1.1481 N.pl3     1 GTP        -0.3688
     25 C5         -0.8090    4.3005   -0.0206 C.ar      1 GTP         0.0648
     26 C6         -1.4206    5.5724    0.3362 C.ar      1 GTP         0.3597
     27 O6         -2.2199    6.1544   -0.3836 O.2       1 GTP        -0.2755
     28 N1         -0.9680    6.0043    1.5817 N.pl3     1 GTP        -0.1604
     29 C2         -0.0474    5.3055    2.3814 C.ar      1 GTP         0.4468
     30 N2          0.2680    5.9024    3.5740 N.pl3     1 GTP        -0.5618
     31 N3          0.4755    4.1601    2.0138 N.2       1 GTP        -0.4283
     32 C4          0.0611    3.6981    0.8001 C.ar      1 GTP         0.2226
     33 HOA2        0.6950    1.3054   -4.2697 H         1 GTP         0.2010
     34 H5'         1.2163   -0.0770   -2.0471 H         1 GTP        -0.0393
     35 H5''        2.4655   -1.3443   -2.1563 H         1 GTP        -0.0393
     36 H4'         3.8044   -0.1397   -0.4040 H         1 GTP        -0.0393
     37 H3'         1.6764   -1.7639    0.2728 H         1 GTP        -0.0393
     38 HO3'        2.2232   -1.2979    2.3953 H         1 GTP         0.2010
     39 H2'        -0.0011    0.0027    0.0003 H         1 GTP        -0.0393
     40 HO2'       -0.6141    0.5574    2.1082 H         1 GTP         0.2010
     41 H1'         1.7826    1.9024    1.6451 H         1 GTP        -0.0393
     42 H8         -0.1126    1.6906   -1.6997 H         1 GTP         0.0000
     43 HN1        -1.3285    6.8855    1.9361 H         1 GTP         0.0865
     44 HN21        0.9153    5.4446    4.1732 H         1 GTP         0.2048
     45 HN22       -0.1624    6.7706    3.7948 H         1 GTP         0.2048
     46 H46        -1.5768    3.7405   -1.9429 H         1 GTP         0.2048
@<TRIPOS>BOND
     1    1    2 2
     2    1    3 1
     3    1    4 1
     4    1    5 1
     5    5    6 1
     6    6    7 2
     7    6    8 1
     8    6    9 1
     9    9   10 1
    10   10   11 2
    11   10   12 1
    12   10   13 1
    13   12   33 1
    14   13   14 1
    15   14   15 1
    16   14   34 1
    17   14   35 1
    18   15   16 1
    19   15   17 1
    20   15   36 1
    21   16   21 1
    22   17   18 1
    23   17   19 1
    24   17   37 1
    25   18   38 1
    26   19   20 1
    27   19   21 1
    28   19   39 1
    29   20   40 1
    30   21   22 1
    31   21   41 1
    32   22   23 ar
    33   22   32 ar
    34   23   24 ar
    35   23   42 1
    36   24   25 ar
    37   24   46 1
    38   25   26 ar
    39   25   32 ar
    40   26   27 2
    41   26   28 ar
    42   28   29 ar
    43   28   43 1
    44   29   30 1
    45   29   31 ar
    46   30   44 1
    47   30   45 1
    48   31   32 ar
@<TRIPOS>SUBSTRUCTURE
     1 GTP         1 GROUP 0 A     ****
@<TRIPOS>MOLECULE
[[[5-(2-amino-6-oxo-7,8-dihydro-1~{H}-purin-8-ylium-9-yl)-3,4-dihydroxy-tetrahydrofuran-2-yl]methoxy-hydroxy-phosphoryl]oxy-oxido-phosphoryl] phosphate
   46    48     1     0     0
SMALL
USER_CHARGES

@<TRIPOS>ATOM
      1 PG         -1.0901   -2.1688   -4.5881 P.3       1 GTP        -1.1921
      2 O1G        -2.1779   -1.1006   -4.6229 O.co2     1 GTP         0.3195
      3 O2G        -1.5740   -3.5720   -4.9373 O.co2     1 GTP         0.3195
      4 O3G        -0.1950   -2.1085   -3.3544 O.co2     1 GTP         0.3195
      5 O3B        -0.0789   -1.7640   -5.8247 O.3       1 GTP         0.4672
      6 PB          0.7951   -0.4162   -6.1171 P.3       1 GTP        -1.1062
      7 O1B         1.6711   -0.6521   -7.3273 O.co2     1 GTP         0.3195
      8 O2B        -0.1345    0.7755   -6.0512 O.co2     1 GTP         0.3195
      9 O3A         1.7338   -0.4165   -4.7823 O.3       1 GTP         0.4672
     10 PA          2.8890    0.6159   -4.3157 P.3       1 GTP        -0.9715
     11 O1A         4.0363    0.7269   -5.2776 O.2       1 GTP         0.2707
     12 O2A         2.0915    1.9974   -4.0454 O.3       1 GTP         0.0326
     13 O5'         3.2903    0.1346   -2.8241 O.3       1 GTP         0.1618
     14 C5'         2.2816   -0.2918   -1.9206 C.3       1 GTP         0.1504
     15 C4'         2.7248    0.0226   -0.4980 C.3       1 GTP         0.1111
     16 O4'         2.4697    1.4219   -0.2462 O.3       1 GTP        -0.1436
     17 C3'         1.9404   -0.7419    0.5596 C.3       1 GTP         0.1111
     18 O3'         2.7418   -0.8086    1.7389 O.3       1 GTP        -0.2728
     19 C2'         0.7477    0.1630    0.7858 C.3       1 GTP         0.1111
     20 O2'         0.1373   -0.0577    2.0407 O.3       1 GTP        -0.2728
     21 C1'         1.3733    1.5427    0.6747 C.3       1 GTP         0.2693
     22 N9          0.4520    2.5240    0.1767 N.pl3     1 GTP        -0.3222
     23 C8          0.2203    2.8205   -1.0970 C.ar      1 GTP         0.1640
     24 N7         -0.6947    3.7752   -1.2304 N.pl3     1 GTP        -0.3688
     25 C5         -1.0607    4.0987    0.0476 C.ar      1 GTP         0.0648
     26 C6         -2.0310    5.0839    0.5029 C.ar      1 GTP         0.3597
     27 O6         -2.6779    5.7867   -0.2609 O.2       1 GTP        -0.2755
     28 N1         -2.1030    5.0975    1.8948 N.pl3     1 GTP        -0.1604
     29 C2         -1.3422    4.2721    2.7403 C.ar      1 GTP         0.4468
     30 N2         -1.5624    4.4419    4.0823 N.pl3     1 GTP        -0.5618
     31 N3         -0.4796    3.3981    2.2792 N.2       1 GTP        -0.4283
     32 C4         -0.3754    3.3496    0.9208 C.ar      1 GTP         0.2226
     33 HOA2        2.5795    2.7616   -3.6715 H         1 GTP         0.2010
     34 H5'         1.3514    0.2330   -2.1577 H         1 GTP        -0.0393
     35 H5''        2.1280   -1.3678   -2.0460 H         1 GTP        -0.0393
     36 H4'         3.8044   -0.1397   -0.4040 H         1 GTP        -0.0393
     37 H3'         1.6764   -1.7639    0.2728 H         1 GTP        -0.0393
     38 HO3'        2.2232   -1.2979    2.3953 H         1 GTP         0.2010
     39 H2'        -0.0011    0.0027    0.0003 H         1 GTP        -0.0393
     40 HO2'       -0.6141    0.5574    2.1082 H         1 GTP         0.2010
     41 H1'         1.7826    1.9024    1.6451 H         1 GTP        -0.0393
     42 H8          0.7110    2.3472   -1.9295 H         1 GTP         0.0000
     43 HN1        -2.7504    5.7495    2.3282 H         1 GTP         0.0865
     44 HN21       -1.0467    3.8796    4.7190 H         1 GTP         0.2048
     45 HN22       -2.2294    5.1209    4.3680 H         1 GTP         0.2048
     46 H46        -1.0382    4.1687   -2.0954 H         1 GTP         0.2048
@<TRIPOS>BOND
     1    1    2 2
     2    1    3 1
     3    1    4 1
     4    1    5 1
     5    5    6 1
     6    6    7 2
     7    6    8 1
     8    6    9 1
     9    9   10 1
    10   10   11 2
    11   10   12 1
    12   10   13 1
    13   12   33 1
    14   13   14 1
    15   14   15 1
    16   14   34 1
    17   14   35 1
    18   15   16 1
    19   15   17 1
    20   15   36 1
    21   16   21 1
    22   17   18 1
    23   17   19 1
    24   17   37 1
    25   18   38 1
    26   19   20 1
    27   19   21 1
    28   19   39 1
    29   20   40 1
    30   21   22 1
    31   21   41 1
    32   22   23 ar
    33   22   32 ar
    34   23   24 ar
    35   23   42 1
    36   24   25 ar
    37   24   46 1
    38   25   26 ar
    39   25   32 ar
    40   26   27 2
    41   26   28 ar
    42   28   29 ar
    43   28   43 1
    44   29   30 1
    45   29   31 ar
    46   30   44 1
    47   30   45 1
    48   31   32 ar
@<TRIPOS>SUBSTRUCTURE
     1 GTP         1 GROUP 0 A     ****
@<TRIPOS>MOLECULE
[[[5-(2-amino-6-oxo-7,8-dihydro-1~{H}-purin-8-ylium-9-yl)-3,4-dihydroxy-tetrahydrofuran-2-yl]methoxy-hydroxy-phosphoryl]oxy-oxido-phosphoryl] phosphate
   46    48     1     0     0
SMALL
USER_CHARGES

@<TRIPOS>ATOM
      1 PG          1.5773    0.8830   -6.7191 P.3       1 GTP        -1.1921
      2 O1G         2.8604    1.2103   -5.9628 O.co2     1 GTP         0.3195
      3 O2G         1.6108    1.2413   -8.2008 O.co2     1 GTP         0.3195
      4 O3G         0.3024    1.3169   -6.0029 O.co2     1 GTP         0.3195
      5 O3B         1.4973   -0.7629   -6.6967 O.3       1 GTP         0.4672
      6 PB          1.4320   -1.8311   -5.4636 P.3       1 GTP        -1.1062
      7 O1B         0.2874   -1.4557   -4.5490 O.co2     1 GTP         0.3195
      8 O2B         1.5421   -3.2262   -6.0383 O.co2     1 GTP         0.3195
      9 O3A         2.8382   -1.4630   -4.7219 O.3       1 GTP         0.4672
     10 PA          3.5157   -2.0910   -3.3935 P.3       1 GTP        -0.9715
     11 O1A         3.8038   -3.5613   -3.4894 O.2       1 GTP         0.2707
     12 O2A         4.8131   -1.1585   -3.1392 O.3       1 GTP         0.0326
     13 O5'         2.5245   -1.6648   -2.1878 O.3       1 GTP         0.1618
     14 C5'         2.2816   -0.2918   -1.9206 C.3       1 GTP         0.1504
     15 C4'         2.7248    0.0226   -0.4980 C.3       1 GTP         0.1111
     16 O4'         2.4697    1.4219   -0.2462 O.3       1 GTP        -0.1436
     17 C3'         1.9404   -0.7419    0.5596 C.3       1 GTP         0.1111
     18 O3'         2.7418   -0.8086    1.7389 O.3       1 GTP        -0.2728
     19 C2'         0.7477    0.1630    0.7858 C.3       1 GTP         0.1111
     20 O2'         0.1373   -0.0577    2.0407 O.3       1 GTP        -0.2728
     21 C1'         1.3733    1.5427    0.6747 C.3       1 GTP         0.2693
     22 N9          0.4520    2.5240    0.1767 N.pl3     1 GTP        -0.3222
     23 C8          0.2203    2.8205   -1.0970 C.ar      1 GTP         0.1640
     24 N7         -0.6947    3.7752   -1.2304 N.pl3     1 GTP        -0.3688
     25 C5         -1.0607    4.0987    0.0476 C.ar      1 GTP         0.0648
     26 C6         -2.0310    5.0839    0.5029 C.ar      1 GTP         0.3597
     27 O6         -2.6779    5.7867   -0.2609 O.2       1 GTP        -0.2755
     28 N1         -2.1030    5.0975    1.8948 N.pl3     1 GTP        -0.1604
     29 C2         -1.3422    4.2721    2.7403 C.ar      1 GTP         0.4468
     30 N2         -1.5624    4.4419    4.0823 N.pl3     1 GTP        -0.5618
     31 N3         -0.4796    3.3981    2.2792 N.2       1 GTP        -0.4283
     32 C4         -0.3754    3.3496    0.9208 C.ar      1 GTP         0.2226
     33 HOA2        5.3480   -1.3003   -2.3294 H         1 GTP         0.2010
     34 H5'         2.8432    0.3119   -2.6398 H         1 GTP        -0.0393
     35 H5''        1.2128   -0.0927   -2.0428 H         1 GTP        -0.0393
     36 H4'         3.8044   -0.1397   -0.4040 H         1 GTP        -0.0393
     37 H3'         1.6764   -1.7639    0.2728 H         1 GTP        -0.0393
     38 HO3'        2.2232   -1.2979    2.3953 H         1 GTP         0.2010
     39 H2'        -0.0011    0.0027    0.0003 H         1 GTP        -0.0393
     40 HO2'       -0.6141    0.5574    2.1082 H         1 GTP         0.2010
     41 H1'         1.7826    1.9024    1.6451 H         1 GTP        -0.0393
     42 H8          0.7110    2.3472   -1.9295 H         1 GTP         0.0000
     43 HN1        -2.7504    5.7495    2.3282 H         1 GTP         0.0865
     44 HN21       -1.0467    3.8796    4.7190 H         1 GTP         0.2048
     45 HN22       -2.2294    5.1209    4.3680 H         1 GTP         0.2048
     46 H46        -1.0382    4.1687   -2.0954 H         1 GTP         0.2048
@<TRIPOS>BOND
     1    1    2 2
     2    1    3 1
     3    1    4 1
     4    1    5 1
     5    5    6 1
     6    6    7 2
     7    6    8 1
     8    6    9 1
     9    9   10 1
    10   10   11 2
    11   10   12 1
    12   10   13 1
    13   12   33 1
    14   13   14 1
    15   14   15 1
    16   14   34 1
    17   14   35 1
    18   15   16 1
    19   15   17 1
    20   15   36 1
    21   16   21 1
    22   17   18 1
    23   17   19 1
    24   17   37 1
    25   18   38 1
    26   19   20 1
    27   19   21 1
    28   19   39 1
    29   20   40 1
    30   21   22 1
    31   21   41 1
    32   22   23 ar
    33   22   32 ar
    34   23   24 ar
    35   23   42 1
    36   24   25 ar
    37   24   46 1
    38   25   26 ar
    39   25   32 ar
    40   26   27 2
    41   26   28 ar
    42   28   29 ar
    43   28   43 1
    44   29   30 1
    45   29   31 ar
    46   30   44 1
    47   30   45 1
    48   31   32 ar
@<TRIPOS>SUBSTRUCTURE
     1 GTP         1 GROUP 0 A     ****
@<TRIPOS>MOLECULE
[[[5-(2-amino-6-oxo-7,8-dihydro-1~{H}-purin-8-ylium-9-yl)-3,4-dihydroxy-tetrahydrofuran-2-yl]methoxy-hydroxy-phosphoryl]oxy-oxido-phosphoryl] phosphate
   46    48     1     0     0
SMALL
USER_CHARGES

@<TRIPOS>ATOM
      1 PG         -1.0754    1.8125   -6.8231 P.3       1 GTP        -1.1921
      2 O1G        -2.2631    0.8572   -6.8695 O.co2     1 GTP         0.3195
      3 O2G        -1.3378    3.1069   -6.0611 O.co2     1 GTP         0.3195
      4 O3G        -0.3811    2.0114   -8.1667 O.co2     1 GTP         0.3195
      5 O3B         0.0502    1.0227   -5.9148 O.3       1 GTP         0.4672
      6 PB          0.7951   -0.4162   -6.1171 P.3       1 GTP        -1.1062
      7 O1B        -0.2296   -1.5214   -5.9910 O.co2     1 GTP         0.3195
      8 O2B         1.6891   -0.3204   -7.3338 O.co2     1 GTP         0.3195
      9 O3A         1.7338   -0.4165   -4.7823 O.3       1 GTP         0.4672
     10 PA          2.8890    0.6159   -4.3157 P.3       1 GTP        -0.9715
     11 O1A         4.0363    0.7269   -5.2776 O.2       1 GTP         0.2707
     12 O2A         2.0915    1.9974   -4.0454 O.3       1 GTP         0.0326
     13 O5'         3.2903    0.1346   -2.8241 O.3       1 GTP         0.1618
     14 C5'         2.2816   -0.2918   -1.9206 C.3       1 GTP         0.1504
     15 C4'         2.7248    0.0226   -0.4980 C.3       1 GTP         0.1111
     16 O4'         2.4697    1.4219   -0.2462 O.3       1 GTP        -0.1436
     17 C3'         1.9404   -0.7419    0.5596 C.3       1 GTP         0.1111
     18 O3'         2.7418   -0.8086    1.7389 O.3       1 GTP        -0.2728
     19 C2'         0.7477    0.1630    0.7858 C.3       1 GTP         0.1111
     20 O2'         0.1373   -0.0577    2.0407 O.3       1 GTP        -0.2728
     21 C1'         1.3733    1.5427    0.6747 C.3       1 GTP         0.2693
     22 N9          0.4520    2.5240    0.1767 N.pl3     1 GTP        -0.3222
     23 C8          0.2203    2.8205   -1.0970 C.ar      1 GTP         0.1640
     24 N7         -0.6947    3.7752   -1.2304 N.pl3     1 GTP        -0.3688
     25 C5         -1.0607    4.0987    0.0476 C.ar      1 GTP         0.0648
     26 C6         -2.0310    5.0839    0.5029 C.ar      1 GTP         0.3597
     27 O6         -2.6779    5.7867   -0.2609 O.2       1 GTP        -0.2755
     28 N1         -2.1030    5.0975    1.8948 N.pl3     1 GTP        -0.1604
     29 C2         -1.3422    4.2721    2.7403 C.ar      1 GTP         0.4468
     30 N2         -1.5624    4.4419    4.0823 N.pl3     1 GTP        -0.5618
     31 N3         -0.4796    3.3981    2.2792 N.2       1 GTP        -0.4283
     32 C4         -0.3754    3.3496    0.9208 C.ar      1 GTP         0.2226
     33 HOA2        1.6626    2.4532   -4.8007 H         1 GTP         0.2010
     34 H5'         1.3514    0.2330   -2.1577 H         1 GTP        -0.0393
     35 H5''        2.1280   -1.3678   -2.0460 H         1 GTP        -0.0393
     36 H4'         3.8044   -0.1397   -0.4040 H         1 GTP        -0.0393
     37 H3'         1.6764   -1.7639    0.2728 H         1 GTP        -0.0393
     38 HO3'        2.2232   -1.2979    2.3953 H         1 GTP         0.2010
     39 H2'        -0.0011    0.0027    0.0003 H         1 GTP        -0.0393
     40 HO2'       -0.6141    0.5574    2.1082 H         1 GTP         0.2010
     41 H1'         1.7826    1.9024    1.6451 H         1 GTP        -0.0393
     42 H8          0.7110    2.3472   -1.9295 H         1 GTP         0.0000
     43 HN1        -2.7504    5.7495    2.3282 H         1 GTP         0.0865
     44 HN21       -1.0467    3.8796    4.7190 H         1 GTP         0.2048
     45 HN22       -2.2294    5.1209    4.3680 H         1 GTP         0.2048
     46 H46        -1.0382    4.1687   -2.0954 H         1 GTP         0.2048
@<TRIPOS>BOND
     1    1    2 2
     2    1    3 1
     3    1    4 1
     4    1    5 1
     5    5    6 1
     6    6    7 2
     7    6    8 1
     8    6    9 1
     9    9   10 1
    10   10   11 2
    11   10   12 1
    12   10   13 1
    13   12   33 1
    14   13   14 1
    15   14   15 1
    16   14   34 1
    17   14   35 1
    18   15   16 1
    19   15   17 1
    20   15   36 1
    21   16   21 1
    22   17   18 1
    23   17   19 1
    24   17   37 1
    25   18   38 1
    26   19   20 1
    27   19   21 1
    28   19   39 1
    29   20   40 1
    30   21   22 1
    31   21   41 1
    32   22   23 ar
    33   22   32 ar
    34   23   24 ar
    35   23   42 1
    36   24   25 ar
    37   24   46 1
    38   25   26 ar
    39   25   32 ar
    40   26   27 2
    41   26   28 ar
    42   28   29 ar
    43   28   43 1
    44   29   30 1
    45   29   31 ar
    46   30   44 1
    47   30   45 1
    48   31   32 ar
@<TRIPOS>SUBSTRUCTURE
     1 GTP         1 GROUP 0 A     ****
@<TRIPOS>MOLECULE
[[[5-(2-amino-6-oxo-7,8-dihydro-1~{H}-purin-8-ylium-9-yl)-3,4-dihydroxy-tetrahydrofuran-2-yl]methoxy-hydroxy-phosphoryl]oxy-oxido-phosphoryl] phosphate
   46    48     1     0     0
SMALL
USER_CHARGES

@<TRIPOS>ATOM
      1 PG          8.1612   -0.3746   -4.6168 P.3       1 GTP        -1.1921
      2 O1G         8.8168   -1.7434   -4.7656 O.co2     1 GTP         0.3195
      3 O2G         8.2901    0.5220   -5.8433 O.co2     1 GTP         0.3195
      4 O3G         8.4719    0.3265   -3.2983 O.co2     1 GTP         0.3195
      5 O3B         6.5492   -0.7015   -4.5152 O.3       1 GTP         0.4672
      6 PB          5.6860   -1.5949   -3.4555 P.3       1 GTP        -1.1062
      7 O1B         6.0741   -3.0487   -3.6086 O.co2     1 GTP         0.3195
      8 O2B         5.7413   -0.9138   -2.1057 O.co2     1 GTP         0.3195
      9 O3A         4.1953   -1.3810   -4.0840 O.3       1 GTP         0.4672
     10 PA          3.3423   -0.0257   -4.3151 P.3       1 GTP        -0.9715
     11 O1A         4.0065    0.9689   -5.2226 O.2       1 GTP         0.2707
     12 O2A         1.9005   -0.5544   -4.8241 O.3       1 GTP         0.0326
     13 O5'         3.0213    0.5153   -2.8245 O.3       1 GTP         0.1618
     14 C5'         2.2816   -0.2918   -1.9206 C.3       1 GTP         0.1504
     15 C4'         2.7248    0.0226   -0.4980 C.3       1 GTP         0.1111
     16 O4'         2.4697    1.4219   -0.2462 O.3       1 GTP        -0.1436
     17 C3'         1.9404   -0.7419    0.5596 C.3       1 GTP         0.1111
     18 O3'         2.7418   -0.8086    1.7389 O.3       1 GTP        -0.2728
     19 C2'         0.7477    0.1630    0.7858 C.3       1 GTP         0.1111
     20 O2'         0.1373   -0.0577    2.0407 O.3       1 GTP        -0.2728
     21 C1'         1.3733    1.5427    0.6747 C.3       1 GTP         0.2693
     22 N9          0.4520    2.5240    0.1767 N.pl3     1 GTP        -0.3222
     23 C8         -0.2009    2.4849   -0.9792 C.ar      1 GTP         0.1640
     24 N7         -0.9840    3.5454   -1.1481 N.pl3     1 GTP        -0.3688
     25 C5         -0.8090    4.3005   -0.0206 C.ar      1 GTP         0.0648
     26 C6         -1.4206    5.5724    0.3362 C.ar      1 GTP         0.3597
     27 O6         -2.2199    6.1544   -0.3836 O.2       1 GTP        -0.2755
     28 N1         -0.9680    6.0043    1.5817 N.pl3     1 GTP        -0.1604
     29 C2         -0.0474    5.3055    2.3814 C.ar      1 GTP         0.4468
     30 N2          0.2680    5.9024    3.5740 N.pl3     1 GTP        -0.5618
     31 N3          0.4755    4.1601    2.0138 N.2       1 GTP        -0.4283
     32 C4          0.0611    3.6981    0.8001 C.ar      1 GTP         0.2226
     33 HOA2        1.1769    0.0945   -4.9566 H         1 GTP         0.2010
     34 H5'         1.2163   -0.0770   -2.0471 H         1 GTP        -0.0393
     35 H5''        2.4655   -1.3443   -2.1563 H         1 GTP        -0.0393
     36 H4'         3.8044   -0.1397   -0.4040 H         1 GTP        -0.0393
     37 H3'         1.6764   -1.7639    0.2728 H         1 GTP        -0.0393
     38 HO3'        2.2232   -1.2979    2.3953 H         1 GTP         0.2010
     39 H2'        -0.0011    0.0027    0.0003 H         1 GTP        -0.0393
     40 HO2'       -0.6141    0.5574    2.1082 H         1 GTP         0.2010
     41 H1'         1.7826    1.9024    1.6451 H         1 GTP        -0.0393
     42 H8         -0.1126    1.6906   -1.6997 H         1 GTP         0.0000
     43 HN1        -1.3285    6.8855    1.9361 H         1 GTP         0.0865
     44 HN21        0.9153    5.4446    4.1732 H         1 GTP         0.2048
     45 HN22       -0.1624    6.7706    3.7948 H         1 GTP         0.2048
     46 H46        -1.5768    3.7405   -1.9429 H         1 GTP         0.2048
@<TRIPOS>BOND
     1    1    2 2
     2    1    3 1
     3    1    4 1
     4    1    5 1
     5    5    6 1
     6    6    7 2
     7    6    8 1
     8    6    9 1
     9    9   10 1
    10   10   11 2
    11   10   12 1
    12   10   13 1
    13   12   33 1
    14   13   14 1
    15   14   15 1
    16   14   34 1
    17   14   35 1
    18   15   16 1
    19   15   17 1
    20   15   36 1
    21   16   21 1
    22   17   18 1
    23   17   19 1
    24   17   37 1
    25   18   38 1
    26   19   20 1
    27   19   21 1
    28   19   39 1
    29   20   40 1
    30   21   22 1
    31   21   41 1
    32   22   23 ar
    33   22   32 ar
    34   23   24 ar
    35   23   42 1
    36   24   25 ar
    37   24   46 1
    38   25   26 ar
    39   25   32 ar
    40   26   27 2
    41   26   28 ar
    42   28   29 ar
    43   28   43 1
    44   29   30 1
    45   29   31 ar
    46   30   44 1
    47   30   45 1
    48   31   32 ar
@<TRIPOS>SUBSTRUCTURE
     1 GTP         1 GROUP 0 A     ****
@<TRIPOS>MOLECULE
[[[5-(2-amino-6-oxo-7,8-dihydro-1~{H}-purin-8-ylium-9-yl)-3,4-dihydroxy-tetrahydrofuran-2-yl]methoxy-hydroxy-phosphoryl]oxy-oxido-phosphoryl] phosphate
   46    48     1     0     0
SMALL
USER_CHARGES

@<TRIPOS>ATOM
      1 PG          0.9099   -0.7539   -8.0555 P.3       1 GTP        -1.1921
      2 O1G        -0.2583    0.2114   -8.2263 O.co2     1 GTP         0.3195
      3 O2G         2.2737   -0.1565   -8.3841 O.co2     1 GTP         0.3195
      4 O3G         0.6731   -2.1339   -8.6606 O.co2     1 GTP         0.3195
      5 O3B         0.9685   -1.0430   -6.4341 O.3       1 GTP         0.4672
      6 PB         -0.1294   -1.6717   -5.4019 P.3       1 GTP        -1.1062
      7 O1B        -1.3007   -0.7212   -5.2923 O.co2     1 GTP         0.3195
      8 O2B        -0.3398   -3.1261   -5.7612 O.co2     1 GTP         0.3195
      9 O3A         0.7363   -1.5984   -4.0205 O.3       1 GTP         0.4672
     10 PA          2.1490   -2.2861   -3.6338 P.3       1 GTP        -0.9715
     11 O1A         2.1379   -3.7860   -3.6973 O.2       1 GTP         0.2707
     12 O2A         3.2137   -1.5710   -4.6200 O.3       1 GTP         0.0326
     13 O5'         2.5245   -1.6648   -2.1878 O.3       1 GTP         0.1618
     14 C5'         2.2816   -0.2918   -1.9206 C.3       1 GTP         0.1504
     15 C4'         2.7248    0.0226   -0.4980 C.3       1 GTP         0.1111
     16 O4'         2.4697    1.4219   -0.2462 O.3       1 GTP        -0.1436
     17 C3'         1.9404   -0.7419    0.5596 C.3       1 GTP         0.1111
     18 O3'         2.7418   -0.8086    1.7389 O.3       1 GTP        -0.2728
     19 C2'         0.7477    0.1630    0.7858 C.3       1 GTP         0.1111
     20 O2'         0.1373   -0.0577    2.0407 O.3       1 GTP        -0.2728
     21 C1'         1.3733    1.5427    0.6747 C.3       1 GTP         0.2693
     22 N9          0.4520    2.5240    0.1767 N.pl3     1 GTP        -0.3222
     23 C8          0.2203    2.8205   -1.0970 C.ar      1 GTP         0.1640
     24 N7         -0.6947    3.7752   -1.2304 N.pl3     1 GTP        -0.3688
     25 C5         -1.0607    4.0987    0.0476 C.ar      1 GTP         0.0648
     26 C6         -2.0310    5.0839    0.5029 C.ar      1 GTP         0.3597
     27 O6         -2.6779    5.7867   -0.2609 O.2       1 GTP        -0.2755
     28 N1         -2.1030    5.0975    1.8948 N.pl3     1 GTP        -0.1604
     29 C2         -1.3422    4.2721    2.7403 C.ar      1 GTP         0.4468
     30 N2         -1.5624    4.4419    4.0823 N.pl3     1 GTP        -0.5618
     31 N3         -0.4796    3.3981    2.2792 N.2       1 GTP        -0.4283
     32 C4         -0.3754    3.3496    0.9208 C.ar      1 GTP         0.2226
     33 HOA2        4.1678   -1.7726   -4.5144 H         1 GTP         0.2010
     34 H5'         2.8432    0.3119   -2.6398 H         1 GTP        -0.0393
     35 H5''        1.2128   -0.0927   -2.0428 H         1 GTP        -0.0393
     36 H4'         3.8044   -0.1397   -0.4040 H         1 GTP        -0.0393
     37 H3'         1.6764   -1.7639    0.2728 H         1 GTP        -0.0393
     38 HO3'        2.2232   -1.2979    2.3953 H         1 GTP         0.2010
     39 H2'        -0.0011    0.0027    0.0003 H         1 GTP        -0.0393
     40 HO2'       -0.1563   -0.9855    2.0596 H         1 GTP         0.2010
     41 H1'         1.7826    1.9024    1.6451 H         1 GTP        -0.0393
     42 H8          0.7110    2.3472   -1.9295 H         1 GTP         0.0000
     43 HN1        -2.7504    5.7495    2.3282 H         1 GTP         0.0865
     44 HN21       -1.0467    3.8796    4.7190 H         1 GTP         0.2048
     45 HN22       -2.2294    5.1209    4.3680 H         1 GTP         0.2048
     46 H46        -1.0382    4.1687   -2.0954 H         1 GTP         0.2048
@<TRIPOS>BOND
     1    1    2 2
     2    1    3 1
     3    1    4 1
     4    1    5 1
     5    5    6 1
     6    6    7 2
     7    6    8 1
     8    6    9 1
     9    9   10 1
    10   10   11 2
    11   10   12 1
    12   10   13 1
    13   12   33 1
    14   13   14 1
    15   14   15 1
    16   14   34 1
    17   14   35 1
    18   15   16 1
    19   15   17 1
    20   15   36 1
    21   16   21 1
    22   17   18 1
    23   17   19 1
    24   17   37 1
    25   18   38 1
    26   19   20 1
    27   19   21 1
    28   19   39 1
    29   20   40 1
    30   21   22 1
    31   21   41 1
    32   22   23 ar
    33   22   32 ar
    34   23   24 ar
    35   23   42 1
    36   24   25 ar
    37   24   46 1
    38   25   26 ar
    39   25   32 ar
    40   26   27 2
    41   26   28 ar
    42   28   29 ar
    43   28   43 1
    44   29   30 1
    45   29   31 ar
    46   30   44 1
    47   30   45 1
    48   31   32 ar
@<TRIPOS>SUBSTRUCTURE
     1 GTP         1 GROUP 0 A     ****
@<TRIPOS>MOLECULE
[[[5-(2-amino-6-oxo-7,8-dihydro-1~{H}-purin-8-ylium-9-yl)-3,4-dihydroxy-tetrahydrofuran-2-yl]methoxy-hydroxy-phosphoryl]oxy-oxido-phosphoryl] phosphate
   46    48     1     0     0
SMALL
USER_CHARGES

@<TRIPOS>ATOM
      1 PG         -0.1959    0.5597   -7.6969 P.3       1 GTP        -1.1921
      2 O1G        -0.7360   -0.6353   -8.4753 O.co2     1 GTP         0.3195
      3 O2G        -1.2715    1.4636   -7.1046 O.co2     1 GTP         0.3195
      4 O3G         0.9268    1.3106   -8.4056 O.co2     1 GTP         0.3195
      5 O3B         0.5470   -0.1074   -6.3859 O.3       1 GTP         0.4672
      6 PB          1.7833   -1.1665   -6.2591 P.3       1 GTP        -1.1062
      7 O1B         1.3445   -2.5022   -6.8167 O.co2     1 GTP         0.3195
      8 O2B         3.0403   -0.4902   -6.7605 O.co2     1 GTP         0.3195
      9 O3A         1.8677   -1.2790   -4.6333 O.3       1 GTP         0.4672
     10 PA          2.8586   -2.1486   -3.6952 P.3       1 GTP        -0.9715
     11 O1A         2.7720   -3.6303   -3.9207 O.2       1 GTP         0.2707
     12 O2A         4.3174   -1.5032   -3.9651 O.3       1 GTP         0.0326
     13 O5'         2.5245   -1.6648   -2.1878 O.3       1 GTP         0.1618
     14 C5'         2.2816   -0.2918   -1.9206 C.3       1 GTP         0.1504
     15 C4'         2.7248    0.0226   -0.4980 C.3       1 GTP         0.1111
     16 O4'         2.4697    1.4219   -0.2462 O.3       1 GTP        -0.1436
     17 C3'         1.9404   -0.7419    0.5596 C.3       1 GTP         0.1111
     18 O3'         2.7418   -0.8086    1.7389 O.3       1 GTP        -0.2728
     19 C2'         0.7477    0.1630    0.7858 C.3       1 GTP         0.1111
     20 O2'         0.1373   -0.0577    2.0407 O.3       1 GTP        -0.2728
     21 C1'         1.3733    1.5427    0.6747 C.3       1 GTP         0.2693
     22 N9          0.4520    2.5240    0.1767 N.pl3     1 GTP        -0.3222
     23 C8          0.2203    2.8205   -1.0970 C.ar      1 GTP         0.1640
     24 N7         -0.6947    3.7752   -1.2304 N.pl3     1 GTP        -0.3688
     25 C5         -1.0607    4.0987    0.0476 C.ar      1 GTP         0.0648
     26 C6         -2.0310    5.0839    0.5029 C.ar      1 GTP         0.3597
     27 O6         -2.6779    5.7867   -0.2609 O.2       1 GTP        -0.2755
     28 N1         -2.1030    5.0975    1.8948 N.pl3     1 GTP        -0.1604
     29 C2         -1.3422    4.2721    2.7403 C.ar      1 GTP         0.4468
     30 N2         -1.5624    4.4419    4.0823 N.pl3     1 GTP        -0.5618
     31 N3         -0.4796    3.3981    2.2792 N.2       1 GTP        -0.4283
     32 C4         -0.3754    3.3496    0.9208 C.ar      1 GTP         0.2226
     33 HOA2        4.7133   -1.5827   -4.8589 H         1 GTP         0.2010
     34 H5'         2.8432    0.3119   -2.6398 H         1 GTP        -0.0393
     35 H5''        1.2128   -0.0927   -2.0428 H         1 GTP        -0.0393
     36 H4'         3.8044   -0.1397   -0.4040 H         1 GTP        -0.0393
     37 H3'         1.6764   -1.7639    0.2728 H         1 GTP        -0.0393
     38 HO3'        2.2232   -1.2979    2.3953 H         1 GTP         0.2010
     39 H2'        -0.0011    0.0027    0.0003 H         1 GTP        -0.0393
     40 HO2'       -0.6141    0.5574    2.1082 H         1 GTP         0.2010
     41 H1'         1.7826    1.9024    1.6451 H         1 GTP        -0.0393
     42 H8          0.7110    2.3472   -1.9295 H         1 GTP         0.0000
     43 HN1        -2.7504    5.7495    2.3282 H         1 GTP         0.0865
     44 HN21       -1.0467    3.8796    4.7190 H         1 GTP         0.2048
     45 HN22       -2.2294    5.1209    4.3680 H         1 GTP         0.2048
     46 H46        -1.0382    4.1687   -2.0954 H         1 GTP         0.2048
@<TRIPOS>BOND
     1    1    2 2
     2    1    3 1
     3    1    4 1
     4    1    5 1
     5    5    6 1
     6    6    7 2
     7    6    8 1
     8    6    9 1
     9    9   10 1
    10   10   11 2
    11   10   12 1
    12   10   13 1
    13   12   33 1
    14   13   14 1
    15   14   15 1
    16   14   34 1
    17   14   35 1
    18   15   16 1
    19   15   17 1
    20   15   36 1
    21   16   21 1
    22   17   18 1
    23   17   19 1
    24   17   37 1
    25   18   38 1
    26   19   20 1
    27   19   21 1
    28   19   39 1
    29   20   40 1
    30   21   22 1
    31   21   41 1
    32   22   23 ar
    33   22   32 ar
    34   23   24 ar
    35   23   42 1
    36   24   25 ar
    37   24   46 1
    38   25   26 ar
    39   25   32 ar
    40   26   27 2
    41   26   28 ar
    42   28   29 ar
    43   28   43 1
    44   29   30 1
    45   29   31 ar
    46   30   44 1
    47   30   45 1
    48   31   32 ar
@<TRIPOS>SUBSTRUCTURE
     1 GTP         1 GROUP 0 A     ****
@<TRIPOS>MOLECULE
[[[5-(2-amino-6-oxo-7,8-dihydro-1~{H}-purin-8-ylium-9-yl)-3,4-dihydroxy-tetrahydrofuran-2-yl]methoxy-hydroxy-phosphoryl]oxy-oxido-phosphoryl] phosphate
   46    48     1     0     0
SMALL
USER_CHARGES

@<TRIPOS>ATOM
      1 PG          5.5150   -4.5891   -5.1895 P.3       1 GTP        -1.1921
      2 O1G         6.2073   -5.4689   -4.1539 O.co2     1 GTP         0.3195
      3 O2G         4.1506   -5.1004   -5.6389 O.co2     1 GTP         0.3195
      4 O3G         6.4193   -4.1416   -6.3334 O.co2     1 GTP         0.3195
      5 O3B         5.1838   -3.1906   -4.3830 O.3       1 GTP         0.4672
      6 PB          6.1541   -2.1123   -3.6336 P.3       1 GTP        -1.1062
      7 O1B         6.7871   -2.7748   -2.4303 O.co2     1 GTP         0.3195
      8 O2B         7.0049   -1.4307   -4.6826 O.co2     1 GTP         0.3195
      9 O3A         5.0231   -1.0558   -3.1161 O.3       1 GTP         0.4672
     10 PA          3.9517   -0.1778   -3.9522 P.3       1 GTP        -0.9715
     11 O1A         4.5722    0.7720   -4.9354 O.2       1 GTP         0.2707
     12 O2A         2.9652   -1.2826   -4.6031 O.3       1 GTP         0.0326
     13 O5'         3.0213    0.5153   -2.8245 O.3       1 GTP         0.1618
     14 C5'         2.2816   -0.2918   -1.9206 C.3       1 GTP         0.1504
     15 C4'         2.7248    0.0226   -0.4980 C.3       1 GTP         0.1111
     16 O4'         2.4697    1.4219   -0.2462 O.3       1 GTP        -0.1436
     17 C3'         1.9404   -0.7419    0.5596 C.3       1 GTP         0.1111
     18 O3'         2.7418   -0.8086    1.7389 O.3       1 GTP        -0.2728
     19 C2'         0.7477    0.1630    0.7858 C.3       1 GTP         0.1111
     20 O2'         0.1373   -0.0577    2.0407 O.3       1 GTP        -0.2728
     21 C1'         1.3733    1.5427    0.6747 C.3       1 GTP         0.2693
     22 N9          0.4520    2.5240    0.1767 N.pl3     1 GTP        -0.3222
     23 C8          0.2203    2.8205   -1.0970 C.ar      1 GTP         0.1640
     24 N7         -0.6947    3.7752   -1.2304 N.pl3     1 GTP        -0.3688
     25 C5         -1.0607    4.0987    0.0476 C.ar      1 GTP         0.0648
     26 C6         -2.0310    5.0839    0.5029 C.ar      1 GTP         0.3597
     27 O6         -2.6779    5.7867   -0.2609 O.2       1 GTP        -0.2755
     28 N1         -2.1030    5.0975    1.8948 N.pl3     1 GTP        -0.1604
     29 C2         -1.3422    4.2721    2.7403 C.ar      1 GTP         0.4468
     30 N2         -1.5624    4.4419    4.0823 N.pl3     1 GTP        -0.5618
     31 N3         -0.4796    3.3981    2.2792 N.2       1 GTP        -0.4283
     32 C4         -0.3754    3.3496    0.9208 C.ar      1 GTP         0.2226
     33 HOA2        3.3251   -1.9067   -5.2687 H         1 GTP         0.2010
     34 H5'         1.2163   -0.0770   -2.0471 H         1 GTP        -0.0393
     35 H5''        2.4655   -1.3443   -2.1563 H         1 GTP        -0.0393
     36 H4'         3.8044   -0.1397   -0.4040 H         1 GTP        -0.0393
     37 H3'         1.6764   -1.7639    0.2728 H         1 GTP        -0.0393
     38 HO3'        2.2232   -1.2979    2.3953 H         1 GTP         0.2010
     39 H2'        -0.0011    0.0027    0.0003 H         1 GTP        -0.0393
     40 HO2'       -0.6141    0.5574    2.1082 H         1 GTP         0.2010
     41 H1'         1.7826    1.9024    1.6451 H         1 GTP        -0.0393
     42 H8          0.7110    2.3472   -1.9295 H         1 GTP         0.0000
     43 HN1        -2.7504    5.7495    2.3282 H         1 GTP         0.0865
     44 HN21       -1.0467    3.8796    4.7190 H         1 GTP         0.2048
     45 HN22       -2.2294    5.1209    4.3680 H         1 GTP         0.2048
     46 H46        -1.0382    4.1687   -2.0954 H         1 GTP         0.2048
@<TRIPOS>BOND
     1    1    2 2
     2    1    3 1
     3    1    4 1
     4    1    5 1
     5    5    6 1
     6    6    7 2
     7    6    8 1
     8    6    9 1
     9    9   10 1
    10   10   11 2
    11   10   12 1
    12   10   13 1
    13   12   33 1
    14   13   14 1
    15   14   15 1
    16   14   34 1
    17   14   35 1
    18   15   16 1
    19   15   17 1
    20   15   36 1
    21   16   21 1
    22   17   18 1
    23   17   19 1
    24   17   37 1
    25   18   38 1
    26   19   20 1
    27   19   21 1
    28   19   39 1
    29   20   40 1
    30   21   22 1
    31   21   41 1
    32   22   23 ar
    33   22   32 ar
    34   23   24 ar
    35   23   42 1
    36   24   25 ar
    37   24   46 1
    38   25   26 ar
    39   25   32 ar
    40   26   27 2
    41   26   28 ar
    42   28   29 ar
    43   28   43 1
    44   29   30 1
    45   29   31 ar
    46   30   44 1
    47   30   45 1
    48   31   32 ar
@<TRIPOS>SUBSTRUCTURE
     1 GTP         1 GROUP 0 A     ****
@<TRIPOS>MOLECULE
[[[5-(2-amino-6-oxo-7,8-dihydro-1~{H}-purin-8-ylium-9-yl)-3,4-dihydroxy-tetrahydrofuran-2-yl]methoxy-hydroxy-phosphoryl]oxy-oxido-phosphoryl] phosphate
   46    48     1     0     0
SMALL
USER_CHARGES

@<TRIPOS>ATOM
      1 PG          1.8821   -0.5565   -8.9034 P.3       1 GTP        -1.1921
      2 O1G         1.1771    0.7397   -9.2886 O.co2     1 GTP         0.3195
      3 O2G         3.3378   -0.6384   -9.3498 O.co2     1 GTP         0.3195
      4 O3G         1.0719   -1.8168   -9.1894 O.co2     1 GTP         0.3195
      5 O3B         1.9598   -0.5070   -7.2579 O.3       1 GTP         0.4672
      6 PB          0.7951   -0.4162   -6.1171 P.3       1 GTP        -1.1062
      7 O1B         0.1052    0.9254   -6.2258 O.co2     1 GTP         0.3195
      8 O2B         0.0007   -1.7032   -6.1469 O.co2     1 GTP         0.3195
      9 O3A         1.7338   -0.4165   -4.7823 O.3       1 GTP         0.4672
     10 PA          2.8890    0.6159   -4.3157 P.3       1 GTP        -0.9715
     11 O1A         4.0363    0.7269   -5.2776 O.2       1 GTP         0.2707
     12 O2A         2.0915    1.9974   -4.0454 O.3       1 GTP         0.0326
     13 O5'         3.2903    0.1346   -2.8241 O.3       1 GTP         0.1618
     14 C5'         2.2816   -0.2918   -1.9206 C.3       1 GTP         0.1504
     15 C4'         2.7248    0.0226   -0.4980 C.3       1 GTP         0.1111
     16 O4'         2.4697    1.4219   -0.2462 O.3       1 GTP        -0.1436
     17 C3'         1.9404   -0.7419    0.5596 C.3       1 GTP         0.1111
     18 O3'         2.7418   -0.8086    1.7389 O.3       1 GTP        -0.2728
     19 C2'         0.7477    0.1630    0.7858 C.3       1 GTP         0.1111
     20 O2'         0.1373   -0.0577    2.0407 O.3       1 GTP        -0.2728
     21 C1'         1.3733    1.5427    0.6747 C.3       1 GTP         0.2693
     22 N9          0.4520    2.5240    0.1767 N.pl3     1 GTP        -0.3222
     23 C8          0.2203    2.8205   -1.0970 C.ar      1 GTP         0.1640
     24 N7         -0.6947    3.7752   -1.2304 N.pl3     1 GTP        -0.3688
     25 C5         -1.0607    4.0987    0.0476 C.ar      1 GTP         0.0648
     26 C6         -2.0310    5.0839    0.5029 C.ar      1 GTP         0.3597
     27 O6         -2.6779    5.7867   -0.2609 O.2       1 GTP        -0.2755
     28 N1         -2.1030    5.0975    1.8948 N.pl3     1 GTP        -0.1604
     29 C2         -1.3422    4.2721    2.7403 C.ar      1 GTP         0.4468
     30 N2         -1.5624    4.4419    4.0823 N.pl3     1 GTP        -0.5618
     31 N3         -0.4796    3.3981    2.2792 N.2       1 GTP        -0.4283
     32 C4         -0.3754    3.3496    0.9208 C.ar      1 GTP         0.2226
     33 HOA2        2.5795    2.7616   -3.6715 H         1 GTP         0.2010
     34 H5'         1.3514    0.2330   -2.1577 H         1 GTP        -0.0393
     35 H5''        2.1280   -1.3678   -2.0460 H         1 GTP        -0.0393
     36 H4'         3.8044   -0.1397   -0.4040 H         1 GTP        -0.0393
     37 H3'         1.6764   -1.7639    0.2728 H         1 GTP        -0.0393
     38 HO3'        2.2232   -1.2979    2.3953 H         1 GTP         0.2010
     39 H2'        -0.0011    0.0027    0.0003 H         1 GTP        -0.0393
     40 HO2'       -0.6141    0.5574    2.1082 H         1 GTP         0.2010
     41 H1'         1.7826    1.9024    1.6451 H         1 GTP        -0.0393
     42 H8          0.7110    2.3472   -1.9295 H         1 GTP         0.0000
     43 HN1        -2.7504    5.7495    2.3282 H         1 GTP         0.0865
     44 HN21       -1.0467    3.8796    4.7190 H         1 GTP         0.2048
     45 HN22       -2.2294    5.1209    4.3680 H         1 GTP         0.2048
     46 H46        -1.0382    4.1687   -2.0954 H         1 GTP         0.2048
@<TRIPOS>BOND
     1    1    2 2
     2    1    3 1
     3    1    4 1
     4    1    5 1
     5    5    6 1
     6    6    7 2
     7    6    8 1
     8    6    9 1
     9    9   10 1
    10   10   11 2
    11   10   12 1
    12   10   13 1
    13   12   33 1
    14   13   14 1
    15   14   15 1
    16   14   34 1
    17   14   35 1
    18   15   16 1
    19   15   17 1
    20   15   36 1
    21   16   21 1
    22   17   18 1
    23   17   19 1
    24   17   37 1
    25   18   38 1
    26   19   20 1
    27   19   21 1
    28   19   39 1
    29   20   40 1
    30   21   22 1
    31   21   41 1
    32   22   23 ar
    33   22   32 ar
    34   23   24 ar
    35   23   42 1
    36   24   25 ar
    37   24   46 1
    38   25   26 ar
    39   25   32 ar
    40   26   27 2
    41   26   28 ar
    42   28   29 ar
    43   28   43 1
    44   29   30 1
    45   29   31 ar
    46   30   44 1
    47   30   45 1
    48   31   32 ar
@<TRIPOS>SUBSTRUCTURE
     1 GTP         1 GROUP 0 A     ****
@<TRIPOS>MOLECULE
[[[5-(2-amino-6-oxo-7,8-dihydro-1~{H}-purin-8-ylium-9-yl)-3,4-dihydroxy-tetrahydrofuran-2-yl]methoxy-hydroxy-phosphoryl]oxy-oxido-phosphoryl] phosphate
   46    48     1     0     0
SMALL
USER_CHARGES

@<TRIPOS>ATOM
      1 PG          0.3673   -3.3363   -5.6132 P.3       1 GTP        -1.1921
      2 O1G         1.2974   -3.3069   -4.4050 O.co2     1 GTP         0.3195
      3 O2G        -0.9458   -4.0752   -5.3792 O.co2     1 GTP         0.3195
      4 O3G         1.0583   -3.6958   -6.9246 O.co2     1 GTP         0.3195
      5 O3B        -0.0789   -1.7640   -5.8247 O.3       1 GTP         0.4672
      6 PB          0.7951   -0.4162   -6.1171 P.3       1 GTP        -1.1062
      7 O1B         1.6711   -0.6521   -7.3273 O.co2     1 GTP         0.3195
      8 O2B        -0.1345    0.7755   -6.0512 O.co2     1 GTP         0.3195
      9 O3A         1.7338   -0.4165   -4.7823 O.3       1 GTP         0.4672
     10 PA          2.8890    0.6159   -4.3157 P.3       1 GTP        -0.9715
     11 O1A         4.0363    0.7269   -5.2776 O.2       1 GTP         0.2707
     12 O2A         2.0915    1.9974   -4.0454 O.3       1 GTP         0.0326
     13 O5'         3.2903    0.1346   -2.8241 O.3       1 GTP         0.1618
     14 C5'         2.2816   -0.2918   -1.9206 C.3       1 GTP         0.1504
     15 C4'         2.7248    0.0226   -0.4980 C.3       1 GTP         0.1111
     16 O4'         2.4697    1.4219   -0.2462 O.3       1 GTP        -0.1436
     17 C3'         1.9404   -0.7419    0.5596 C.3       1 GTP         0.1111
     18 O3'         2.7418   -0.8086    1.7389 O.3       1 GTP        -0.2728
     19 C2'         0.7477    0.1630    0.7858 C.3       1 GTP         0.1111
     20 O2'         0.1373   -0.0577    2.0407 O.3       1 GTP        -0.2728
     21 C1'         1.3733    1.5427    0.6747 C.3       1 GTP         0.2693
     22 N9          0.4520    2.5240    0.1767 N.pl3     1 GTP        -0.3222
     23 C8         -0.2009    2.4849   -0.9792 C.ar      1 GTP         0.1640
     24 N7         -0.9840    3.5454   -1.1481 N.pl3     1 GTP        -0.3688
     25 C5         -0.8090    4.3005   -0.0206 C.ar      1 GTP         0.0648
     26 C6         -1.4206    5.5724    0.3362 C.ar      1 GTP         0.3597
     27 O6         -2.2199    6.1544   -0.3836 O.2       1 GTP        -0.2755
     28 N1         -0.9680    6.0043    1.5817 N.pl3     1 GTP        -0.1604
     29 C2         -0.0474    5.3055    2.3814 C.ar      1 GTP         0.4468
     30 N2          0.2680    5.9024    3.5740 N.pl3     1 GTP        -0.5618
     31 N3          0.4755    4.1601    2.0138 N.2       1 GTP        -0.4283
     32 C4          0.0611    3.6981    0.8001 C.ar      1 GTP         0.2226
     33 HOA2        2.5795    2.7616   -3.6715 H         1 GTP         0.2010
     34 H5'         1.3514    0.2330   -2.1577 H         1 GTP        -0.0393
     35 H5''        2.1280   -1.3678   -2.0460 H         1 GTP        -0.0393
     36 H4'         3.8044   -0.1397   -0.4040 H         1 GTP        -0.0393
     37 H3'         1.6764   -1.7639    0.2728 H         1 GTP        -0.0393
     38 HO3'        2.2232   -1.2979    2.3953 H         1 GTP         0.2010
     39 H2'        -0.0011    0.0027    0.0003 H         1 GTP        -0.0393
     40 HO2'       -0.6141    0.5574    2.1082 H         1 GTP         0.2010
     41 H1'         1.7826    1.9024    1.6451 H         1 GTP        -0.0393
     42 H8         -0.1126    1.6906   -1.6997 H         1 GTP         0.0000
     43 HN1        -1.3285    6.8855    1.9361 H         1 GTP         0.0865
     44 HN21        0.9153    5.4446    4.1732 H         1 GTP         0.2048
     45 HN22       -0.1624    6.7706    3.7948 H         1 GTP         0.2048
     46 H46        -1.5768    3.7405   -1.9429 H         1 GTP         0.2048
@<TRIPOS>BOND
     1    1    2 2
     2    1    3 1
     3    1    4 1
     4    1    5 1
     5    5    6 1
     6    6    7 2
     7    6    8 1
     8    6    9 1
     9    9   10 1
    10   10   11 2
    11   10   12 1
    12   10   13 1
    13   12   33 1
    14   13   14 1
    15   14   15 1
    16   14   34 1
    17   14   35 1
    18   15   16 1
    19   15   17 1
    20   15   36 1
    21   16   21 1
    22   17   18 1
    23   17   19 1
    24   17   37 1
    25   18   38 1
    26   19   20 1
    27   19   21 1
    28   19   39 1
    29   20   40 1
    30   21   22 1
    31   21   41 1
    32   22   23 ar
    33   22   32 ar
    34   23   24 ar
    35   23   42 1
    36   24   25 ar
    37   24   46 1
    38   25   26 ar
    39   25   32 ar
    40   26   27 2
    41   26   28 ar
    42   28   29 ar
    43   28   43 1
    44   29   30 1
    45   29   31 ar
    46   30   44 1
    47   30   45 1
    48   31   32 ar
@<TRIPOS>SUBSTRUCTURE
     1 GTP         1 GROUP 0 A     ****
@<TRIPOS>MOLECULE
[[[5-(2-amino-6-oxo-7,8-dihydro-1~{H}-purin-8-ylium-9-yl)-3,4-dihydroxy-tetrahydrofuran-2-yl]methoxy-hydroxy-phosphoryl]oxy-oxido-phosphoryl] phosphate
   46    48     1     0     0
SMALL
USER_CHARGES

@<TRIPOS>ATOM
      1 PG          6.2918   -4.9220   -4.3863 P.3       1 GTP        -1.1921
      2 O1G         7.4223   -4.5392   -5.3356 O.co2     1 GTP         0.3195
      3 O2G         6.7536   -5.3509   -2.9979 O.co2     1 GTP         0.3195
      4 O3G         5.2417   -5.8398   -5.0038 O.co2     1 GTP         0.3195
      5 O3B         5.4771   -3.5125   -4.1304 O.3       1 GTP         0.4672
      6 PB          4.7136   -2.4969   -5.1560 P.3       1 GTP        -1.1062
      7 O1B         5.7380   -1.8572   -6.0665 O.co2     1 GTP         0.3195
      8 O2B         3.5089   -3.2140   -5.7243 O.co2     1 GTP         0.3195
      9 O3A         4.1953   -1.3810   -4.0840 O.3       1 GTP         0.4672
     10 PA          3.3423   -0.0257   -4.3151 P.3       1 GTP        -0.9715
     11 O1A         4.0065    0.9689   -5.2226 O.2       1 GTP         0.2707
     12 O2A         1.9005   -0.5544   -4.8241 O.3       1 GTP         0.0326
     13 O5'         3.0213    0.5153   -2.8245 O.3       1 GTP         0.1618
     14 C5'         2.2816   -0.2918   -1.9206 C.3       1 GTP         0.1504
     15 C4'         2.7248    0.0226   -0.4980 C.3       1 GTP         0.1111
     16 O4'         2.4697    1.4219   -0.2462 O.3       1 GTP        -0.1436
     17 C3'         1.9404   -0.7419    0.5596 C.3       1 GTP         0.1111
     18 O3'         2.7418   -0.8086    1.7389 O.3       1 GTP        -0.2728
     19 C2'         0.7477    0.1630    0.7858 C.3       1 GTP         0.1111
     20 O2'         0.1373   -0.0577    2.0407 O.3       1 GTP        -0.2728
     21 C1'         1.3733    1.5427    0.6747 C.3       1 GTP         0.2693
     22 N9          0.4520    2.5240    0.1767 N.pl3     1 GTP        -0.3222
     23 C8         -0.2009    2.4849   -0.9792 C.ar      1 GTP         0.1640
     24 N7         -0.9840    3.5454   -1.1481 N.pl3     1 GTP        -0.3688
     25 C5         -0.8090    4.3005   -0.0206 C.ar      1 GTP         0.0648
     26 C6         -1.4206    5.5724    0.3362 C.ar      1 GTP         0.3597
     27 O6         -2.2199    6.1544   -0.3836 O.2       1 GTP        -0.2755
     28 N1         -0.9680    6.0043    1.5817 N.pl3     1 GTP        -0.1604
     29 C2         -0.0474    5.3055    2.3814 C.ar      1 GTP         0.4468
     30 N2          0.2680    5.9024    3.5740 N.pl3     1 GTP        -0.5618
     31 N3          0.4755    4.1601    2.0138 N.2       1 GTP        -0.4283
     32 C4          0.0611    3.6981    0.8001 C.ar      1 GTP         0.2226
     33 HOA2        1.8422   -1.0165   -5.6873 H         1 GTP         0.2010
     34 H5'         1.2163   -0.0770   -2.0471 H         1 GTP        -0.0393
     35 H5''        2.4655   -1.3443   -2.1563 H         1 GTP        -0.0393
     36 H4'         3.8044   -0.1397   -0.4040 H         1 GTP        -0.0393
     37 H3'         1.6764   -1.7639    0.2728 H         1 GTP        -0.0393
     38 HO3'        2.2232   -1.2979    2.3953 H         1 GTP         0.2010
     39 H2'        -0.0011    0.0027    0.0003 H         1 GTP        -0.0393
     40 HO2'       -0.1563   -0.9855    2.0596 H         1 GTP         0.2010
     41 H1'         1.7826    1.9024    1.6451 H         1 GTP        -0.0393
     42 H8         -0.1126    1.6906   -1.6997 H         1 GTP         0.0000
     43 HN1        -1.3285    6.8855    1.9361 H         1 GTP         0.0865
     44 HN21        0.9153    5.4446    4.1732 H         1 GTP         0.2048
     45 HN22       -0.1624    6.7706    3.7948 H         1 GTP         0.2048
     46 H46        -1.5768    3.7405   -1.9429 H         1 GTP         0.2048
@<TRIPOS>BOND
     1    1    2 2
     2    1    3 1
     3    1    4 1
     4    1    5 1
     5    5    6 1
     6    6    7 2
     7    6    8 1
     8    6    9 1
     9    9   10 1
    10   10   11 2
    11   10   12 1
    12   10   13 1
    13   12   33 1
    14   13   14 1
    15   14   15 1
    16   14   34 1
    17   14   35 1
    18   15   16 1
    19   15   17 1
    20   15   36 1
    21   16   21 1
    22   17   18 1
    23   17   19 1
    24   17   37 1
    25   18   38 1
    26   19   20 1
    27   19   21 1
    28   19   39 1
    29   20   40 1
    30   21   22 1
    31   21   41 1
    32   22   23 ar
    33   22   32 ar
    34   23   24 ar
    35   23   42 1
    36   24   25 ar
    37   24   46 1
    38   25   26 ar
    39   25   32 ar
    40   26   27 2
    41   26   28 ar
    42   28   29 ar
    43   28   43 1
    44   29   30 1
    45   29   31 ar
    46   30   44 1
    47   30   45 1
    48   31   32 ar
@<TRIPOS>SUBSTRUCTURE
     1 GTP         1 GROUP 0 A     ****
@<TRIPOS>MOLECULE
[[[5-(2-amino-6-oxo-7,8-dihydro-1~{H}-purin-8-ylium-9-yl)-3,4-dihydroxy-tetrahydrofuran-2-yl]methoxy-hydroxy-phosphoryl]oxy-oxido-phosphoryl] phosphate
   46    48     1     0     0
SMALL
USER_CHARGES

@<TRIPOS>ATOM
      1 PG          6.5479   -1.8712   -7.4381 P.3       1 GTP        -1.1921
      2 O1G         5.5462   -2.4201   -8.4486 O.co2     1 GTP         0.3195
      3 O2G         7.1583   -0.5279   -7.8226 O.co2     1 GTP         0.3195
      4 O3G         7.5628   -2.8973   -6.9446 O.co2     1 GTP         0.3195
      5 O3B         5.6424   -1.5427   -6.1009 O.3       1 GTP         0.4672
      6 PB          4.7136   -2.4969   -5.1560 P.3       1 GTP        -1.1062
      7 O1B         3.5298   -2.9830   -5.9622 O.co2     1 GTP         0.3195
      8 O2B         5.6166   -3.4735   -4.4352 O.co2     1 GTP         0.3195
      9 O3A         4.1953   -1.3810   -4.0840 O.3       1 GTP         0.4672
     10 PA          3.3423   -0.0257   -4.3151 P.3       1 GTP        -0.9715
     11 O1A         4.0065    0.9689   -5.2226 O.2       1 GTP         0.2707
     12 O2A         1.9005   -0.5544   -4.8241 O.3       1 GTP         0.0326
     13 O5'         3.0213    0.5153   -2.8245 O.3       1 GTP         0.1618
     14 C5'         2.2816   -0.2918   -1.9206 C.3       1 GTP         0.1504
     15 C4'         2.7248    0.0226   -0.4980 C.3       1 GTP         0.1111
     16 O4'         2.4697    1.4219   -0.2462 O.3       1 GTP        -0.1436
     17 C3'         1.9404   -0.7419    0.5596 C.3       1 GTP         0.1111
     18 O3'         2.7418   -0.8086    1.7389 O.3       1 GTP        -0.2728
     19 C2'         0.7477    0.1630    0.7858 C.3       1 GTP         0.1111
     20 O2'         0.1373   -0.0577    2.0407 O.3       1 GTP        -0.2728
     21 C1'         1.3733    1.5427    0.6747 C.3       1 GTP         0.2693
     22 N9          0.4520    2.5240    0.1767 N.pl3     1 GTP        -0.3222
     23 C8         -0.2009    2.4849   -0.9792 C.ar      1 GTP         0.1640
     24 N7         -0.9840    3.5454   -1.1481 N.pl3     1 GTP        -0.3688
     25 C5         -0.8090    4.3005   -0.0206 C.ar      1 GTP         0.0648
     26 C6         -1.4206    5.5724    0.3362 C.ar      1 GTP         0.3597
     27 O6         -2.2199    6.1544   -0.3836 O.2       1 GTP        -0.2755
     28 N1         -0.9680    6.0043    1.5817 N.pl3     1 GTP        -0.1604
     29 C2         -0.0474    5.3055    2.3814 C.ar      1 GTP         0.4468
     30 N2          0.2680    5.9024    3.5740 N.pl3     1 GTP        -0.5618
     31 N3          0.4755    4.1601    2.0138 N.2       1 GTP        -0.4283
     32 C4          0.0611    3.6981    0.8001 C.ar      1 GTP         0.2226
     33 HOA2        1.8422   -1.0165   -5.6873 H         1 GTP         0.2010
     34 H5'         1.2163   -0.0770   -2.0471 H         1 GTP        -0.0393
     35 H5''        2.4655   -1.3443   -2.1563 H         1 GTP        -0.0393
     36 H4'         3.8044   -0.1397   -0.4040 H         1 GTP        -0.0393
     37 H3'         1.6764   -1.7639    0.2728 H         1 GTP        -0.0393
     38 HO3'        2.2232   -1.2979    2.3953 H         1 GTP         0.2010
     39 H2'        -0.0011    0.0027    0.0003 H         1 GTP        -0.0393
     40 HO2'       -0.1563   -0.9855    2.0596 H         1 GTP         0.2010
     41 H1'         1.7826    1.9024    1.6451 H         1 GTP        -0.0393
     42 H8         -0.1126    1.6906   -1.6997 H         1 GTP         0.0000
     43 HN1        -1.3285    6.8855    1.9361 H         1 GTP         0.0865
     44 HN21        0.9153    5.4446    4.1732 H         1 GTP         0.2048
     45 HN22       -0.1624    6.7706    3.7948 H         1 GTP         0.2048
     46 H46        -1.5768    3.7405   -1.9429 H         1 GTP         0.2048
@<TRIPOS>BOND
     1    1    2 2
     2    1    3 1
     3    1    4 1
     4    1    5 1
     5    5    6 1
     6    6    7 2
     7    6    8 1
     8    6    9 1
     9    9   10 1
    10   10   11 2
    11   10   12 1
    12   10   13 1
    13   12   33 1
    14   13   14 1
    15   14   15 1
    16   14   34 1
    17   14   35 1
    18   15   16 1
    19   15   17 1
    20   15   36 1
    21   16   21 1
    22   17   18 1
    23   17   19 1
    24   17   37 1
    25   18   38 1
    26   19   20 1
    27   19   21 1
    28   19   39 1
    29   20   40 1
    30   21   22 1
    31   21   41 1
    32   22   23 ar
    33   22   32 ar
    34   23   24 ar
    35   23   42 1
    36   24   25 ar
    37   24   46 1
    38   25   26 ar
    39   25   32 ar
    40   26   27 2
    41   26   28 ar
    42   28   29 ar
    43   28   43 1
    44   29   30 1
    45   29   31 ar
    46   30   44 1
    47   30   45 1
    48   31   32 ar
@<TRIPOS>SUBSTRUCTURE
     1 GTP         1 GROUP 0 A     ****
@<TRIPOS>MOLECULE
[[[5-(2-amino-6-oxo-7,8-dihydro-1~{H}-purin-8-ylium-9-yl)-3,4-dihydroxy-tetrahydrofuran-2-yl]methoxy-hydroxy-phosphoryl]oxy-oxido-phosphoryl] phosphate
   46    48     1     0     0
SMALL
USER_CHARGES

@<TRIPOS>ATOM
      1 PG         -0.5167   -3.5532   -6.2388 P.3       1 GTP        -1.1921
      2 O1G        -0.0026   -4.7234   -5.4069 O.co2     1 GTP         0.3195
      3 O2G        -1.9963   -3.2423   -6.0414 O.co2     1 GTP         0.3195
      4 O3G        -0.0769   -3.5844   -7.6990 O.co2     1 GTP         0.3195
      5 O3B         0.2643   -2.2389   -5.6235 O.3       1 GTP         0.4672
      6 PB          1.8519   -1.8785   -5.4975 P.3       1 GTP        -1.1062
      7 O1B         2.4987   -2.8429   -4.5284 O.co2     1 GTP         0.3195
      8 O2B         2.4072   -1.6885   -6.8918 O.co2     1 GTP         0.3195
      9 O3A         1.7338   -0.4165   -4.7823 O.3       1 GTP         0.4672
     10 PA          2.8890    0.6159   -4.3157 P.3       1 GTP        -0.9715
     11 O1A         4.0363    0.7269   -5.2776 O.2       1 GTP         0.2707
     12 O2A         2.0915    1.9974   -4.0454 O.3       1 GTP         0.0326
     13 O5'         3.2903    0.1346   -2.8241 O.3       1 GTP         0.1618
     14 C5'         2.2816   -0.2918   -1.9206 C.3       1 GTP         0.1504
     15 C4'         2.7248    0.0226   -0.4980 C.3       1 GTP         0.1111
     16 O4'         2.4697    1.4219   -0.2462 O.3       1 GTP        -0.1436
     17 C3'         1.9404   -0.7419    0.5596 C.3       1 GTP         0.1111
     18 O3'         2.7418   -0.8086    1.7389 O.3       1 GTP        -0.2728
     19 C2'         0.7477    0.1630    0.7858 C.3       1 GTP         0.1111
     20 O2'         0.1373   -0.0577    2.0407 O.3       1 GTP        -0.2728
     21 C1'         1.3733    1.5427    0.6747 C.3       1 GTP         0.2693
     22 N9          0.4520    2.5240    0.1767 N.pl3     1 GTP        -0.3222
     23 C8          0.2203    2.8205   -1.0970 C.ar      1 GTP         0.1640
     24 N7         -0.6947    3.7752   -1.2304 N.pl3     1 GTP        -0.3688
     25 C5         -1.0607    4.0987    0.0476 C.ar      1 GTP         0.0648
     26 C6         -2.0310    5.0839    0.5029 C.ar      1 GTP         0.3597
     27 O6         -2.6779    5.7867   -0.2609 O.2       1 GTP        -0.2755
     28 N1         -2.1030    5.0975    1.8948 N.pl3     1 GTP        -0.1604
     29 C2         -1.3422    4.2721    2.7403 C.ar      1 GTP         0.4468
     30 N2         -1.5624    4.4419    4.0823 N.pl3     1 GTP        -0.5618
     31 N3         -0.4796    3.3981    2.2792 N.2       1 GTP        -0.4283
     32 C4         -0.3754    3.3496    0.9208 C.ar      1 GTP         0.2226
     33 HOA2        2.5795    2.7616   -3.6715 H         1 GTP         0.2010
     34 H5'         1.3514    0.2330   -2.1577 H         1 GTP        -0.0393
     35 H5''        2.1280   -1.3678   -2.0460 H         1 GTP        -0.0393
     36 H4'         3.8044   -0.1397   -0.4040 H         1 GTP        -0.0393
     37 H3'         1.6764   -1.7639    0.2728 H         1 GTP        -0.0393
     38 HO3'        2.2232   -1.2979    2.3953 H         1 GTP         0.2010
     39 H2'        -0.0011    0.0027    0.0003 H         1 GTP        -0.0393
     40 HO2'       -0.1563   -0.9855    2.0596 H         1 GTP         0.2010
     41 H1'         1.7826    1.9024    1.6451 H         1 GTP        -0.0393
     42 H8          0.7110    2.3472   -1.9295 H         1 GTP         0.0000
     43 HN1        -2.7504    5.7495    2.3282 H         1 GTP         0.0865
     44 HN21       -1.0467    3.8796    4.7190 H         1 GTP         0.2048
     45 HN22       -2.2294    5.1209    4.3680 H         1 GTP         0.2048
     46 H46        -1.0382    4.1687   -2.0954 H         1 GTP         0.2048
@<TRIPOS>BOND
     1    1    2 2
     2    1    3 1
     3    1    4 1
     4    1    5 1
     5    5    6 1
     6    6    7 2
     7    6    8 1
     8    6    9 1
     9    9   10 1
    10   10   11 2
    11   10   12 1
    12   10   13 1
    13   12   33 1
    14   13   14 1
    15   14   15 1
    16   14   34 1
    17   14   35 1
    18   15   16 1
    19   15   17 1
    20   15   36 1
    21   16   21 1
    22   17   18 1
    23   17   19 1
    24   17   37 1
    25   18   38 1
    26   19   20 1
    27   19   21 1
    28   19   39 1
    29   20   40 1
    30   21   22 1
    31   21   41 1
    32   22   23 ar
    33   22   32 ar
    34   23   24 ar
    35   23   42 1
    36   24   25 ar
    37   24   46 1
    38   25   26 ar
    39   25   32 ar
    40   26   27 2
    41   26   28 ar
    42   28   29 ar
    43   28   43 1
    44   29   30 1
    45   29   31 ar
    46   30   44 1
    47   30   45 1
    48   31   32 ar
@<TRIPOS>SUBSTRUCTURE
     1 GTP         1 GROUP 0 A     ****
@<TRIPOS>MOLECULE
[[[5-(2-amino-6-oxo-7,8-dihydro-1~{H}-purin-8-ylium-9-yl)-3,4-dihydroxy-tetrahydrofuran-2-yl]methoxy-hydroxy-phosphoryl]oxy-oxido-phosphoryl] phosphate
   46    48     1     0     0
SMALL
USER_CHARGES

@<TRIPOS>ATOM
      1 PG          2.7019   -4.4517   -4.8327 P.3       1 GTP        -1.1921
      2 O1G         1.4442   -4.6458   -5.6730 O.co2     1 GTP         0.3195
      3 O2G         3.5742   -5.6961   -4.7080 O.co2     1 GTP         0.3195
      4 O3G         2.4652   -3.7232   -3.5136 O.co2     1 GTP         0.3195
      5 O3B         3.6176   -3.3944   -5.7041 O.3       1 GTP         0.4672
      6 PB          3.3276   -1.8712   -6.2161 P.3       1 GTP        -1.1062
      7 O1B         4.5866   -1.3167   -6.8446 O.co2     1 GTP         0.3195
      8 O2B         2.0156   -1.8657   -6.9693 O.co2     1 GTP         0.3195
      9 O3A         3.0998   -1.1470   -4.7716 O.3       1 GTP         0.4672
     10 PA          2.7598    0.3945   -4.4166 P.3       1 GTP        -0.9715
     11 O1A         3.4977    1.3943   -5.2592 O.2       1 GTP         0.2707
     12 O2A         1.1474    0.4728   -4.5232 O.3       1 GTP         0.0326
     13 O5'         3.0213    0.5153   -2.8245 O.3       1 GTP         0.1618
     14 C5'         2.2816   -0.2918   -1.9206 C.3       1 GTP         0.1504
     15 C4'         2.7248    0.0226   -0.4980 C.3       1 GTP         0.1111
     16 O4'         2.4697    1.4219   -0.2462 O.3       1 GTP        -0.1436
     17 C3'         1.9404   -0.7419    0.5596 C.3       1 GTP         0.1111
     18 O3'         2.7418   -0.8086    1.7389 O.3       1 GTP        -0.2728
     19 C2'         0.7477    0.1630    0.7858 C.3       1 GTP         0.1111
     20 O2'         0.1373   -0.0577    2.0407 O.3       1 GTP        -0.2728
     21 C1'         1.3733    1.5427    0.6747 C.3       1 GTP         0.2693
     22 N9          0.4520    2.5240    0.1767 N.pl3     1 GTP        -0.3222
     23 C8         -0.2009    2.4849   -0.9792 C.ar      1 GTP         0.1640
     24 N7         -0.9840    3.5454   -1.1481 N.pl3     1 GTP        -0.3688
     25 C5         -0.8090    4.3005   -0.0206 C.ar      1 GTP         0.0648
     26 C6         -1.4206    5.5724    0.3362 C.ar      1 GTP         0.3597
     27 O6         -2.2199    6.1544   -0.3836 O.2       1 GTP        -0.2755
     28 N1         -0.9680    6.0043    1.5817 N.pl3     1 GTP        -0.1604
     29 C2         -0.0474    5.3055    2.3814 C.ar      1 GTP         0.4468
     30 N2          0.2680    5.9024    3.5740 N.pl3     1 GTP        -0.5618
     31 N3          0.4755    4.1601    2.0138 N.2       1 GTP        -0.4283
     32 C4          0.0611    3.6981    0.8001 C.ar      1 GTP         0.2226
     33 HOA2        0.6950    1.3054   -4.2697 H         1 GTP         0.2010
     34 H5'         1.2163   -0.0770   -2.0471 H         1 GTP        -0.0393
     35 H5''        2.4655   -1.3443   -2.1563 H         1 GTP        -0.0393
     36 H4'         3.8044   -0.1397   -0.4040 H         1 GTP        -0.0393
     37 H3'         1.6764   -1.7639    0.2728 H         1 GTP        -0.0393
     38 HO3'        2.2232   -1.2979    2.3953 H         1 GTP         0.2010
     39 H2'        -0.0011    0.0027    0.0003 H         1 GTP        -0.0393
     40 HO2'       -0.1563   -0.9855    2.0596 H         1 GTP         0.2010
     41 H1'         1.7826    1.9024    1.6451 H         1 GTP        -0.0393
     42 H8         -0.1126    1.6906   -1.6997 H         1 GTP         0.0000
     43 HN1        -1.3285    6.8855    1.9361 H         1 GTP         0.0865
     44 HN21        0.9153    5.4446    4.1732 H         1 GTP         0.2048
     45 HN22       -0.1624    6.7706    3.7948 H         1 GTP         0.2048
     46 H46        -1.5768    3.7405   -1.9429 H         1 GTP         0.2048
@<TRIPOS>BOND
     1    1    2 2
     2    1    3 1
     3    1    4 1
     4    1    5 1
     5    5    6 1
     6    6    7 2
     7    6    8 1
     8    6    9 1
     9    9   10 1
    10   10   11 2
    11   10   12 1
    12   10   13 1
    13   12   33 1
    14   13   14 1
    15   14   15 1
    16   14   34 1
    17   14   35 1
    18   15   16 1
    19   15   17 1
    20   15   36 1
    21   16   21 1
    22   17   18 1
    23   17   19 1
    24   17   37 1
    25   18   38 1
    26   19   20 1
    27   19   21 1
    28   19   39 1
    29   20   40 1
    30   21   22 1
    31   21   41 1
    32   22   23 ar
    33   22   32 ar
    34   23   24 ar
    35   23   42 1
    36   24   25 ar
    37   24   46 1
    38   25   26 ar
    39   25   32 ar
    40   26   27 2
    41   26   28 ar
    42   28   29 ar
    43   28   43 1
    44   29   30 1
    45   29   31 ar
    46   30   44 1
    47   30   45 1
    48   31   32 ar
@<TRIPOS>SUBSTRUCTURE
     1 GTP         1 GROUP 0 A     ****
@<TRIPOS>MOLECULE
[[[5-(2-amino-6-oxo-7,8-dihydro-1~{H}-purin-8-ylium-9-yl)-3,4-dihydroxy-tetrahydrofuran-2-yl]methoxy-hydroxy-phosphoryl]oxy-oxido-phosphoryl] phosphate
   46    48     1     0     0
SMALL
USER_CHARGES

@<TRIPOS>ATOM
      1 PG          6.0495   -1.3842   -6.8489 P.3       1 GTP        -1.1921
      2 O1G         4.5393   -1.2449   -7.0081 O.co2     1 GTP         0.3195
      3 O2G         6.8635   -0.3845   -7.6632 O.co2     1 GTP         0.3195
      4 O3G         6.5571   -2.8197   -6.9391 O.co2     1 GTP         0.3195
      5 O3B         6.3363   -0.9661   -5.2808 O.3       1 GTP         0.4672
      6 PB          5.7993   -1.5947   -3.8728 P.3       1 GTP        -1.1062
      7 O1B         6.0936   -3.0782   -3.8537 O.co2     1 GTP         0.3195
      8 O2B         6.2601   -0.6965   -2.7461 O.co2     1 GTP         0.3195
      9 O3A         4.1953   -1.3810   -4.0840 O.3       1 GTP         0.4672
     10 PA          3.3423   -0.0257   -4.3151 P.3       1 GTP        -0.9715
     11 O1A         4.0065    0.9689   -5.2226 O.2       1 GTP         0.2707
     12 O2A         1.9005   -0.5544   -4.8241 O.3       1 GTP         0.0326
     13 O5'         3.0213    0.5153   -2.8245 O.3       1 GTP         0.1618
     14 C5'         2.2816   -0.2918   -1.9206 C.3       1 GTP         0.1504
     15 C4'         2.7248    0.0226   -0.4980 C.3       1 GTP         0.1111
     16 O4'         2.4697    1.4219   -0.2462 O.3       1 GTP        -0.1436
     17 C3'         1.9404   -0.7419    0.5596 C.3       1 GTP         0.1111
     18 O3'         2.7418   -0.8086    1.7389 O.3       1 GTP        -0.2728
     19 C2'         0.7477    0.1630    0.7858 C.3       1 GTP         0.1111
     20 O2'         0.1373   -0.0577    2.0407 O.3       1 GTP        -0.2728
     21 C1'         1.3733    1.5427    0.6747 C.3       1 GTP         0.2693
     22 N9          0.4520    2.5240    0.1767 N.pl3     1 GTP        -0.3222
     23 C8          0.2203    2.8205   -1.0970 C.ar      1 GTP         0.1640
     24 N7         -0.6947    3.7752   -1.2304 N.pl3     1 GTP        -0.3688
     25 C5         -1.0607    4.0987    0.0476 C.ar      1 GTP         0.0648
     26 C6         -2.0310    5.0839    0.5029 C.ar      1 GTP         0.3597
     27 O6         -2.6779    5.7867   -0.2609 O.2       1 GTP        -0.2755
     28 N1         -2.1030    5.0975    1.8948 N.pl3     1 GTP        -0.1604
     29 C2         -1.3422    4.2721    2.7403 C.ar      1 GTP         0.4468
     30 N2         -1.5624    4.4419    4.0823 N.pl3     1 GTP        -0.5618
     31 N3         -0.4796    3.3981    2.2792 N.2       1 GTP        -0.4283
     32 C4         -0.3754    3.3496    0.9208 C.ar      1 GTP         0.2226
     33 HOA2        1.8422   -1.0165   -5.6873 H         1 GTP         0.2010
     34 H5'         1.2163   -0.0770   -2.0471 H         1 GTP        -0.0393
     35 H5''        2.4655   -1.3443   -2.1563 H         1 GTP        -0.0393
     36 H4'         3.8044   -0.1397   -0.4040 H         1 GTP        -0.0393
     37 H3'         1.6764   -1.7639    0.2728 H         1 GTP        -0.0393
     38 HO3'        2.2232   -1.2979    2.3953 H         1 GTP         0.2010
     39 H2'        -0.0011    0.0027    0.0003 H         1 GTP        -0.0393
     40 HO2'       -0.1563   -0.9855    2.0596 H         1 GTP         0.2010
     41 H1'         1.7826    1.9024    1.6451 H         1 GTP        -0.0393
     42 H8          0.7110    2.3472   -1.9295 H         1 GTP         0.0000
     43 HN1        -2.7504    5.7495    2.3282 H         1 GTP         0.0865
     44 HN21       -1.0467    3.8796    4.7190 H         1 GTP         0.2048
     45 HN22       -2.2294    5.1209    4.3680 H         1 GTP         0.2048
     46 H46        -1.0382    4.1687   -2.0954 H         1 GTP         0.2048
@<TRIPOS>BOND
     1    1    2 2
     2    1    3 1
     3    1    4 1
     4    1    5 1
     5    5    6 1
     6    6    7 2
     7    6    8 1
     8    6    9 1
     9    9   10 1
    10   10   11 2
    11   10   12 1
    12   10   13 1
    13   12   33 1
    14   13   14 1
    15   14   15 1
    16   14   34 1
    17   14   35 1
    18   15   16 1
    19   15   17 1
    20   15   36 1
    21   16   21 1
    22   17   18 1
    23   17   19 1
    24   17   37 1
    25   18   38 1
    26   19   20 1
    27   19   21 1
    28   19   39 1
    29   20   40 1
    30   21   22 1
    31   21   41 1
    32   22   23 ar
    33   22   32 ar
    34   23   24 ar
    35   23   42 1
    36   24   25 ar
    37   24   46 1
    38   25   26 ar
    39   25   32 ar
    40   26   27 2
    41   26   28 ar
    42   28   29 ar
    43   28   43 1
    44   29   30 1
    45   29   31 ar
    46   30   44 1
    47   30   45 1
    48   31   32 ar
@<TRIPOS>SUBSTRUCTURE
     1 GTP         1 GROUP 0 A     ****
@<TRIPOS>MOLECULE
[[[5-(2-amino-6-oxo-7,8-dihydro-1~{H}-purin-8-ylium-9-yl)-3,4-dihydroxy-tetrahydrofuran-2-yl]methoxy-hydroxy-phosphoryl]oxy-oxido-phosphoryl] phosphate
   46    48     1     0     0
SMALL
USER_CHARGES

@<TRIPOS>ATOM
      1 PG          0.5530   -6.3888   -3.2185 P.3       1 GTP        -1.1921
      2 O1G        -0.8945   -6.6037   -3.6475 O.co2     1 GTP         0.3195
      3 O2G         1.5763   -7.1569   -4.0479 O.co2     1 GTP         0.3195
      4 O3G         0.7781   -6.4802   -1.7126 O.co2     1 GTP         0.3195
      5 O3B         0.8514   -4.8051   -3.5628 O.3       1 GTP         0.4672
      6 PB          0.1471   -3.4278   -3.0401 P.3       1 GTP        -1.1062
      7 O1B        -1.2739   -3.3769   -3.5555 O.co2     1 GTP         0.3195
      8 O2B         0.4447   -3.2733   -1.5649 O.co2     1 GTP         0.3195
      9 O3A         1.0439   -2.3436   -3.8667 O.3       1 GTP         0.4672
     10 PA          2.6372   -2.0632   -3.8351 P.3       1 GTP        -0.9715
     11 O1A         3.4751   -3.2458   -4.2265 O.2       1 GTP         0.2707
     12 O2A         2.8221   -0.7579   -4.7728 O.3       1 GTP         0.0326
     13 O5'         2.9216   -1.4836   -2.3516 O.3       1 GTP         0.1618
     14 C5'         2.2816   -0.2918   -1.9206 C.3       1 GTP         0.1504
     15 C4'         2.7248    0.0226   -0.4980 C.3       1 GTP         0.1111
     16 O4'         2.4697    1.4219   -0.2462 O.3       1 GTP        -0.1436
     17 C3'         1.9404   -0.7419    0.5596 C.3       1 GTP         0.1111
     18 O3'         2.7418   -0.8086    1.7389 O.3       1 GTP        -0.2728
     19 C2'         0.7477    0.1630    0.7858 C.3       1 GTP         0.1111
     20 O2'         0.1373   -0.0577    2.0407 O.3       1 GTP        -0.2728
     21 C1'         1.3733    1.5427    0.6747 C.3       1 GTP         0.2693
     22 N9          0.4520    2.5240    0.1767 N.pl3     1 GTP        -0.3222
     23 C8         -0.2009    2.4849   -0.9792 C.ar      1 GTP         0.1640
     24 N7         -0.9840    3.5454   -1.1481 N.pl3     1 GTP        -0.3688
     25 C5         -0.8090    4.3005   -0.0206 C.ar      1 GTP         0.0648
     26 C6         -1.4206    5.5724    0.3362 C.ar      1 GTP         0.3597
     27 O6         -2.2199    6.1544   -0.3836 O.2       1 GTP        -0.2755
     28 N1         -0.9680    6.0043    1.5817 N.pl3     1 GTP        -0.1604
     29 C2         -0.0474    5.3055    2.3814 C.ar      1 GTP         0.4468
     30 N2          0.2680    5.9024    3.5740 N.pl3     1 GTP        -0.5618
     31 N3          0.4755    4.1601    2.0138 N.2       1 GTP        -0.4283
     32 C4          0.0611    3.6981    0.8001 C.ar      1 GTP         0.2226
     33 HOA2        3.7097   -0.3465   -4.8437 H         1 GTP         0.2010
     34 H5'         2.5589    0.5217   -2.5976 H         1 GTP        -0.0393
     35 H5''        1.1982   -0.4388   -1.9617 H         1 GTP        -0.0393
     36 H4'         3.8044   -0.1397   -0.4040 H         1 GTP        -0.0393
     37 H3'         1.6764   -1.7639    0.2728 H         1 GTP        -0.0393
     38 HO3'        2.2232   -1.2979    2.3953 H         1 GTP         0.2010
     39 H2'        -0.0011    0.0027    0.0003 H         1 GTP        -0.0393
     40 HO2'       -0.1563   -0.9855    2.0596 H         1 GTP         0.2010
     41 H1'         1.7826    1.9024    1.6451 H         1 GTP        -0.0393
     42 H8         -0.1126    1.6906   -1.6997 H         1 GTP         0.0000
     43 HN1        -1.3285    6.8855    1.9361 H         1 GTP         0.0865
     44 HN21        0.9153    5.4446    4.1732 H         1 GTP         0.2048
     45 HN22       -0.1624    6.7706    3.7948 H         1 GTP         0.2048
     46 H46        -1.5768    3.7405   -1.9429 H         1 GTP         0.2048
@<TRIPOS>BOND
     1    1    2 2
     2    1    3 1
     3    1    4 1
     4    1    5 1
     5    5    6 1
     6    6    7 2
     7    6    8 1
     8    6    9 1
     9    9   10 1
    10   10   11 2
    11   10   12 1
    12   10   13 1
    13   12   33 1
    14   13   14 1
    15   14   15 1
    16   14   34 1
    17   14   35 1
    18   15   16 1
    19   15   17 1
    20   15   36 1
    21   16   21 1
    22   17   18 1
    23   17   19 1
    24   17   37 1
    25   18   38 1
    26   19   20 1
    27   19   21 1
    28   19   39 1
    29   20   40 1
    30   21   22 1
    31   21   41 1
    32   22   23 ar
    33   22   32 ar
    34   23   24 ar
    35   23   42 1
    36   24   25 ar
    37   24   46 1
    38   25   26 ar
    39   25   32 ar
    40   26   27 2
    41   26   28 ar
    42   28   29 ar
    43   28   43 1
    44   29   30 1
    45   29   31 ar
    46   30   44 1
    47   30   45 1
    48   31   32 ar
@<TRIPOS>SUBSTRUCTURE
     1 GTP         1 GROUP 0 A     ****
@<TRIPOS>MOLECULE
[[[5-(2-amino-6-oxo-7,8-dihydro-1~{H}-purin-8-ylium-9-yl)-3,4-dihydroxy-tetrahydrofuran-2-yl]methoxy-hydroxy-phosphoryl]oxy-oxido-phosphoryl] phosphate
   46    48     1     0     0
SMALL
USER_CHARGES

@<TRIPOS>ATOM
      1 PG          4.0532   -3.8202   -7.8830 P.3       1 GTP        -1.1921
      2 O1G         5.4769   -3.3258   -8.1163 O.co2     1 GTP         0.3195
      3 O2G         3.9542   -5.2876   -7.4808 O.co2     1 GTP         0.3195
      4 O3G         3.0624   -3.4035   -8.9653 O.co2     1 GTP         0.3195
      5 O3B         3.5462   -2.9943   -6.5501 O.3       1 GTP         0.4672
      6 PB          3.3899   -1.3958   -6.2562 P.3       1 GTP        -1.1062
      7 O1B         4.7627   -0.7610   -6.2518 O.co2     1 GTP         0.3195
      8 O2B         2.2873   -0.8566   -7.1407 O.co2     1 GTP         0.3195
      9 O3A         2.8382   -1.4630   -4.7219 O.3       1 GTP         0.4672
     10 PA          3.5157   -2.0910   -3.3935 P.3       1 GTP        -0.9715
     11 O1A         3.8038   -3.5613   -3.4894 O.2       1 GTP         0.2707
     12 O2A         4.8131   -1.1585   -3.1392 O.3       1 GTP         0.0326
     13 O5'         2.5245   -1.6648   -2.1878 O.3       1 GTP         0.1618
     14 C5'         2.2816   -0.2918   -1.9206 C.3       1 GTP         0.1504
     15 C4'         2.7248    0.0226   -0.4980 C.3       1 GTP         0.1111
     16 O4'         2.4697    1.4219   -0.2462 O.3       1 GTP        -0.1436
     17 C3'         1.9404   -0.7419    0.5596 C.3       1 GTP         0.1111
     18 O3'         2.7418   -0.8086    1.7389 O.3       1 GTP        -0.2728
     19 C2'         0.7477    0.1630    0.7858 C.3       1 GTP         0.1111
     20 O2'         0.1373   -0.0577    2.0407 O.3       1 GTP        -0.2728
     21 C1'         1.3733    1.5427    0.6747 C.3       1 GTP         0.2693
     22 N9          0.4520    2.5240    0.1767 N.pl3     1 GTP        -0.3222
     23 C8          0.2203    2.8205   -1.0970 C.ar      1 GTP         0.1640
     24 N7         -0.6947    3.7752   -1.2304 N.pl3     1 GTP        -0.3688
     25 C5         -1.0607    4.0987    0.0476 C.ar      1 GTP         0.0648
     26 C6         -2.0310    5.0839    0.5029 C.ar      1 GTP         0.3597
     27 O6         -2.6779    5.7867   -0.2609 O.2       1 GTP        -0.2755
     28 N1         -2.1030    5.0975    1.8948 N.pl3     1 GTP        -0.1604
     29 C2         -1.3422    4.2721    2.7403 C.ar      1 GTP         0.4468
     30 N2         -1.5624    4.4419    4.0823 N.pl3     1 GTP        -0.5618
     31 N3         -0.4796    3.3981    2.2792 N.2       1 GTP        -0.4283
     32 C4         -0.3754    3.3496    0.9208 C.ar      1 GTP         0.2226
     33 HOA2        5.3480   -1.3003   -2.3294 H         1 GTP         0.2010
     34 H5'         2.8432    0.3119   -2.6398 H         1 GTP        -0.0393
     35 H5''        1.2128   -0.0927   -2.0428 H         1 GTP        -0.0393
     36 H4'         3.8044   -0.1397   -0.4040 H         1 GTP        -0.0393
     37 H3'         1.6764   -1.7639    0.2728 H         1 GTP        -0.0393
     38 HO3'        2.2232   -1.2979    2.3953 H         1 GTP         0.2010
     39 H2'        -0.0011    0.0027    0.0003 H         1 GTP        -0.0393
     40 HO2'       -0.6141    0.5574    2.1082 H         1 GTP         0.2010
     41 H1'         1.7826    1.9024    1.6451 H         1 GTP        -0.0393
     42 H8          0.7110    2.3472   -1.9295 H         1 GTP         0.0000
     43 HN1        -2.7504    5.7495    2.3282 H         1 GTP         0.0865
     44 HN21       -1.0467    3.8796    4.7190 H         1 GTP         0.2048
     45 HN22       -2.2294    5.1209    4.3680 H         1 GTP         0.2048
     46 H46        -1.0382    4.1687   -2.0954 H         1 GTP         0.2048
@<TRIPOS>BOND
     1    1    2 2
     2    1    3 1
     3    1    4 1
     4    1    5 1
     5    5    6 1
     6    6    7 2
     7    6    8 1
     8    6    9 1
     9    9   10 1
    10   10   11 2
    11   10   12 1
    12   10   13 1
    13   12   33 1
    14   13   14 1
    15   14   15 1
    16   14   34 1
    17   14   35 1
    18   15   16 1
    19   15   17 1
    20   15   36 1
    21   16   21 1
    22   17   18 1
    23   17   19 1
    24   17   37 1
    25   18   38 1
    26   19   20 1
    27   19   21 1
    28   19   39 1
    29   20   40 1
    30   21   22 1
    31   21   41 1
    32   22   23 ar
    33   22   32 ar
    34   23   24 ar
    35   23   42 1
    36   24   25 ar
    37   24   46 1
    38   25   26 ar
    39   25   32 ar
    40   26   27 2
    41   26   28 ar
    42   28   29 ar
    43   28   43 1
    44   29   30 1
    45   29   31 ar
    46   30   44 1
    47   30   45 1
    48   31   32 ar
@<TRIPOS>SUBSTRUCTURE
     1 GTP         1 GROUP 0 A     ****
@<TRIPOS>MOLECULE
[[[5-(2-amino-6-oxo-7,8-dihydro-1~{H}-purin-8-ylium-9-yl)-3,4-dihydroxy-tetrahydrofuran-2-yl]methoxy-hydroxy-phosphoryl]oxy-oxido-phosphoryl] phosphate
   46    48     1     0     0
SMALL
USER_CHARGES

@<TRIPOS>ATOM
      1 PG          5.9290   -0.0175   -7.0419 P.3       1 GTP        -1.1921
      2 O1G         5.1886    0.8708   -8.0360 O.co2     1 GTP         0.3195
      3 O2G         6.9197    0.7241   -6.1511 O.co2     1 GTP         0.3195
      4 O3G         6.4786   -1.3062   -7.6450 O.co2     1 GTP         0.3195
      5 O3B         4.7573   -0.5390   -6.0070 O.3       1 GTP         0.4672
      6 PB          3.3899   -1.3958   -6.2562 P.3       1 GTP        -1.1062
      7 O1B         2.4329   -0.5640   -7.0808 O.co2     1 GTP         0.3195
      8 O2B         3.7776   -2.7924   -6.6897 O.co2     1 GTP         0.3195
      9 O3A         2.8382   -1.4630   -4.7219 O.3       1 GTP         0.4672
     10 PA          3.5157   -2.0910   -3.3935 P.3       1 GTP        -0.9715
     11 O1A         3.8038   -3.5613   -3.4894 O.2       1 GTP         0.2707
     12 O2A         4.8131   -1.1585   -3.1392 O.3       1 GTP         0.0326
     13 O5'         2.5245   -1.6648   -2.1878 O.3       1 GTP         0.1618
     14 C5'         2.2816   -0.2918   -1.9206 C.3       1 GTP         0.1504
     15 C4'         2.7248    0.0226   -0.4980 C.3       1 GTP         0.1111
     16 O4'         2.4697    1.4219   -0.2462 O.3       1 GTP        -0.1436
     17 C3'         1.9404   -0.7419    0.5596 C.3       1 GTP         0.1111
     18 O3'         2.7418   -0.8086    1.7389 O.3       1 GTP        -0.2728
     19 C2'         0.7477    0.1630    0.7858 C.3       1 GTP         0.1111
     20 O2'         0.1373   -0.0577    2.0407 O.3       1 GTP        -0.2728
     21 C1'         1.3733    1.5427    0.6747 C.3       1 GTP         0.2693
     22 N9          0.4520    2.5240    0.1767 N.pl3     1 GTP        -0.3222
     23 C8          0.2203    2.8205   -1.0970 C.ar      1 GTP         0.1640
     24 N7         -0.6947    3.7752   -1.2304 N.pl3     1 GTP        -0.3688
     25 C5         -1.0607    4.0987    0.0476 C.ar      1 GTP         0.0648
     26 C6         -2.0310    5.0839    0.5029 C.ar      1 GTP         0.3597
     27 O6         -2.6779    5.7867   -0.2609 O.2       1 GTP        -0.2755
     28 N1         -2.1030    5.0975    1.8948 N.pl3     1 GTP        -0.1604
     29 C2         -1.3422    4.2721    2.7403 C.ar      1 GTP         0.4468
     30 N2         -1.5624    4.4419    4.0823 N.pl3     1 GTP        -0.5618
     31 N3         -0.4796    3.3981    2.2792 N.2       1 GTP        -0.4283
     32 C4         -0.3754    3.3496    0.9208 C.ar      1 GTP         0.2226
     33 HOA2        5.5399   -1.1670   -3.7978 H         1 GTP         0.2010
     34 H5'         2.8432    0.3119   -2.6398 H         1 GTP        -0.0393
     35 H5''        1.2128   -0.0927   -2.0428 H         1 GTP        -0.0393
     36 H4'         3.8044   -0.1397   -0.4040 H         1 GTP        -0.0393
     37 H3'         1.6764   -1.7639    0.2728 H         1 GTP        -0.0393
     38 HO3'        2.2232   -1.2979    2.3953 H         1 GTP         0.2010
     39 H2'        -0.0011    0.0027    0.0003 H         1 GTP        -0.0393
     40 HO2'       -0.6141    0.5574    2.1082 H         1 GTP         0.2010
     41 H1'         1.7826    1.9024    1.6451 H         1 GTP        -0.0393
     42 H8          0.7110    2.3472   -1.9295 H         1 GTP         0.0000
     43 HN1        -2.7504    5.7495    2.3282 H         1 GTP         0.0865
     44 HN21       -1.0467    3.8796    4.7190 H         1 GTP         0.2048
     45 HN22       -2.2294    5.1209    4.3680 H         1 GTP         0.2048
     46 H46        -1.0382    4.1687   -2.0954 H         1 GTP         0.2048
@<TRIPOS>BOND
     1    1    2 2
     2    1    3 1
     3    1    4 1
     4    1    5 1
     5    5    6 1
     6    6    7 2
     7    6    8 1
     8    6    9 1
     9    9   10 1
    10   10   11 2
    11   10   12 1
    12   10   13 1
    13   12   33 1
    14   13   14 1
    15   14   15 1
    16   14   34 1
    17   14   35 1
    18   15   16 1
    19   15   17 1
    20   15   36 1
    21   16   21 1
    22   17   18 1
    23   17   19 1
    24   17   37 1
    25   18   38 1
    26   19   20 1
    27   19   21 1
    28   19   39 1
    29   20   40 1
    30   21   22 1
    31   21   41 1
    32   22   23 ar
    33   22   32 ar
    34   23   24 ar
    35   23   42 1
    36   24   25 ar
    37   24   46 1
    38   25   26 ar
    39   25   32 ar
    40   26   27 2
    41   26   28 ar
    42   28   29 ar
    43   28   43 1
    44   29   30 1
    45   29   31 ar
    46   30   44 1
    47   30   45 1
    48   31   32 ar
@<TRIPOS>SUBSTRUCTURE
     1 GTP         1 GROUP 0 A     ****
@<TRIPOS>MOLECULE
[[[5-(2-amino-6-oxo-7,8-dihydro-1~{H}-purin-8-ylium-9-yl)-3,4-dihydroxy-tetrahydrofuran-2-yl]methoxy-hydroxy-phosphoryl]oxy-oxido-phosphoryl] phosphate
   46    48     1     0     0
SMALL
USER_CHARGES

@<TRIPOS>ATOM
      1 PG          2.2997   -4.5413   -6.1701 P.3       1 GTP        -1.1921
      2 O1G         3.4125   -4.6357   -7.2086 O.co2     1 GTP         0.3195
      3 O2G         1.6100   -5.8663   -5.8640 O.co2     1 GTP         0.3195
      4 O3G         1.3398   -3.3760   -6.3877 O.co2     1 GTP         0.3195
      5 O3B         3.0775   -4.1508   -4.7707 O.3       1 GTP         0.4672
      6 PB          4.0118   -2.8742   -4.3664 P.3       1 GTP        -1.1062
      7 O1B         4.3368   -2.9515   -2.8913 O.co2     1 GTP         0.3195
      8 O2B         5.1103   -2.7446   -5.3984 O.co2     1 GTP         0.3195
      9 O3A         2.9329   -1.6730   -4.6033 O.3       1 GTP         0.4672
     10 PA          3.0905   -0.0736   -4.4161 P.3       1 GTP        -0.9715
     11 O1A         4.1564    0.5417   -5.2759 O.2       1 GTP         0.2707
     12 O2A         1.5982    0.4977   -4.6691 O.3       1 GTP         0.0326
     13 O5'         3.2903    0.1346   -2.8241 O.3       1 GTP         0.1618
     14 C5'         2.2816   -0.2918   -1.9206 C.3       1 GTP         0.1504
     15 C4'         2.7248    0.0226   -0.4980 C.3       1 GTP         0.1111
     16 O4'         2.4697    1.4219   -0.2462 O.3       1 GTP        -0.1436
     17 C3'         1.9404   -0.7419    0.5596 C.3       1 GTP         0.1111
     18 O3'         2.7418   -0.8086    1.7389 O.3       1 GTP        -0.2728
     19 C2'         0.7477    0.1630    0.7858 C.3       1 GTP         0.1111
     20 O2'         0.1373   -0.0577    2.0407 O.3       1 GTP        -0.2728
     21 C1'         1.3733    1.5427    0.6747 C.3       1 GTP         0.2693
     22 N9          0.4520    2.5240    0.1767 N.pl3     1 GTP        -0.3222
     23 C8          0.5671    3.2221   -0.9473 C.ar      1 GTP         0.1640
     24 N7         -0.4560    4.0508   -1.1290 N.pl3     1 GTP        -0.3688
     25 C5         -1.2671    3.8585   -0.0441 C.ar      1 GTP         0.0648
     26 C6         -2.5318    4.5014    0.2817 C.ar      1 GTP         0.3597
     27 O6         -3.0527    5.3493   -0.4293 O.2       1 GTP        -0.2755
     28 N1         -3.0357    4.0149    1.4868 N.pl3     1 GTP        -0.1604
     29 C2         -2.4069    3.0373    2.2768 C.ar      1 GTP         0.4468
     30 N2         -3.0679    2.6964    3.4278 N.pl3     1 GTP        -0.5618
     31 N3         -1.2653    2.4872    1.9379 N.2       1 GTP        -0.4283
     32 C4         -0.7342    2.9334    0.7643 C.ar      1 GTP         0.2226
     33 HOA2        1.1996    0.4055   -5.5606 H         1 GTP         0.2010
     34 H5'         1.3514    0.2330   -2.1577 H         1 GTP        -0.0393
     35 H5''        2.1280   -1.3678   -2.0460 H         1 GTP        -0.0393
     36 H4'         3.8044   -0.1397   -0.4040 H         1 GTP        -0.0393
     37 H3'         1.6764   -1.7639    0.2728 H         1 GTP        -0.0393
     38 HO3'        2.2232   -1.2979    2.3953 H         1 GTP         0.2010
     39 H2'        -0.0011    0.0027    0.0003 H         1 GTP        -0.0393
     40 HO2'       -0.1563   -0.9855    2.0596 H         1 GTP         0.2010
     41 H1'         1.7826    1.9024    1.6451 H         1 GTP        -0.0393
     42 H8          1.3888    3.1325   -1.6361 H         1 GTP         0.0000
     43 HN1        -3.9188    4.3932    1.8170 H         1 GTP         0.0865
     44 HN21       -2.6609    2.0087    4.0186 H         1 GTP         0.2048
     45 HN22       -3.9293    3.1496    3.6283 H         1 GTP         0.2048
     46 H46        -0.5938    4.6820   -1.9060 H         1 GTP         0.2048
@<TRIPOS>BOND
     1    1    2 2
     2    1    3 1
     3    1    4 1
     4    1    5 1
     5    5    6 1
     6    6    7 2
     7    6    8 1
     8    6    9 1
     9    9   10 1
    10   10   11 2
    11   10   12 1
    12   10   13 1
    13   12   33 1
    14   13   14 1
    15   14   15 1
    16   14   34 1
    17   14   35 1
    18   15   16 1
    19   15   17 1
    20   15   36 1
    21   16   21 1
    22   17   18 1
    23   17   19 1
    24   17   37 1
    25   18   38 1
    26   19   20 1
    27   19   21 1
    28   19   39 1
    29   20   40 1
    30   21   22 1
    31   21   41 1
    32   22   23 ar
    33   22   32 ar
    34   23   24 ar
    35   23   42 1
    36   24   25 ar
    37   24   46 1
    38   25   26 ar
    39   25   32 ar
    40   26   27 2
    41   26   28 ar
    42   28   29 ar
    43   28   43 1
    44   29   30 1
    45   29   31 ar
    46   30   44 1
    47   30   45 1
    48   31   32 ar
@<TRIPOS>SUBSTRUCTURE
     1 GTP         1 GROUP 0 A     ****
@<TRIPOS>MOLECULE
[[[5-(2-amino-6-oxo-7,8-dihydro-1~{H}-purin-8-ylium-9-yl)-3,4-dihydroxy-tetrahydrofuran-2-yl]methoxy-hydroxy-phosphoryl]oxy-oxido-phosphoryl] phosphate
   46    48     1     0     0
SMALL
USER_CHARGES

@<TRIPOS>ATOM
      1 PG         -1.9745    0.4463   -4.7337 P.3       1 GTP        -1.1921
      2 O1G        -1.5055   -0.0231   -3.3606 O.co2     1 GTP         0.3195
      3 O2G        -2.5689    1.8504   -4.7501 O.co2     1 GTP         0.3195
      4 O3G        -2.7959   -0.5859   -5.4994 O.co2     1 GTP         0.3195
      5 O3B        -0.5894    0.5768   -5.6170 O.3       1 GTP         0.4672
      6 PB          0.5513   -0.5204   -6.0181 P.3       1 GTP        -1.1062
      7 O1B        -0.0568   -1.9041   -5.9603 O.co2     1 GTP         0.3195
      8 O2B         1.2598   -0.0344   -7.2633 O.co2     1 GTP         0.3195
      9 O3A         1.5544   -0.3348   -4.7444 O.3       1 GTP         0.4672
     10 PA          2.3603    0.9703   -4.2294 P.3       1 GTP        -0.9715
     11 O1A         3.3255    1.5302   -5.2338 O.2       1 GTP         0.2707
     12 O2A         1.1939    1.9905   -3.7643 O.3       1 GTP         0.0326
     13 O5'         3.0213    0.5153   -2.8245 O.3       1 GTP         0.1618
     14 C5'         2.2816   -0.2918   -1.9206 C.3       1 GTP         0.1504
     15 C4'         2.7248    0.0226   -0.4980 C.3       1 GTP         0.1111
     16 O4'         2.4697    1.4219   -0.2462 O.3       1 GTP        -0.1436
     17 C3'         1.9404   -0.7419    0.5596 C.3       1 GTP         0.1111
     18 O3'         2.7418   -0.8086    1.7389 O.3       1 GTP        -0.2728
     19 C2'         0.7477    0.1630    0.7858 C.3       1 GTP         0.1111
     20 O2'         0.1373   -0.0577    2.0407 O.3       1 GTP        -0.2728
     21 C1'         1.3733    1.5427    0.6747 C.3       1 GTP         0.2693
     22 N9          0.4520    2.5240    0.1767 N.pl3     1 GTP        -0.3222
     23 C8         -0.2009    2.4849   -0.9792 C.ar      1 GTP         0.1640
     24 N7         -0.9840    3.5454   -1.1481 N.pl3     1 GTP        -0.3688
     25 C5         -0.8090    4.3005   -0.0206 C.ar      1 GTP         0.0648
     26 C6         -1.4206    5.5724    0.3362 C.ar      1 GTP         0.3597
     27 O6         -2.2199    6.1544   -0.3836 O.2       1 GTP        -0.2755
     28 N1         -0.9680    6.0043    1.5817 N.pl3     1 GTP        -0.1604
     29 C2         -0.0474    5.3055    2.3814 C.ar      1 GTP         0.4468
     30 N2          0.2680    5.9024    3.5740 N.pl3     1 GTP        -0.5618
     31 N3          0.4755    4.1601    2.0138 N.2       1 GTP        -0.4283
     32 C4          0.0611    3.6981    0.8001 C.ar      1 GTP         0.2226
     33 HOA2        0.5790    2.3478   -4.4398 H         1 GTP         0.2010
     34 H5'         1.2163   -0.0770   -2.0471 H         1 GTP        -0.0393
     35 H5''        2.4655   -1.3443   -2.1563 H         1 GTP        -0.0393
     36 H4'         3.8044   -0.1397   -0.4040 H         1 GTP        -0.0393
     37 H3'         1.6764   -1.7639    0.2728 H         1 GTP        -0.0393
     38 HO3'        2.2232   -1.2979    2.3953 H         1 GTP         0.2010
     39 H2'        -0.0011    0.0027    0.0003 H         1 GTP        -0.0393
     40 HO2'       -0.6141    0.5574    2.1082 H         1 GTP         0.2010
     41 H1'         1.7826    1.9024    1.6451 H         1 GTP        -0.0393
     42 H8         -0.1126    1.6906   -1.6997 H         1 GTP         0.0000
     43 HN1        -1.3285    6.8855    1.9361 H         1 GTP         0.0865
     44 HN21        0.9153    5.4446    4.1732 H         1 GTP         0.2048
     45 HN22       -0.1624    6.7706    3.7948 H         1 GTP         0.2048
     46 H46        -1.5768    3.7405   -1.9429 H         1 GTP         0.2048
@<TRIPOS>BOND
     1    1    2 2
     2    1    3 1
     3    1    4 1
     4    1    5 1
     5    5    6 1
     6    6    7 2
     7    6    8 1
     8    6    9 1
     9    9   10 1
    10   10   11 2
    11   10   12 1
    12   10   13 1
    13   12   33 1
    14   13   14 1
    15   14   15 1
    16   14   34 1
    17   14   35 1
    18   15   16 1
    19   15   17 1
    20   15   36 1
    21   16   21 1
    22   17   18 1
    23   17   19 1
    24   17   37 1
    25   18   38 1
    26   19   20 1
    27   19   21 1
    28   19   39 1
    29   20   40 1
    30   21   22 1
    31   21   41 1
    32   22   23 ar
    33   22   32 ar
    34   23   24 ar
    35   23   42 1
    36   24   25 ar
    37   24   46 1
    38   25   26 ar
    39   25   32 ar
    40   26   27 2
    41   26   28 ar
    42   28   29 ar
    43   28   43 1
    44   29   30 1
    45   29   31 ar
    46   30   44 1
    47   30   45 1
    48   31   32 ar
@<TRIPOS>SUBSTRUCTURE
     1 GTP         1 GROUP 0 A     ****
@<TRIPOS>MOLECULE
[[[5-(2-amino-6-oxo-7,8-dihydro-1~{H}-purin-8-ylium-9-yl)-3,4-dihydroxy-tetrahydrofuran-2-yl]methoxy-hydroxy-phosphoryl]oxy-oxido-phosphoryl] phosphate
   46    48     1     0     0
SMALL
USER_CHARGES

@<TRIPOS>ATOM
      1 PG          0.0174   -3.0314   -4.6648 P.3       1 GTP        -1.1921
      2 O1G         0.6403   -2.9067   -3.2784 O.co2     1 GTP         0.3195
      3 O2G        -1.3837   -2.4411   -4.7810 O.co2     1 GTP         0.3195
      4 O3G         0.1643   -4.4134   -5.2933 O.co2     1 GTP         0.3195
      5 O3B         0.9499   -2.0660   -5.6210 O.3       1 GTP         0.4672
      6 PB          2.5437   -2.0999   -5.9740 P.3       1 GTP        -1.1062
      7 O1B         3.0638   -3.5041   -5.7614 O.co2     1 GTP         0.3195
      8 O2B         2.7532   -1.3847   -7.2906 O.co2     1 GTP         0.3195
      9 O3A         3.0998   -1.1470   -4.7716 O.3       1 GTP         0.4672
     10 PA          2.7598    0.3945   -4.4166 P.3       1 GTP        -0.9715
     11 O1A         3.4977    1.3943   -5.2592 O.2       1 GTP         0.2707
     12 O2A         1.1474    0.4728   -4.5232 O.3       1 GTP         0.0326
     13 O5'         3.0213    0.5153   -2.8245 O.3       1 GTP         0.1618
     14 C5'         2.2816   -0.2918   -1.9206 C.3       1 GTP         0.1504
     15 C4'         2.7248    0.0226   -0.4980 C.3       1 GTP         0.1111
     16 O4'         2.4697    1.4219   -0.2462 O.3       1 GTP        -0.1436
     17 C3'         1.9404   -0.7419    0.5596 C.3       1 GTP         0.1111
     18 O3'         2.7418   -0.8086    1.7389 O.3       1 GTP        -0.2728
     19 C2'         0.7477    0.1630    0.7858 C.3       1 GTP         0.1111
     20 O2'         0.1373   -0.0577    2.0407 O.3       1 GTP        -0.2728
     21 C1'         1.3733    1.5427    0.6747 C.3       1 GTP         0.2693
     22 N9          0.4520    2.5240    0.1767 N.pl3     1 GTP        -0.3222
     23 C8          0.2203    2.8205   -1.0970 C.ar      1 GTP         0.1640
     24 N7         -0.6947    3.7752   -1.2304 N.pl3     1 GTP        -0.3688
     25 C5         -1.0607    4.0987    0.0476 C.ar      1 GTP         0.0648
     26 C6         -2.0310    5.0839    0.5029 C.ar      1 GTP         0.3597
     27 O6         -2.6779    5.7867   -0.2609 O.2       1 GTP        -0.2755
     28 N1         -2.1030    5.0975    1.8948 N.pl3     1 GTP        -0.1604
     29 C2         -1.3422    4.2721    2.7403 C.ar      1 GTP         0.4468
     30 N2         -1.5624    4.4419    4.0823 N.pl3     1 GTP        -0.5618
     31 N3         -0.4796    3.3981    2.2792 N.2       1 GTP        -0.4283
     32 C4         -0.3754    3.3496    0.9208 C.ar      1 GTP         0.2226
     33 HOA2        0.7224    0.3356   -5.3964 H         1 GTP         0.2010
     34 H5'         1.2163   -0.0770   -2.0471 H         1 GTP        -0.0393
     35 H5''        2.4655   -1.3443   -2.1563 H         1 GTP        -0.0393
     36 H4'         3.8044   -0.1397   -0.4040 H         1 GTP        -0.0393
     37 H3'         1.6764   -1.7639    0.2728 H         1 GTP        -0.0393
     38 HO3'        2.2232   -1.2979    2.3953 H         1 GTP         0.2010
     39 H2'        -0.0011    0.0027    0.0003 H         1 GTP        -0.0393
     40 HO2'       -0.6141    0.5574    2.1082 H         1 GTP         0.2010
     41 H1'         1.7826    1.9024    1.6451 H         1 GTP        -0.0393
     42 H8          0.7110    2.3472   -1.9295 H         1 GTP         0.0000
     43 HN1        -2.7504    5.7495    2.3282 H         1 GTP         0.0865
     44 HN21       -1.0467    3.8796    4.7190 H         1 GTP         0.2048
     45 HN22       -2.2294    5.1209    4.3680 H         1 GTP         0.2048
     46 H46        -1.0382    4.1687   -2.0954 H         1 GTP         0.2048
@<TRIPOS>BOND
     1    1    2 2
     2    1    3 1
     3    1    4 1
     4    1    5 1
     5    5    6 1
     6    6    7 2
     7    6    8 1
     8    6    9 1
     9    9   10 1
    10   10   11 2
    11   10   12 1
    12   10   13 1
    13   12   33 1
    14   13   14 1
    15   14   15 1
    16   14   34 1
    17   14   35 1
    18   15   16 1
    19   15   17 1
    20   15   36 1
    21   16   21 1
    22   17   18 1
    23   17   19 1
    24   17   37 1
    25   18   38 1
    26   19   20 1
    27   19   21 1
    28   19   39 1
    29   20   40 1
    30   21   22 1
    31   21   41 1
    32   22   23 ar
    33   22   32 ar
    34   23   24 ar
    35   23   42 1
    36   24   25 ar
    37   24   46 1
    38   25   26 ar
    39   25   32 ar
    40   26   27 2
    41   26   28 ar
    42   28   29 ar
    43   28   43 1
    44   29   30 1
    45   29   31 ar
    46   30   44 1
    47   30   45 1
    48   31   32 ar
@<TRIPOS>SUBSTRUCTURE
     1 GTP         1 GROUP 0 A     ****
@<TRIPOS>MOLECULE
[[[5-(2-amino-6-oxo-7,8-dihydro-1~{H}-purin-8-ylium-9-yl)-3,4-dihydroxy-tetrahydrofuran-2-yl]methoxy-hydroxy-phosphoryl]oxy-oxido-phosphoryl] phosphate
   46    48     1     0     0
SMALL
USER_CHARGES

@<TRIPOS>ATOM
      1 PG          6.2028   -2.0489   -0.5415 P.3       1 GTP        -1.1921
      2 O1G         7.1374   -0.8455   -0.4768 O.co2     1 GTP         0.3195
      3 O2G         5.1941   -2.1249    0.5993 O.co2     1 GTP         0.3195
      4 O3G         6.9052   -3.3696   -0.8399 O.co2     1 GTP         0.3195
      5 O3B         5.2847   -1.7826   -1.8839 O.3       1 GTP         0.4672
      6 PB          5.6860   -1.5949   -3.4555 P.3       1 GTP        -1.1062
      7 O1B         6.4684   -0.3100   -3.6121 O.co2     1 GTP         0.3195
      8 O2B         6.2387   -2.9081   -3.9639 O.co2     1 GTP         0.3195
      9 O3A         4.1953   -1.3810   -4.0840 O.3       1 GTP         0.4672
     10 PA          3.3423   -0.0257   -4.3151 P.3       1 GTP        -0.9715
     11 O1A         4.0065    0.9689   -5.2226 O.2       1 GTP         0.2707
     12 O2A         1.9005   -0.5544   -4.8241 O.3       1 GTP         0.0326
     13 O5'         3.0213    0.5153   -2.8245 O.3       1 GTP         0.1618
     14 C5'         2.2816   -0.2918   -1.9206 C.3       1 GTP         0.1504
     15 C4'         2.7248    0.0226   -0.4980 C.3       1 GTP         0.1111
     16 O4'         2.4697    1.4219   -0.2462 O.3       1 GTP        -0.1436
     17 C3'         1.9404   -0.7419    0.5596 C.3       1 GTP         0.1111
     18 O3'         2.7418   -0.8086    1.7389 O.3       1 GTP        -0.2728
     19 C2'         0.7477    0.1630    0.7858 C.3       1 GTP         0.1111
     20 O2'         0.1373   -0.0577    2.0407 O.3       1 GTP        -0.2728
     21 C1'         1.3733    1.5427    0.6747 C.3       1 GTP         0.2693
     22 N9          0.4520    2.5240    0.1767 N.pl3     1 GTP        -0.3222
     23 C8         -0.2009    2.4849   -0.9792 C.ar      1 GTP         0.1640
     24 N7         -0.9840    3.5454   -1.1481 N.pl3     1 GTP        -0.3688
     25 C5         -0.8090    4.3005   -0.0206 C.ar      1 GTP         0.0648
     26 C6         -1.4206    5.5724    0.3362 C.ar      1 GTP         0.3597
     27 O6         -2.2199    6.1544   -0.3836 O.2       1 GTP        -0.2755
     28 N1         -0.9680    6.0043    1.5817 N.pl3     1 GTP        -0.1604
     29 C2         -0.0474    5.3055    2.3814 C.ar      1 GTP         0.4468
     30 N2          0.2680    5.9024    3.5740 N.pl3     1 GTP        -0.5618
     31 N3          0.4755    4.1601    2.0138 N.2       1 GTP        -0.4283
     32 C4          0.0611    3.6981    0.8001 C.ar      1 GTP         0.2226
     33 HOA2        1.1769    0.0945   -4.9566 H         1 GTP         0.2010
     34 H5'         1.2163   -0.0770   -2.0471 H         1 GTP        -0.0393
     35 H5''        2.4655   -1.3443   -2.1563 H         1 GTP        -0.0393
     36 H4'         3.8044   -0.1397   -0.4040 H         1 GTP        -0.0393
     37 H3'         1.6764   -1.7639    0.2728 H         1 GTP        -0.0393
     38 HO3'        2.2232   -1.2979    2.3953 H         1 GTP         0.2010
     39 H2'        -0.0011    0.0027    0.0003 H         1 GTP        -0.0393
     40 HO2'       -0.1563   -0.9855    2.0596 H         1 GTP         0.2010
     41 H1'         1.7826    1.9024    1.6451 H         1 GTP        -0.0393
     42 H8         -0.1126    1.6906   -1.6997 H         1 GTP         0.0000
     43 HN1        -1.3285    6.8855    1.9361 H         1 GTP         0.0865
     44 HN21        0.9153    5.4446    4.1732 H         1 GTP         0.2048
     45 HN22       -0.1624    6.7706    3.7948 H         1 GTP         0.2048
     46 H46        -1.5768    3.7405   -1.9429 H         1 GTP         0.2048
@<TRIPOS>BOND
     1    1    2 2
     2    1    3 1
     3    1    4 1
     4    1    5 1
     5    5    6 1
     6    6    7 2
     7    6    8 1
     8    6    9 1
     9    9   10 1
    10   10   11 2
    11   10   12 1
    12   10   13 1
    13   12   33 1
    14   13   14 1
    15   14   15 1
    16   14   34 1
    17   14   35 1
    18   15   16 1
    19   15   17 1
    20   15   36 1
    21   16   21 1
    22   17   18 1
    23   17   19 1
    24   17   37 1
    25   18   38 1
    26   19   20 1
    27   19   21 1
    28   19   39 1
    29   20   40 1
    30   21   22 1
    31   21   41 1
    32   22   23 ar
    33   22   32 ar
    34   23   24 ar
    35   23   42 1
    36   24   25 ar
    37   24   46 1
    38   25   26 ar
    39   25   32 ar
    40   26   27 2
    41   26   28 ar
    42   28   29 ar
    43   28   43 1
    44   29   30 1
    45   29   31 ar
    46   30   44 1
    47   30   45 1
    48   31   32 ar
@<TRIPOS>SUBSTRUCTURE
     1 GTP         1 GROUP 0 A     ****
@<TRIPOS>MOLECULE
[[[5-(2-amino-6-oxo-7,8-dihydro-1~{H}-purin-8-ylium-9-yl)-3,4-dihydroxy-tetrahydrofuran-2-yl]methoxy-hydroxy-phosphoryl]oxy-oxido-phosphoryl] phosphate
   46    48     1     0     0
SMALL
USER_CHARGES

@<TRIPOS>ATOM
      1 PG          3.9927   -5.4420   -5.9060 P.3       1 GTP        -1.1921
      2 O1G         3.8912   -6.2595   -4.6226 O.co2     1 GTP         0.3195
      3 O2G         3.0343   -5.8789   -7.0084 O.co2     1 GTP         0.3195
      4 O3G         5.4218   -5.2030   -6.3826 O.co2     1 GTP         0.3195
      5 O3B         3.4675   -3.9399   -5.4773 O.3       1 GTP         0.4672
      6 PB          4.0118   -2.8742   -4.3664 P.3       1 GTP        -1.1062
      7 O1B         3.7991   -3.4531   -2.9854 O.co2     1 GTP         0.3195
      8 O2B         5.3762   -2.3885   -4.8037 O.co2     1 GTP         0.3195
      9 O3A         2.9329   -1.6730   -4.6033 O.3       1 GTP         0.4672
     10 PA          3.0905   -0.0736   -4.4161 P.3       1 GTP        -0.9715
     11 O1A         4.1564    0.5417   -5.2759 O.2       1 GTP         0.2707
     12 O2A         1.5982    0.4977   -4.6691 O.3       1 GTP         0.0326
     13 O5'         3.2903    0.1346   -2.8241 O.3       1 GTP         0.1618
     14 C5'         2.2816   -0.2918   -1.9206 C.3       1 GTP         0.1504
     15 C4'         2.7248    0.0226   -0.4980 C.3       1 GTP         0.1111
     16 O4'         2.4697    1.4219   -0.2462 O.3       1 GTP        -0.1436
     17 C3'         1.9404   -0.7419    0.5596 C.3       1 GTP         0.1111
     18 O3'         2.7418   -0.8086    1.7389 O.3       1 GTP        -0.2728
     19 C2'         0.7477    0.1630    0.7858 C.3       1 GTP         0.1111
     20 O2'         0.1373   -0.0577    2.0407 O.3       1 GTP        -0.2728
     21 C1'         1.3733    1.5427    0.6747 C.3       1 GTP         0.2693
     22 N9          0.4520    2.5240    0.1767 N.pl3     1 GTP        -0.3222
     23 C8          0.2203    2.8205   -1.0970 C.ar      1 GTP         0.1640
     24 N7         -0.6947    3.7752   -1.2304 N.pl3     1 GTP        -0.3688
     25 C5         -1.0607    4.0987    0.0476 C.ar      1 GTP         0.0648
     26 C6         -2.0310    5.0839    0.5029 C.ar      1 GTP         0.3597
     27 O6         -2.6779    5.7867   -0.2609 O.2       1 GTP        -0.2755
     28 N1         -2.1030    5.0975    1.8948 N.pl3     1 GTP        -0.1604
     29 C2         -1.3422    4.2721    2.7403 C.ar      1 GTP         0.4468
     30 N2         -1.5624    4.4419    4.0823 N.pl3     1 GTP        -0.5618
     31 N3         -0.4796    3.3981    2.2792 N.2       1 GTP        -0.4283
     32 C4         -0.3754    3.3496    0.9208 C.ar      1 GTP         0.2226
     33 HOA2        1.4261    1.4532   -4.5301 H         1 GTP         0.2010
     34 H5'         1.3514    0.2330   -2.1577 H         1 GTP        -0.0393
     35 H5''        2.1280   -1.3678   -2.0460 H         1 GTP        -0.0393
     36 H4'         3.8044   -0.1397   -0.4040 H         1 GTP        -0.0393
     37 H3'         1.6764   -1.7639    0.2728 H         1 GTP        -0.0393
     38 HO3'        3.5554   -1.2733    1.4914 H         1 GTP         0.2010
     39 H2'        -0.0011    0.0027    0.0003 H         1 GTP        -0.0393
     40 HO2'       -0.1563   -0.9855    2.0596 H         1 GTP         0.2010
     41 H1'         1.7826    1.9024    1.6451 H         1 GTP        -0.0393
     42 H8          0.7110    2.3472   -1.9295 H         1 GTP         0.0000
     43 HN1        -2.7504    5.7495    2.3282 H         1 GTP         0.0865
     44 HN21       -1.0467    3.8796    4.7190 H         1 GTP         0.2048
     45 HN22       -2.2294    5.1209    4.3680 H         1 GTP         0.2048
     46 H46        -1.0382    4.1687   -2.0954 H         1 GTP         0.2048
@<TRIPOS>BOND
     1    1    2 2
     2    1    3 1
     3    1    4 1
     4    1    5 1
     5    5    6 1
     6    6    7 2
     7    6    8 1
     8    6    9 1
     9    9   10 1
    10   10   11 2
    11   10   12 1
    12   10   13 1
    13   12   33 1
    14   13   14 1
    15   14   15 1
    16   14   34 1
    17   14   35 1
    18   15   16 1
    19   15   17 1
    20   15   36 1
    21   16   21 1
    22   17   18 1
    23   17   19 1
    24   17   37 1
    25   18   38 1
    26   19   20 1
    27   19   21 1
    28   19   39 1
    29   20   40 1
    30   21   22 1
    31   21   41 1
    32   22   23 ar
    33   22   32 ar
    34   23   24 ar
    35   23   42 1
    36   24   25 ar
    37   24   46 1
    38   25   26 ar
    39   25   32 ar
    40   26   27 2
    41   26   28 ar
    42   28   29 ar
    43   28   43 1
    44   29   30 1
    45   29   31 ar
    46   30   44 1
    47   30   45 1
    48   31   32 ar
@<TRIPOS>SUBSTRUCTURE
     1 GTP         1 GROUP 0 A     ****
@<TRIPOS>MOLECULE
[[[5-(2-amino-6-oxo-7,8-dihydro-1~{H}-purin-8-ylium-9-yl)-3,4-dihydroxy-tetrahydrofuran-2-yl]methoxy-hydroxy-phosphoryl]oxy-oxido-phosphoryl] phosphate
   46    48     1     0     0
SMALL
USER_CHARGES

@<TRIPOS>ATOM
      1 PG          7.8931   -3.6327   -4.8341 P.3       1 GTP        -1.1921
      2 O1G         7.2053   -4.6216   -5.7692 O.co2     1 GTP         0.3195
      3 O2G         8.6521   -2.5175   -5.5449 O.co2     1 GTP         0.3195
      4 O3G         8.6699   -4.2865   -3.6958 O.co2     1 GTP         0.3195
      5 O3B         6.6533   -2.8623   -4.0691 O.3       1 GTP         0.4672
      6 PB          5.4450   -3.4208   -3.1235 P.3       1 GTP        -1.1062
      7 O1B         4.5266   -4.2841   -3.9594 O.co2     1 GTP         0.3195
      8 O2B         6.0509   -3.9462   -1.8407 O.co2     1 GTP         0.3195
      9 O3A         4.6898   -2.0106   -2.8012 O.3       1 GTP         0.4672
     10 PA          4.0065   -0.9377   -3.8013 P.3       1 GTP        -0.9715
     11 O1A         4.9530   -0.3481   -4.8064 O.2       1 GTP         0.2707
     12 O2A         2.7528   -1.7395   -4.4359 O.3       1 GTP         0.0326
     13 O5'         3.2903    0.1346   -2.8241 O.3       1 GTP         0.1618
     14 C5'         2.2816   -0.2918   -1.9206 C.3       1 GTP         0.1504
     15 C4'         2.7248    0.0226   -0.4980 C.3       1 GTP         0.1111
     16 O4'         2.4697    1.4219   -0.2462 O.3       1 GTP        -0.1436
     17 C3'         1.9404   -0.7419    0.5596 C.3       1 GTP         0.1111
     18 O3'         2.7418   -0.8086    1.7389 O.3       1 GTP        -0.2728
     19 C2'         0.7477    0.1630    0.7858 C.3       1 GTP         0.1111
     20 O2'         0.1373   -0.0577    2.0407 O.3       1 GTP        -0.2728
     21 C1'         1.3733    1.5427    0.6747 C.3       1 GTP         0.2693
     22 N9          0.4520    2.5240    0.1767 N.pl3     1 GTP        -0.3222
     23 C8          0.2203    2.8205   -1.0970 C.ar      1 GTP         0.1640
     24 N7         -0.6947    3.7752   -1.2304 N.pl3     1 GTP        -0.3688
     25 C5         -1.0607    4.0987    0.0476 C.ar      1 GTP         0.0648
     26 C6         -2.0310    5.0839    0.5029 C.ar      1 GTP         0.3597
     27 O6         -2.6779    5.7867   -0.2609 O.2       1 GTP        -0.2755
     28 N1         -2.1030    5.0975    1.8948 N.pl3     1 GTP        -0.1604
     29 C2         -1.3422    4.2721    2.7403 C.ar      1 GTP         0.4468
     30 N2         -1.5624    4.4419    4.0823 N.pl3     1 GTP        -0.5618
     31 N3         -0.4796    3.3981    2.2792 N.2       1 GTP        -0.4283
     32 C4         -0.3754    3.3496    0.9208 C.ar      1 GTP         0.2226
     33 HOA2        2.9273   -2.5153   -5.0102 H         1 GTP         0.2010
     34 H5'         1.3514    0.2330   -2.1577 H         1 GTP        -0.0393
     35 H5''        2.1280   -1.3678   -2.0460 H         1 GTP        -0.0393
     36 H4'         3.8044   -0.1397   -0.4040 H         1 GTP        -0.0393
     37 H3'         1.6764   -1.7639    0.2728 H         1 GTP        -0.0393
     38 HO3'        3.5554   -1.2733    1.4914 H         1 GTP         0.2010
     39 H2'        -0.0011    0.0027    0.0003 H         1 GTP        -0.0393
     40 HO2'       -0.6141    0.5574    2.1082 H         1 GTP         0.2010
     41 H1'         1.7826    1.9024    1.6451 H         1 GTP        -0.0393
     42 H8          0.7110    2.3472   -1.9295 H         1 GTP         0.0000
     43 HN1        -2.7504    5.7495    2.3282 H         1 GTP         0.0865
     44 HN21       -1.0467    3.8796    4.7190 H         1 GTP         0.2048
     45 HN22       -2.2294    5.1209    4.3680 H         1 GTP         0.2048
     46 H46        -1.0382    4.1687   -2.0954 H         1 GTP         0.2048
@<TRIPOS>BOND
     1    1    2 2
     2    1    3 1
     3    1    4 1
     4    1    5 1
     5    5    6 1
     6    6    7 2
     7    6    8 1
     8    6    9 1
     9    9   10 1
    10   10   11 2
    11   10   12 1
    12   10   13 1
    13   12   33 1
    14   13   14 1
    15   14   15 1
    16   14   34 1
    17   14   35 1
    18   15   16 1
    19   15   17 1
    20   15   36 1
    21   16   21 1
    22   17   18 1
    23   17   19 1
    24   17   37 1
    25   18   38 1
    26   19   20 1
    27   19   21 1
    28   19   39 1
    29   20   40 1
    30   21   22 1
    31   21   41 1
    32   22   23 ar
    33   22   32 ar
    34   23   24 ar
    35   23   42 1
    36   24   25 ar
    37   24   46 1
    38   25   26 ar
    39   25   32 ar
    40   26   27 2
    41   26   28 ar
    42   28   29 ar
    43   28   43 1
    44   29   30 1
    45   29   31 ar
    46   30   44 1
    47   30   45 1
    48   31   32 ar
@<TRIPOS>SUBSTRUCTURE
     1 GTP         1 GROUP 0 A     ****
@<TRIPOS>MOLECULE
[[[5-(2-amino-6-oxo-7,8-dihydro-1~{H}-purin-8-ylium-9-yl)-3,4-dihydroxy-tetrahydrofuran-2-yl]methoxy-hydroxy-phosphoryl]oxy-oxido-phosphoryl] phosphate
   46    48     1     0     0
SMALL
USER_CHARGES

@<TRIPOS>ATOM
      1 PG          1.7457   -4.7344   -4.0541 P.3       1 GTP        -1.1921
      2 O1G         0.2945   -4.6438   -4.5138 O.co2     1 GTP         0.3195
      3 O2G         2.2893   -6.1559   -3.9614 O.co2     1 GTP         0.3195
      4 O3G         2.0736   -3.8629   -2.8460 O.co2     1 GTP         0.3195
      5 O3B         2.6068   -4.0449   -5.2785 O.3       1 GTP         0.4672
      6 PB          2.5625   -2.5483   -5.9299 P.3       1 GTP        -1.1062
      7 O1B         3.6889   -2.4149   -6.9303 O.co2     1 GTP         0.3195
      8 O2B         1.1337   -2.2444   -6.3232 O.co2     1 GTP         0.3195
      9 O3A         2.9329   -1.6730   -4.6033 O.3       1 GTP         0.4672
     10 PA          3.0905   -0.0736   -4.4161 P.3       1 GTP        -0.9715
     11 O1A         4.1564    0.5417   -5.2759 O.2       1 GTP         0.2707
     12 O2A         1.5982    0.4977   -4.6691 O.3       1 GTP         0.0326
     13 O5'         3.2903    0.1346   -2.8241 O.3       1 GTP         0.1618
     14 C5'         2.2816   -0.2918   -1.9206 C.3       1 GTP         0.1504
     15 C4'         2.7248    0.0226   -0.4980 C.3       1 GTP         0.1111
     16 O4'         2.4697    1.4219   -0.2462 O.3       1 GTP        -0.1436
     17 C3'         1.9404   -0.7419    0.5596 C.3       1 GTP         0.1111
     18 O3'         2.7418   -0.8086    1.7389 O.3       1 GTP        -0.2728
     19 C2'         0.7477    0.1630    0.7858 C.3       1 GTP         0.1111
     20 O2'         0.1373   -0.0577    2.0407 O.3       1 GTP        -0.2728
     21 C1'         1.3733    1.5427    0.6747 C.3       1 GTP         0.2693
     22 N9          0.4520    2.5240    0.1767 N.pl3     1 GTP        -0.3222
     23 C8          0.5671    3.2221   -0.9473 C.ar      1 GTP         0.1640
     24 N7         -0.4560    4.0508   -1.1290 N.pl3     1 GTP        -0.3688
     25 C5         -1.2671    3.8585   -0.0441 C.ar      1 GTP         0.0648
     26 C6         -2.5318    4.5014    0.2817 C.ar      1 GTP         0.3597
     27 O6         -3.0527    5.3493   -0.4293 O.2       1 GTP        -0.2755
     28 N1         -3.0357    4.0149    1.4868 N.pl3     1 GTP        -0.1604
     29 C2         -2.4069    3.0373    2.2768 C.ar      1 GTP         0.4468
     30 N2         -3.0679    2.6964    3.4278 N.pl3     1 GTP        -0.5618
     31 N3         -1.2653    2.4872    1.9379 N.2       1 GTP        -0.4283
     32 C4         -0.7342    2.9334    0.7643 C.ar      1 GTP         0.2226
     33 HOA2        1.4261    1.4532   -4.5301 H         1 GTP         0.2010
     34 H5'         1.3514    0.2330   -2.1577 H         1 GTP        -0.0393
     35 H5''        2.1280   -1.3678   -2.0460 H         1 GTP        -0.0393
     36 H4'         3.8044   -0.1397   -0.4040 H         1 GTP        -0.0393
     37 H3'         1.6764   -1.7639    0.2728 H         1 GTP        -0.0393
     38 HO3'        2.2232   -1.2979    2.3953 H         1 GTP         0.2010
     39 H2'        -0.0011    0.0027    0.0003 H         1 GTP        -0.0393
     40 HO2'       -0.1563   -0.9855    2.0596 H         1 GTP         0.2010
     41 H1'         1.7826    1.9024    1.6451 H         1 GTP        -0.0393
     42 H8          1.3888    3.1325   -1.6361 H         1 GTP         0.0000
     43 HN1        -3.9188    4.3932    1.8170 H         1 GTP         0.0865
     44 HN21       -2.6609    2.0087    4.0186 H         1 GTP         0.2048
     45 HN22       -3.9293    3.1496    3.6283 H         1 GTP         0.2048
     46 H46        -0.5938    4.6820   -1.9060 H         1 GTP         0.2048
@<TRIPOS>BOND
     1    1    2 2
     2    1    3 1
     3    1    4 1
     4    1    5 1
     5    5    6 1
     6    6    7 2
     7    6    8 1
     8    6    9 1
     9    9   10 1
    10   10   11 2
    11   10   12 1
    12   10   13 1
    13   12   33 1
    14   13   14 1
    15   14   15 1
    16   14   34 1
    17   14   35 1
    18   15   16 1
    19   15   17 1
    20   15   36 1
    21   16   21 1
    22   17   18 1
    23   17   19 1
    24   17   37 1
    25   18   38 1
    26   19   20 1
    27   19   21 1
    28   19   39 1
    29   20   40 1
    30   21   22 1
    31   21   41 1
    32   22   23 ar
    33   22   32 ar
    34   23   24 ar
    35   23   42 1
    36   24   25 ar
    37   24   46 1
    38   25   26 ar
    39   25   32 ar
    40   26   27 2
    41   26   28 ar
    42   28   29 ar
    43   28   43 1
    44   29   30 1
    45   29   31 ar
    46   30   44 1
    47   30   45 1
    48   31   32 ar
@<TRIPOS>SUBSTRUCTURE
     1 GTP         1 GROUP 0 A     ****
@<TRIPOS>MOLECULE
[[[5-(2-amino-6-oxo-7,8-dihydro-1~{H}-purin-8-ylium-9-yl)-3,4-dihydroxy-tetrahydrofuran-2-yl]methoxy-hydroxy-phosphoryl]oxy-oxido-phosphoryl] phosphate
   46    48     1     0     0
SMALL
USER_CHARGES

@<TRIPOS>ATOM
      1 PG          7.2628   -0.2587   -4.7272 P.3       1 GTP        -1.1921
      2 O1G         8.1690   -1.3115   -4.0979 O.co2     1 GTP         0.3195
      3 O2G         7.9477    0.6213   -5.7671 O.co2     1 GTP         0.3195
      4 O3G         6.4108    0.5121   -3.7239 O.co2     1 GTP         0.3195
      5 O3B         6.1603   -1.1294   -5.5886 O.3       1 GTP         0.4672
      6 PB          5.0775   -2.2643   -5.1350 P.3       1 GTP        -1.1062
      7 O1B         4.2093   -2.6167   -6.3222 O.co2     1 GTP         0.3195
      8 O2B         5.8117   -3.3384   -4.3630 O.co2     1 GTP         0.3195
      9 O3A         4.1953   -1.3810   -4.0840 O.3       1 GTP         0.4672
     10 PA          3.3423   -0.0257   -4.3151 P.3       1 GTP        -0.9715
     11 O1A         4.0065    0.9689   -5.2226 O.2       1 GTP         0.2707
     12 O2A         1.9005   -0.5544   -4.8241 O.3       1 GTP         0.0326
     13 O5'         3.0213    0.5153   -2.8245 O.3       1 GTP         0.1618
     14 C5'         2.2816   -0.2918   -1.9206 C.3       1 GTP         0.1504
     15 C4'         2.7248    0.0226   -0.4980 C.3       1 GTP         0.1111
     16 O4'         2.4697    1.4219   -0.2462 O.3       1 GTP        -0.1436
     17 C3'         1.9404   -0.7419    0.5596 C.3       1 GTP         0.1111
     18 O3'         2.7418   -0.8086    1.7389 O.3       1 GTP        -0.2728
     19 C2'         0.7477    0.1630    0.7858 C.3       1 GTP         0.1111
     20 O2'         0.1373   -0.0577    2.0407 O.3       1 GTP        -0.2728
     21 C1'         1.3733    1.5427    0.6747 C.3       1 GTP         0.2693
     22 N9          0.4520    2.5240    0.1767 N.pl3     1 GTP        -0.3222
     23 C8          0.2203    2.8205   -1.0970 C.ar      1 GTP         0.1640
     24 N7         -0.6947    3.7752   -1.2304 N.pl3     1 GTP        -0.3688
     25 C5         -1.0607    4.0987    0.0476 C.ar      1 GTP         0.0648
     26 C6         -2.0310    5.0839    0.5029 C.ar      1 GTP         0.3597
     27 O6         -2.6779    5.7867   -0.2609 O.2       1 GTP        -0.2755
     28 N1         -2.1030    5.0975    1.8948 N.pl3     1 GTP        -0.1604
     29 C2         -1.3422    4.2721    2.7403 C.ar      1 GTP         0.4468
     30 N2         -1.5624    4.4419    4.0823 N.pl3     1 GTP        -0.5618
     31 N3         -0.4796    3.3981    2.2792 N.2       1 GTP        -0.4283
     32 C4         -0.3754    3.3496    0.9208 C.ar      1 GTP         0.2226
     33 HOA2        1.8422   -1.0165   -5.6873 H         1 GTP         0.2010
     34 H5'         1.2163   -0.0770   -2.0471 H         1 GTP        -0.0393
     35 H5''        2.4655   -1.3443   -2.1563 H         1 GTP        -0.0393
     36 H4'         3.8044   -0.1397   -0.4040 H         1 GTP        -0.0393
     37 H3'         1.6764   -1.7639    0.2728 H         1 GTP        -0.0393
     38 HO3'        2.2232   -1.2979    2.3953 H         1 GTP         0.2010
     39 H2'        -0.0011    0.0027    0.0003 H         1 GTP        -0.0393
     40 HO2'       -0.1563   -0.9855    2.0596 H         1 GTP         0.2010
     41 H1'         1.7826    1.9024    1.6451 H         1 GTP        -0.0393
     42 H8          0.7110    2.3472   -1.9295 H         1 GTP         0.0000
     43 HN1        -2.7504    5.7495    2.3282 H         1 GTP         0.0865
     44 HN21       -1.0467    3.8796    4.7190 H         1 GTP         0.2048
     45 HN22       -2.2294    5.1209    4.3680 H         1 GTP         0.2048
     46 H46        -1.0382    4.1687   -2.0954 H         1 GTP         0.2048
@<TRIPOS>BOND
     1    1    2 2
     2    1    3 1
     3    1    4 1
     4    1    5 1
     5    5    6 1
     6    6    7 2
     7    6    8 1
     8    6    9 1
     9    9   10 1
    10   10   11 2
    11   10   12 1
    12   10   13 1
    13   12   33 1
    14   13   14 1
    15   14   15 1
    16   14   34 1
    17   14   35 1
    18   15   16 1
    19   15   17 1
    20   15   36 1
    21   16   21 1
    22   17   18 1
    23   17   19 1
    24   17   37 1
    25   18   38 1
    26   19   20 1
    27   19   21 1
    28   19   39 1
    29   20   40 1
    30   21   22 1
    31   21   41 1
    32   22   23 ar
    33   22   32 ar
    34   23   24 ar
    35   23   42 1
    36   24   25 ar
    37   24   46 1
    38   25   26 ar
    39   25   32 ar
    40   26   27 2
    41   26   28 ar
    42   28   29 ar
    43   28   43 1
    44   29   30 1
    45   29   31 ar
    46   30   44 1
    47   30   45 1
    48   31   32 ar
@<TRIPOS>SUBSTRUCTURE
     1 GTP         1 GROUP 0 A     ****
@<TRIPOS>MOLECULE
[[[5-(2-amino-6-oxo-7,8-dihydro-1~{H}-purin-8-ylium-9-yl)-3,4-dihydroxy-tetrahydrofuran-2-yl]methoxy-hydroxy-phosphoryl]oxy-oxido-phosphoryl] phosphate
   46    48     1     0     0
SMALL
USER_CHARGES

@<TRIPOS>ATOM
      1 PG         -1.2435   -3.0683   -6.6689 P.3       1 GTP        -1.1921
      2 O1G        -1.9370   -1.8677   -7.3039 O.co2     1 GTP         0.3195
      3 O2G        -0.6773   -4.0701   -7.6692 O.co2     1 GTP         0.3195
      4 O3G        -2.0233   -3.7059   -5.5234 O.co2     1 GTP         0.3195
      5 O3B         0.0846   -2.4307   -5.9303 O.3       1 GTP         0.4672
      6 PB          0.2408   -1.3048   -4.7582 P.3       1 GTP        -1.1062
      7 O1B        -0.2267    0.0300   -5.2943 O.co2     1 GTP         0.3195
      8 O2B        -0.3311   -1.8711   -3.4772 O.co2     1 GTP         0.3195
      9 O3A         1.8677   -1.2790   -4.6333 O.3       1 GTP         0.4672
     10 PA          2.8586   -2.1486   -3.6952 P.3       1 GTP        -0.9715
     11 O1A         2.7720   -3.6303   -3.9207 O.2       1 GTP         0.2707
     12 O2A         4.3174   -1.5032   -3.9651 O.3       1 GTP         0.0326
     13 O5'         2.5245   -1.6648   -2.1878 O.3       1 GTP         0.1618
     14 C5'         2.2816   -0.2918   -1.9206 C.3       1 GTP         0.1504
     15 C4'         2.7248    0.0226   -0.4980 C.3       1 GTP         0.1111
     16 O4'         2.4697    1.4219   -0.2462 O.3       1 GTP        -0.1436
     17 C3'         1.9404   -0.7419    0.5596 C.3       1 GTP         0.1111
     18 O3'         2.7418   -0.8086    1.7389 O.3       1 GTP        -0.2728
     19 C2'         0.7477    0.1630    0.7858 C.3       1 GTP         0.1111
     20 O2'         0.1373   -0.0577    2.0407 O.3       1 GTP        -0.2728
     21 C1'         1.3733    1.5427    0.6747 C.3       1 GTP         0.2693
     22 N9          0.4520    2.5240    0.1767 N.pl3     1 GTP        -0.3222
     23 C8          0.2203    2.8205   -1.0970 C.ar      1 GTP         0.1640
     24 N7         -0.6947    3.7752   -1.2304 N.pl3     1 GTP        -0.3688
     25 C5         -1.0607    4.0987    0.0476 C.ar      1 GTP         0.0648
     26 C6         -2.0310    5.0839    0.5029 C.ar      1 GTP         0.3597
     27 O6         -2.6779    5.7867   -0.2609 O.2       1 GTP        -0.2755
     28 N1         -2.1030    5.0975    1.8948 N.pl3     1 GTP        -0.1604
     29 C2         -1.3422    4.2721    2.7403 C.ar      1 GTP         0.4468
     30 N2         -1.5624    4.4419    4.0823 N.pl3     1 GTP        -0.5618
     31 N3         -0.4796    3.3981    2.2792 N.2       1 GTP        -0.4283
     32 C4         -0.3754    3.3496    0.9208 C.ar      1 GTP         0.2226
     33 HOA2        5.0814   -1.8204   -3.4381 H         1 GTP         0.2010
     34 H5'         2.8432    0.3119   -2.6398 H         1 GTP        -0.0393
     35 H5''        1.2128   -0.0927   -2.0428 H         1 GTP        -0.0393
     36 H4'         3.8044   -0.1397   -0.4040 H         1 GTP        -0.0393
     37 H3'         1.6764   -1.7639    0.2728 H         1 GTP        -0.0393
     38 HO3'        2.2232   -1.2979    2.3953 H         1 GTP         0.2010
     39 H2'        -0.0011    0.0027    0.0003 H         1 GTP        -0.0393
     40 HO2'       -0.6141    0.5574    2.1082 H         1 GTP         0.2010
     41 H1'         1.7826    1.9024    1.6451 H         1 GTP        -0.0393
     42 H8          0.7110    2.3472   -1.9295 H         1 GTP         0.0000
     43 HN1        -2.7504    5.7495    2.3282 H         1 GTP         0.0865
     44 HN21       -1.0467    3.8796    4.7190 H         1 GTP         0.2048
     45 HN22       -2.2294    5.1209    4.3680 H         1 GTP         0.2048
     46 H46        -1.0382    4.1687   -2.0954 H         1 GTP         0.2048
@<TRIPOS>BOND
     1    1    2 2
     2    1    3 1
     3    1    4 1
     4    1    5 1
     5    5    6 1
     6    6    7 2
     7    6    8 1
     8    6    9 1
     9    9   10 1
    10   10   11 2
    11   10   12 1
    12   10   13 1
    13   12   33 1
    14   13   14 1
    15   14   15 1
    16   14   34 1
    17   14   35 1
    18   15   16 1
    19   15   17 1
    20   15   36 1
    21   16   21 1
    22   17   18 1
    23   17   19 1
    24   17   37 1
    25   18   38 1
    26   19   20 1
    27   19   21 1
    28   19   39 1
    29   20   40 1
    30   21   22 1
    31   21   41 1
    32   22   23 ar
    33   22   32 ar
    34   23   24 ar
    35   23   42 1
    36   24   25 ar
    37   24   46 1
    38   25   26 ar
    39   25   32 ar
    40   26   27 2
    41   26   28 ar
    42   28   29 ar
    43   28   43 1
    44   29   30 1
    45   29   31 ar
    46   30   44 1
    47   30   45 1
    48   31   32 ar
@<TRIPOS>SUBSTRUCTURE
     1 GTP         1 GROUP 0 A     ****
@<TRIPOS>MOLECULE
[[[5-(2-amino-6-oxo-7,8-dihydro-1~{H}-purin-8-ylium-9-yl)-3,4-dihydroxy-tetrahydrofuran-2-yl]methoxy-hydroxy-phosphoryl]oxy-oxido-phosphoryl] phosphate
   46    48     1     0     0
SMALL
USER_CHARGES

@<TRIPOS>ATOM
      1 PG         -2.8005    0.0145   -4.3197 P.3       1 GTP        -1.1921
      2 O1G        -4.0194   -0.2931   -3.4564 O.co2     1 GTP         0.3195
      3 O2G        -2.3469    1.4694   -4.2731 O.co2     1 GTP         0.3195
      4 O3G        -2.8676   -0.5716   -5.7263 O.co2     1 GTP         0.3195
      5 O3B        -1.5722   -0.8212   -3.6064 O.3       1 GTP         0.4672
      6 PB         -1.3699   -2.4141   -3.3099 P.3       1 GTP        -1.1062
      7 O1B        -2.3977   -2.8586   -2.2932 O.co2     1 GTP         0.3195
      8 O2B        -1.2285   -3.1291   -4.6356 O.co2     1 GTP         0.3195
      9 O3A         0.0932   -2.3638   -2.5889 O.3       1 GTP         0.4672
     10 PA          1.5771   -2.4667   -3.2257 P.3       1 GTP        -0.9715
     11 O1A         2.0159   -3.8691   -3.5331 O.2       1 GTP         0.2707
     12 O2A         1.5230   -1.4752   -4.5030 O.3       1 GTP         0.0326
     13 O5'         2.5245   -1.6648   -2.1878 O.3       1 GTP         0.1618
     14 C5'         2.2816   -0.2918   -1.9206 C.3       1 GTP         0.1504
     15 C4'         2.7248    0.0226   -0.4980 C.3       1 GTP         0.1111
     16 O4'         2.4697    1.4219   -0.2462 O.3       1 GTP        -0.1436
     17 C3'         1.9404   -0.7419    0.5596 C.3       1 GTP         0.1111
     18 O3'         2.7418   -0.8086    1.7389 O.3       1 GTP        -0.2728
     19 C2'         0.7477    0.1630    0.7858 C.3       1 GTP         0.1111
     20 O2'         0.1373   -0.0577    2.0407 O.3       1 GTP        -0.2728
     21 C1'         1.3733    1.5427    0.6747 C.3       1 GTP         0.2693
     22 N9          0.4520    2.5240    0.1767 N.pl3     1 GTP        -0.3222
     23 C8         -0.2009    2.4849   -0.9792 C.ar      1 GTP         0.1640
     24 N7         -0.9840    3.5454   -1.1481 N.pl3     1 GTP        -0.3688
     25 C5         -0.8090    4.3005   -0.0206 C.ar      1 GTP         0.0648
     26 C6         -1.4206    5.5724    0.3362 C.ar      1 GTP         0.3597
     27 O6         -2.2199    6.1544   -0.3836 O.2       1 GTP        -0.2755
     28 N1         -0.9680    6.0043    1.5817 N.pl3     1 GTP        -0.1604
     29 C2         -0.0474    5.3055    2.3814 C.ar      1 GTP         0.4468
     30 N2          0.2680    5.9024    3.5740 N.pl3     1 GTP        -0.5618
     31 N3          0.4755    4.1601    2.0138 N.2       1 GTP        -0.4283
     32 C4          0.0611    3.6981    0.8001 C.ar      1 GTP         0.2226
     33 HOA2        0.9315   -1.6991   -5.2527 H         1 GTP         0.2010
     34 H5'         2.8432    0.3119   -2.6398 H         1 GTP        -0.0393
     35 H5''        1.2128   -0.0927   -2.0428 H         1 GTP        -0.0393
     36 H4'         3.8044   -0.1397   -0.4040 H         1 GTP        -0.0393
     37 H3'         1.6764   -1.7639    0.2728 H         1 GTP        -0.0393
     38 HO3'        2.2232   -1.2979    2.3953 H         1 GTP         0.2010
     39 H2'        -0.0011    0.0027    0.0003 H         1 GTP        -0.0393
     40 HO2'       -0.1563   -0.9855    2.0596 H         1 GTP         0.2010
     41 H1'         1.7826    1.9024    1.6451 H         1 GTP        -0.0393
     42 H8         -0.1126    1.6906   -1.6997 H         1 GTP         0.0000
     43 HN1        -1.3285    6.8855    1.9361 H         1 GTP         0.0865
     44 HN21        0.9153    5.4446    4.1732 H         1 GTP         0.2048
     45 HN22       -0.1624    6.7706    3.7948 H         1 GTP         0.2048
     46 H46        -1.5768    3.7405   -1.9429 H         1 GTP         0.2048
@<TRIPOS>BOND
     1    1    2 2
     2    1    3 1
     3    1    4 1
     4    1    5 1
     5    5    6 1
     6    6    7 2
     7    6    8 1
     8    6    9 1
     9    9   10 1
    10   10   11 2
    11   10   12 1
    12   10   13 1
    13   12   33 1
    14   13   14 1
    15   14   15 1
    16   14   34 1
    17   14   35 1
    18   15   16 1
    19   15   17 1
    20   15   36 1
    21   16   21 1
    22   17   18 1
    23   17   19 1
    24   17   37 1
    25   18   38 1
    26   19   20 1
    27   19   21 1
    28   19   39 1
    29   20   40 1
    30   21   22 1
    31   21   41 1
    32   22   23 ar
    33   22   32 ar
    34   23   24 ar
    35   23   42 1
    36   24   25 ar
    37   24   46 1
    38   25   26 ar
    39   25   32 ar
    40   26   27 2
    41   26   28 ar
    42   28   29 ar
    43   28   43 1
    44   29   30 1
    45   29   31 ar
    46   30   44 1
    47   30   45 1
    48   31   32 ar
@<TRIPOS>SUBSTRUCTURE
     1 GTP         1 GROUP 0 A     ****
@<TRIPOS>MOLECULE
[[[5-(2-amino-6-oxo-7,8-dihydro-1~{H}-purin-8-ylium-9-yl)-3,4-dihydroxy-tetrahydrofuran-2-yl]methoxy-hydroxy-phosphoryl]oxy-oxido-phosphoryl] phosphate
   46    48     1     0     0
SMALL
USER_CHARGES

@<TRIPOS>ATOM
      1 PG          4.3572   -4.2955   -1.7539 P.3       1 GTP        -1.1921
      2 O1G         5.8382   -3.9352   -1.7058 O.co2     1 GTP         0.3195
      3 O2G         3.6105   -4.0664   -0.4444 O.co2     1 GTP         0.3195
      4 O3G         4.0628   -5.6402   -2.4110 O.co2     1 GTP         0.3195
      5 O3B         3.7028   -3.1996   -2.7964 O.3       1 GTP         0.4672
      6 PB          4.0118   -2.8742   -4.3664 P.3       1 GTP        -1.1062
      7 O1B         5.4077   -2.3039   -4.4839 O.co2     1 GTP         0.3195
      8 O2B         3.5890   -4.0701   -5.1908 O.co2     1 GTP         0.3195
      9 O3A         2.9329   -1.6730   -4.6033 O.3       1 GTP         0.4672
     10 PA          3.0905   -0.0736   -4.4161 P.3       1 GTP        -0.9715
     11 O1A         4.1564    0.5417   -5.2759 O.2       1 GTP         0.2707
     12 O2A         1.5982    0.4977   -4.6691 O.3       1 GTP         0.0326
     13 O5'         3.2903    0.1346   -2.8241 O.3       1 GTP         0.1618
     14 C5'         2.2816   -0.2918   -1.9206 C.3       1 GTP         0.1504
     15 C4'         2.7248    0.0226   -0.4980 C.3       1 GTP         0.1111
     16 O4'         2.4697    1.4219   -0.2462 O.3       1 GTP        -0.1436
     17 C3'         1.9404   -0.7419    0.5596 C.3       1 GTP         0.1111
     18 O3'         2.7418   -0.8086    1.7389 O.3       1 GTP        -0.2728
     19 C2'         0.7477    0.1630    0.7858 C.3       1 GTP         0.1111
     20 O2'         0.1373   -0.0577    2.0407 O.3       1 GTP        -0.2728
     21 C1'         1.3733    1.5427    0.6747 C.3       1 GTP         0.2693
     22 N9          0.4520    2.5240    0.1767 N.pl3     1 GTP        -0.3222
     23 C8          0.5671    3.2221   -0.9473 C.ar      1 GTP         0.1640
     24 N7         -0.4560    4.0508   -1.1290 N.pl3     1 GTP        -0.3688
     25 C5         -1.2671    3.8585   -0.0441 C.ar      1 GTP         0.0648
     26 C6         -2.5318    4.5014    0.2817 C.ar      1 GTP         0.3597
     27 O6         -3.0527    5.3493   -0.4293 O.2       1 GTP        -0.2755
     28 N1         -3.0357    4.0149    1.4868 N.pl3     1 GTP        -0.1604
     29 C2         -2.4069    3.0373    2.2768 C.ar      1 GTP         0.4468
     30 N2         -3.0679    2.6964    3.4278 N.pl3     1 GTP        -0.5618
     31 N3         -1.2653    2.4872    1.9379 N.2       1 GTP        -0.4283
     32 C4         -0.7342    2.9334    0.7643 C.ar      1 GTP         0.2226
     33 HOA2        1.4261    1.4532   -4.5301 H         1 GTP         0.2010
     34 H5'         1.3514    0.2330   -2.1577 H         1 GTP        -0.0393
     35 H5''        2.1280   -1.3678   -2.0460 H         1 GTP        -0.0393
     36 H4'         3.8044   -0.1397   -0.4040 H         1 GTP        -0.0393
     37 H3'         1.6764   -1.7639    0.2728 H         1 GTP        -0.0393
     38 HO3'        2.2232   -1.2979    2.3953 H         1 GTP         0.2010
     39 H2'        -0.0011    0.0027    0.0003 H         1 GTP        -0.0393
     40 HO2'       -0.1563   -0.9855    2.0596 H         1 GTP         0.2010
     41 H1'         1.7826    1.9024    1.6451 H         1 GTP        -0.0393
     42 H8          1.3888    3.1325   -1.6361 H         1 GTP         0.0000
     43 HN1        -3.9188    4.3932    1.8170 H         1 GTP         0.0865
     44 HN21       -2.6609    2.0087    4.0186 H         1 GTP         0.2048
     45 HN22       -3.9293    3.1496    3.6283 H         1 GTP         0.2048
     46 H46        -0.5938    4.6820   -1.9060 H         1 GTP         0.2048
@<TRIPOS>BOND
     1    1    2 2
     2    1    3 1
     3    1    4 1
     4    1    5 1
     5    5    6 1
     6    6    7 2
     7    6    8 1
     8    6    9 1
     9    9   10 1
    10   10   11 2
    11   10   12 1
    12   10   13 1
    13   12   33 1
    14   13   14 1
    15   14   15 1
    16   14   34 1
    17   14   35 1
    18   15   16 1
    19   15   17 1
    20   15   36 1
    21   16   21 1
    22   17   18 1
    23   17   19 1
    24   17   37 1
    25   18   38 1
    26   19   20 1
    27   19   21 1
    28   19   39 1
    29   20   40 1
    30   21   22 1
    31   21   41 1
    32   22   23 ar
    33   22   32 ar
    34   23   24 ar
    35   23   42 1
    36   24   25 ar
    37   24   46 1
    38   25   26 ar
    39   25   32 ar
    40   26   27 2
    41   26   28 ar
    42   28   29 ar
    43   28   43 1
    44   29   30 1
    45   29   31 ar
    46   30   44 1
    47   30   45 1
    48   31   32 ar
@<TRIPOS>SUBSTRUCTURE
     1 GTP         1 GROUP 0 A     ****
@<TRIPOS>MOLECULE
[[[5-(2-amino-6-oxo-7,8-dihydro-1~{H}-purin-8-ylium-9-yl)-3,4-dihydroxy-tetrahydrofuran-2-yl]methoxy-hydroxy-phosphoryl]oxy-oxido-phosphoryl] phosphate
   46    48     1     0     0
SMALL
USER_CHARGES

@<TRIPOS>ATOM
      1 PG         -0.2427   -4.6297   -5.7270 P.3       1 GTP        -1.1921
      2 O1G         0.8846   -3.7132   -6.1903 O.co2     1 GTP         0.3195
      3 O2G         0.0781   -6.1177   -5.8172 O.co2     1 GTP         0.3195
      4 O3G        -1.6166   -4.2553   -6.2738 O.co2     1 GTP         0.3195
      5 O3B        -0.3719   -4.3351   -4.1107 O.3       1 GTP         0.4672
      6 PB         -0.6973   -2.9691   -3.2775 P.3       1 GTP        -1.1062
      7 O1B        -1.9820   -2.3681   -3.8027 O.co2     1 GTP         0.3195
      8 O2B        -0.5208   -3.2593   -1.8033 O.co2     1 GTP         0.3195
      9 O3A         0.5548   -2.0505   -3.7791 O.3       1 GTP         0.4672
     10 PA          2.1490   -2.2861   -3.6338 P.3       1 GTP        -0.9715
     11 O1A         2.5798   -3.7086   -3.8453 O.2       1 GTP         0.2707
     12 O2A         2.7964   -1.2188   -4.6629 O.3       1 GTP         0.0326
     13 O5'         2.5245   -1.6648   -2.1878 O.3       1 GTP         0.1618
     14 C5'         2.2816   -0.2918   -1.9206 C.3       1 GTP         0.1504
     15 C4'         2.7248    0.0226   -0.4980 C.3       1 GTP         0.1111
     16 O4'         2.4697    1.4219   -0.2462 O.3       1 GTP        -0.1436
     17 C3'         1.9404   -0.7419    0.5596 C.3       1 GTP         0.1111
     18 O3'         2.7418   -0.8086    1.7389 O.3       1 GTP        -0.2728
     19 C2'         0.7477    0.1630    0.7858 C.3       1 GTP         0.1111
     20 O2'         0.1373   -0.0577    2.0407 O.3       1 GTP        -0.2728
     21 C1'         1.3733    1.5427    0.6747 C.3       1 GTP         0.2693
     22 N9          0.4520    2.5240    0.1767 N.pl3     1 GTP        -0.3222
     23 C8         -0.2009    2.4849   -0.9792 C.ar      1 GTP         0.1640
     24 N7         -0.9840    3.5454   -1.1481 N.pl3     1 GTP        -0.3688
     25 C5         -0.8090    4.3005   -0.0206 C.ar      1 GTP         0.0648
     26 C6         -1.4206    5.5724    0.3362 C.ar      1 GTP         0.3597
     27 O6         -2.2199    6.1544   -0.3836 O.2       1 GTP        -0.2755
     28 N1         -0.9680    6.0043    1.5817 N.pl3     1 GTP        -0.1604
     29 C2         -0.0474    5.3055    2.3814 C.ar      1 GTP         0.4468
     30 N2          0.2680    5.9024    3.5740 N.pl3     1 GTP        -0.5618
     31 N3          0.4755    4.1601    2.0138 N.2       1 GTP        -0.4283
     32 C4          0.0611    3.6981    0.8001 C.ar      1 GTP         0.2226
     33 HOA2        3.7717   -1.1194   -4.6922 H         1 GTP         0.2010
     34 H5'         2.8432    0.3119   -2.6398 H         1 GTP        -0.0393
     35 H5''        1.2128   -0.0927   -2.0428 H         1 GTP        -0.0393
     36 H4'         3.8044   -0.1397   -0.4040 H         1 GTP        -0.0393
     37 H3'         1.6764   -1.7639    0.2728 H         1 GTP        -0.0393
     38 HO3'        2.2232   -1.2979    2.3953 H         1 GTP         0.2010
     39 H2'        -0.0011    0.0027    0.0003 H         1 GTP        -0.0393
     40 HO2'       -0.6141    0.5574    2.1082 H         1 GTP         0.2010
     41 H1'         1.7826    1.9024    1.6451 H         1 GTP        -0.0393
     42 H8         -0.1126    1.6906   -1.6997 H         1 GTP         0.0000
     43 HN1        -1.3285    6.8855    1.9361 H         1 GTP         0.0865
     44 HN21        0.9153    5.4446    4.1732 H         1 GTP         0.2048
     45 HN22       -0.1624    6.7706    3.7948 H         1 GTP         0.2048
     46 H46        -1.5768    3.7405   -1.9429 H         1 GTP         0.2048
@<TRIPOS>BOND
     1    1    2 2
     2    1    3 1
     3    1    4 1
     4    1    5 1
     5    5    6 1
     6    6    7 2
     7    6    8 1
     8    6    9 1
     9    9   10 1
    10   10   11 2
    11   10   12 1
    12   10   13 1
    13   12   33 1
    14   13   14 1
    15   14   15 1
    16   14   34 1
    17   14   35 1
    18   15   16 1
    19   15   17 1
    20   15   36 1
    21   16   21 1
    22   17   18 1
    23   17   19 1
    24   17   37 1
    25   18   38 1
    26   19   20 1
    27   19   21 1
    28   19   39 1
    29   20   40 1
    30   21   22 1
    31   21   41 1
    32   22   23 ar
    33   22   32 ar
    34   23   24 ar
    35   23   42 1
    36   24   25 ar
    37   24   46 1
    38   25   26 ar
    39   25   32 ar
    40   26   27 2
    41   26   28 ar
    42   28   29 ar
    43   28   43 1
    44   29   30 1
    45   29   31 ar
    46   30   44 1
    47   30   45 1
    48   31   32 ar
@<TRIPOS>SUBSTRUCTURE
     1 GTP         1 GROUP 0 A     ****
@<TRIPOS>MOLECULE
[[[5-(2-amino-6-oxo-7,8-dihydro-1~{H}-purin-8-ylium-9-yl)-3,4-dihydroxy-tetrahydrofuran-2-yl]methoxy-hydroxy-phosphoryl]oxy-oxido-phosphoryl] phosphate
   46    48     1     0     0
SMALL
USER_CHARGES

@<TRIPOS>ATOM
      1 PG         -0.1890   -5.4065   -1.2680 P.3       1 GTP        -1.1921
      2 O1G        -1.3296   -5.2582   -0.2666 O.co2     1 GTP         0.3195
      3 O2G         0.1087   -6.8456   -1.6747 O.co2     1 GTP         0.3195
      4 O3G         1.0515   -4.5870   -0.9273 O.co2     1 GTP         0.3195
      5 O3B        -0.7579   -4.7006   -2.6442 O.3       1 GTP         0.4672
      6 PB         -1.2706   -3.1818   -2.9546 P.3       1 GTP        -1.1062
      7 O1B        -1.5355   -3.0467   -4.4376 O.co2     1 GTP         0.3195
      8 O2B        -2.3335   -2.8233   -1.9395 O.co2     1 GTP         0.3195
      9 O3A         0.0932   -2.3638   -2.5889 O.3       1 GTP         0.4672
     10 PA          1.5771   -2.4667   -3.2257 P.3       1 GTP        -0.9715
     11 O1A         2.0159   -3.8691   -3.5331 O.2       1 GTP         0.2707
     12 O2A         1.5230   -1.4752   -4.5030 O.3       1 GTP         0.0326
     13 O5'         2.5245   -1.6648   -2.1878 O.3       1 GTP         0.1618
     14 C5'         2.2816   -0.2918   -1.9206 C.3       1 GTP         0.1504
     15 C4'         2.7248    0.0226   -0.4980 C.3       1 GTP         0.1111
     16 O4'         2.4697    1.4219   -0.2462 O.3       1 GTP        -0.1436
     17 C3'         1.9404   -0.7419    0.5596 C.3       1 GTP         0.1111
     18 O3'         2.7418   -0.8086    1.7389 O.3       1 GTP        -0.2728
     19 C2'         0.7477    0.1630    0.7858 C.3       1 GTP         0.1111
     20 O2'         0.1373   -0.0577    2.0407 O.3       1 GTP        -0.2728
     21 C1'         1.3733    1.5427    0.6747 C.3       1 GTP         0.2693
     22 N9          0.4520    2.5240    0.1767 N.pl3     1 GTP        -0.3222
     23 C8         -0.2009    2.4849   -0.9792 C.ar      1 GTP         0.1640
     24 N7         -0.9840    3.5454   -1.1481 N.pl3     1 GTP        -0.3688
     25 C5         -0.8090    4.3005   -0.0206 C.ar      1 GTP         0.0648
     26 C6         -1.4206    5.5724    0.3362 C.ar      1 GTP         0.3597
     27 O6         -2.2199    6.1544   -0.3836 O.2       1 GTP        -0.2755
     28 N1         -0.9680    6.0043    1.5817 N.pl3     1 GTP        -0.1604
     29 C2         -0.0474    5.3055    2.3814 C.ar      1 GTP         0.4468
     30 N2          0.2680    5.9024    3.5740 N.pl3     1 GTP        -0.5618
     31 N3          0.4755    4.1601    2.0138 N.2       1 GTP        -0.4283
     32 C4          0.0611    3.6981    0.8001 C.ar      1 GTP         0.2226
     33 HOA2        0.9315   -1.6991   -5.2527 H         1 GTP         0.2010
     34 H5'         2.8432    0.3119   -2.6398 H         1 GTP        -0.0393
     35 H5''        1.2128   -0.0927   -2.0428 H         1 GTP        -0.0393
     36 H4'         3.8044   -0.1397   -0.4040 H         1 GTP        -0.0393
     37 H3'         1.6764   -1.7639    0.2728 H         1 GTP        -0.0393
     38 HO3'        2.2232   -1.2979    2.3953 H         1 GTP         0.2010
     39 H2'        -0.0011    0.0027    0.0003 H         1 GTP        -0.0393
     40 HO2'       -0.6141    0.5574    2.1082 H         1 GTP         0.2010
     41 H1'         1.7826    1.9024    1.6451 H         1 GTP        -0.0393
     42 H8         -0.1126    1.6906   -1.6997 H         1 GTP         0.0000
     43 HN1        -1.3285    6.8855    1.9361 H         1 GTP         0.0865
     44 HN21        0.9153    5.4446    4.1732 H         1 GTP         0.2048
     45 HN22       -0.1624    6.7706    3.7948 H         1 GTP         0.2048
     46 H46        -1.5768    3.7405   -1.9429 H         1 GTP         0.2048
@<TRIPOS>BOND
     1    1    2 2
     2    1    3 1
     3    1    4 1
     4    1    5 1
     5    5    6 1
     6    6    7 2
     7    6    8 1
     8    6    9 1
     9    9   10 1
    10   10   11 2
    11   10   12 1
    12   10   13 1
    13   12   33 1
    14   13   14 1
    15   14   15 1
    16   14   34 1
    17   14   35 1
    18   15   16 1
    19   15   17 1
    20   15   36 1
    21   16   21 1
    22   17   18 1
    23   17   19 1
    24   17   37 1
    25   18   38 1
    26   19   20 1
    27   19   21 1
    28   19   39 1
    29   20   40 1
    30   21   22 1
    31   21   41 1
    32   22   23 ar
    33   22   32 ar
    34   23   24 ar
    35   23   42 1
    36   24   25 ar
    37   24   46 1
    38   25   26 ar
    39   25   32 ar
    40   26   27 2
    41   26   28 ar
    42   28   29 ar
    43   28   43 1
    44   29   30 1
    45   29   31 ar
    46   30   44 1
    47   30   45 1
    48   31   32 ar
@<TRIPOS>SUBSTRUCTURE
     1 GTP         1 GROUP 0 A     ****
@<TRIPOS>MOLECULE
[[[5-(2-amino-6-oxo-7,8-dihydro-1~{H}-purin-8-ylium-9-yl)-3,4-dihydroxy-tetrahydrofuran-2-yl]methoxy-hydroxy-phosphoryl]oxy-oxido-phosphoryl] phosphate
   46    48     1     0     0
SMALL
USER_CHARGES

@<TRIPOS>ATOM
      1 PG          4.8285   -2.1754   -7.3209 P.3       1 GTP        -1.1921
      2 O1G         4.5231   -3.5704   -7.8561 O.co2     1 GTP         0.3195
      3 O2G         5.4600   -1.2341   -8.3407 O.co2     1 GTP         0.3195
      4 O3G         5.5130   -2.1656   -5.9578 O.co2     1 GTP         0.3195
      5 O3B         3.3472   -1.5192   -7.0191 O.3       1 GTP         0.4672
      6 PB          2.1307   -1.9879   -6.0360 P.3       1 GTP        -1.1062
      7 O1B         0.8329   -1.4043   -6.5484 O.co2     1 GTP         0.3195
      8 O2B         2.2692   -3.4734   -5.7851 O.co2     1 GTP         0.3195
      9 O3A         2.5655   -1.1900   -4.6806 O.3       1 GTP         0.4672
     10 PA          2.7598    0.3945   -4.4166 P.3       1 GTP        -0.9715
     11 O1A         3.8049    1.0362   -5.2825 O.2       1 GTP         0.2707
     12 O2A         1.2702    1.0033   -4.5836 O.3       1 GTP         0.0326
     13 O5'         3.0213    0.5153   -2.8245 O.3       1 GTP         0.1618
     14 C5'         2.2816   -0.2918   -1.9206 C.3       1 GTP         0.1504
     15 C4'         2.7248    0.0226   -0.4980 C.3       1 GTP         0.1111
     16 O4'         2.4697    1.4219   -0.2462 O.3       1 GTP        -0.1436
     17 C3'         1.9404   -0.7419    0.5596 C.3       1 GTP         0.1111
     18 O3'         2.7418   -0.8086    1.7389 O.3       1 GTP        -0.2728
     19 C2'         0.7477    0.1630    0.7858 C.3       1 GTP         0.1111
     20 O2'         0.1373   -0.0577    2.0407 O.3       1 GTP        -0.2728
     21 C1'         1.3733    1.5427    0.6747 C.3       1 GTP         0.2693
     22 N9          0.4520    2.5240    0.1767 N.pl3     1 GTP        -0.3222
     23 C8         -0.2009    2.4849   -0.9792 C.ar      1 GTP         0.1640
     24 N7         -0.9840    3.5454   -1.1481 N.pl3     1 GTP        -0.3688
     25 C5         -0.8090    4.3005   -0.0206 C.ar      1 GTP         0.0648
     26 C6         -1.4206    5.5724    0.3362 C.ar      1 GTP         0.3597
     27 O6         -2.2199    6.1544   -0.3836 O.2       1 GTP        -0.2755
     28 N1         -0.9680    6.0043    1.5817 N.pl3     1 GTP        -0.1604
     29 C2         -0.0474    5.3055    2.3814 C.ar      1 GTP         0.4468
     30 N2          0.2680    5.9024    3.5740 N.pl3     1 GTP        -0.5618
     31 N3          0.4755    4.1601    2.0138 N.2       1 GTP        -0.4283
     32 C4          0.0611    3.6981    0.8001 C.ar      1 GTP         0.2226
     33 HOA2        1.1211    1.9530   -4.3888 H         1 GTP         0.2010
     34 H5'         1.2163   -0.0770   -2.0471 H         1 GTP        -0.0393
     35 H5''        2.4655   -1.3443   -2.1563 H         1 GTP        -0.0393
     36 H4'         3.8044   -0.1397   -0.4040 H         1 GTP        -0.0393
     37 H3'         1.6764   -1.7639    0.2728 H         1 GTP        -0.0393
     38 HO3'        2.2232   -1.2979    2.3953 H         1 GTP         0.2010
     39 H2'        -0.0011    0.0027    0.0003 H         1 GTP        -0.0393
     40 HO2'       -0.1563   -0.9855    2.0596 H         1 GTP         0.2010
     41 H1'         1.7826    1.9024    1.6451 H         1 GTP        -0.0393
     42 H8         -0.1126    1.6906   -1.6997 H         1 GTP         0.0000
     43 HN1        -1.3285    6.8855    1.9361 H         1 GTP         0.0865
     44 HN21        0.9153    5.4446    4.1732 H         1 GTP         0.2048
     45 HN22       -0.1624    6.7706    3.7948 H         1 GTP         0.2048
     46 H46        -1.5768    3.7405   -1.9429 H         1 GTP         0.2048
@<TRIPOS>BOND
     1    1    2 2
     2    1    3 1
     3    1    4 1
     4    1    5 1
     5    5    6 1
     6    6    7 2
     7    6    8 1
     8    6    9 1
     9    9   10 1
    10   10   11 2
    11   10   12 1
    12   10   13 1
    13   12   33 1
    14   13   14 1
    15   14   15 1
    16   14   34 1
    17   14   35 1
    18   15   16 1
    19   15   17 1
    20   15   36 1
    21   16   21 1
    22   17   18 1
    23   17   19 1
    24   17   37 1
    25   18   38 1
    26   19   20 1
    27   19   21 1
    28   19   39 1
    29   20   40 1
    30   21   22 1
    31   21   41 1
    32   22   23 ar
    33   22   32 ar
    34   23   24 ar
    35   23   42 1
    36   24   25 ar
    37   24   46 1
    38   25   26 ar
    39   25   32 ar
    40   26   27 2
    41   26   28 ar
    42   28   29 ar
    43   28   43 1
    44   29   30 1
    45   29   31 ar
    46   30   44 1
    47   30   45 1
    48   31   32 ar
@<TRIPOS>SUBSTRUCTURE
     1 GTP         1 GROUP 0 A     ****
@<TRIPOS>MOLECULE
[[[5-(2-amino-6-oxo-7,8-dihydro-1~{H}-purin-8-ylium-9-yl)-3,4-dihydroxy-tetrahydrofuran-2-yl]methoxy-hydroxy-phosphoryl]oxy-oxido-phosphoryl] phosphate
   46    48     1     0     0
SMALL
USER_CHARGES

@<TRIPOS>ATOM
      1 PG          3.0336   -5.1900   -3.2617 P.3       1 GTP        -1.1921
      2 O1G         2.2783   -4.3085   -2.2727 O.co2     1 GTP         0.3195
      3 O2G         2.2247   -5.5955   -4.4890 O.co2     1 GTP         0.3195
      4 O3G         3.8007   -6.3388   -2.6148 O.co2     1 GTP         0.3195
      5 O3B         4.2204   -4.2137   -3.8568 O.3       1 GTP         0.4672
      6 PB          5.4450   -3.4208   -3.1235 P.3       1 GTP        -1.1062
      7 O1B         5.7637   -4.1113   -1.8161 O.co2     1 GTP         0.3195
      8 O2B         6.5259   -3.1640   -4.1503 O.co2     1 GTP         0.3195
      9 O3A         4.6898   -2.0106   -2.8012 O.3       1 GTP         0.4672
     10 PA          4.0065   -0.9377   -3.8013 P.3       1 GTP        -0.9715
     11 O1A         4.9530   -0.3481   -4.8064 O.2       1 GTP         0.2707
     12 O2A         2.7528   -1.7395   -4.4359 O.3       1 GTP         0.0326
     13 O5'         3.2903    0.1346   -2.8241 O.3       1 GTP         0.1618
     14 C5'         2.2816   -0.2918   -1.9206 C.3       1 GTP         0.1504
     15 C4'         2.7248    0.0226   -0.4980 C.3       1 GTP         0.1111
     16 O4'         2.4697    1.4219   -0.2462 O.3       1 GTP        -0.1436
     17 C3'         1.9404   -0.7419    0.5596 C.3       1 GTP         0.1111
     18 O3'         2.7418   -0.8086    1.7389 O.3       1 GTP        -0.2728
     19 C2'         0.7477    0.1630    0.7858 C.3       1 GTP         0.1111
     20 O2'         0.1373   -0.0577    2.0407 O.3       1 GTP        -0.2728
     21 C1'         1.3733    1.5427    0.6747 C.3       1 GTP         0.2693
     22 N9          0.4520    2.5240    0.1767 N.pl3     1 GTP        -0.3222
     23 C8          0.2203    2.8205   -1.0970 C.ar      1 GTP         0.1640
     24 N7         -0.6947    3.7752   -1.2304 N.pl3     1 GTP        -0.3688
     25 C5         -1.0607    4.0987    0.0476 C.ar      1 GTP         0.0648
     26 C6         -2.0310    5.0839    0.5029 C.ar      1 GTP         0.3597
     27 O6         -2.6779    5.7867   -0.2609 O.2       1 GTP        -0.2755
     28 N1         -2.1030    5.0975    1.8948 N.pl3     1 GTP        -0.1604
     29 C2         -1.3422    4.2721    2.7403 C.ar      1 GTP         0.4468
     30 N2         -1.5624    4.4419    4.0823 N.pl3     1 GTP        -0.5618
     31 N3         -0.4796    3.3981    2.2792 N.2       1 GTP        -0.4283
     32 C4         -0.3754    3.3496    0.9208 C.ar      1 GTP         0.2226
     33 HOA2        2.9273   -2.5153   -5.0102 H         1 GTP         0.2010
     34 H5'         1.3514    0.2330   -2.1577 H         1 GTP        -0.0393
     35 H5''        2.1280   -1.3678   -2.0460 H         1 GTP        -0.0393
     36 H4'         3.8044   -0.1397   -0.4040 H         1 GTP        -0.0393
     37 H3'         1.6764   -1.7639    0.2728 H         1 GTP        -0.0393
     38 HO3'        2.2232   -1.2979    2.3953 H         1 GTP         0.2010
     39 H2'        -0.0011    0.0027    0.0003 H         1 GTP        -0.0393
     40 HO2'       -0.1563   -0.9855    2.0596 H         1 GTP         0.2010
     41 H1'         1.7826    1.9024    1.6451 H         1 GTP        -0.0393
     42 H8          0.7110    2.3472   -1.9295 H         1 GTP         0.0000
     43 HN1        -2.7504    5.7495    2.3282 H         1 GTP         0.0865
     44 HN21       -1.0467    3.8796    4.7190 H         1 GTP         0.2048
     45 HN22       -2.2294    5.1209    4.3680 H         1 GTP         0.2048
     46 H46        -1.0382    4.1687   -2.0954 H         1 GTP         0.2048
@<TRIPOS>BOND
     1    1    2 2
     2    1    3 1
     3    1    4 1
     4    1    5 1
     5    5    6 1
     6    6    7 2
     7    6    8 1
     8    6    9 1
     9    9   10 1
    10   10   11 2
    11   10   12 1
    12   10   13 1
    13   12   33 1
    14   13   14 1
    15   14   15 1
    16   14   34 1
    17   14   35 1
    18   15   16 1
    19   15   17 1
    20   15   36 1
    21   16   21 1
    22   17   18 1
    23   17   19 1
    24   17   37 1
    25   18   38 1
    26   19   20 1
    27   19   21 1
    28   19   39 1
    29   20   40 1
    30   21   22 1
    31   21   41 1
    32   22   23 ar
    33   22   32 ar
    34   23   24 ar
    35   23   42 1
    36   24   25 ar
    37   24   46 1
    38   25   26 ar
    39   25   32 ar
    40   26   27 2
    41   26   28 ar
    42   28   29 ar
    43   28   43 1
    44   29   30 1
    45   29   31 ar
    46   30   44 1
    47   30   45 1
    48   31   32 ar
@<TRIPOS>SUBSTRUCTURE
     1 GTP         1 GROUP 0 A     ****
@<TRIPOS>MOLECULE
[[[5-(2-amino-6-oxo-7,8-dihydro-1~{H}-purin-8-ylium-9-yl)-3,4-dihydroxy-tetrahydrofuran-2-yl]methoxy-hydroxy-phosphoryl]oxy-oxido-phosphoryl] phosphate
   46    48     1     0     0
SMALL
USER_CHARGES

@<TRIPOS>ATOM
      1 PG          3.5620   -2.4343   -7.5465 P.3       1 GTP        -1.1921
      2 O1G         2.8637   -1.0834   -7.4328 O.co2     1 GTP         0.3195
      3 O2G         4.8847   -2.3977   -8.3041 O.co2     1 GTP         0.3195
      4 O3G         2.6421   -3.5801   -7.9559 O.co2     1 GTP         0.3195
      5 O3B         3.9861   -2.8077   -5.9984 O.3       1 GTP         0.4672
      6 PB          3.0937   -3.0132   -4.6466 P.3       1 GTP        -1.1062
      7 O1B         2.0118   -4.0334   -4.9230 O.co2     1 GTP         0.3195
      8 O2B         4.0376   -3.1792   -3.4760 O.co2     1 GTP         0.3195
      9 O3A         2.4093   -1.5346   -4.5557 O.3       1 GTP         0.4672
     10 PA          3.0905   -0.0736   -4.4161 P.3       1 GTP        -0.9715
     11 O1A         4.3323    0.1046   -5.2408 O.2       1 GTP         0.2707
     12 O2A         1.8889    0.9520   -4.7650 O.3       1 GTP         0.0326
     13 O5'         3.2903    0.1346   -2.8241 O.3       1 GTP         0.1618
     14 C5'         2.2816   -0.2918   -1.9206 C.3       1 GTP         0.1504
     15 C4'         2.7248    0.0226   -0.4980 C.3       1 GTP         0.1111
     16 O4'         2.4697    1.4219   -0.2462 O.3       1 GTP        -0.1436
     17 C3'         1.9404   -0.7419    0.5596 C.3       1 GTP         0.1111
     18 O3'         2.7418   -0.8086    1.7389 O.3       1 GTP        -0.2728
     19 C2'         0.7477    0.1630    0.7858 C.3       1 GTP         0.1111
     20 O2'         0.1373   -0.0577    2.0407 O.3       1 GTP        -0.2728
     21 C1'         1.3733    1.5427    0.6747 C.3       1 GTP         0.2693
     22 N9          0.4520    2.5240    0.1767 N.pl3     1 GTP        -0.3222
     23 C8          0.2203    2.8205   -1.0970 C.ar      1 GTP         0.1640
     24 N7         -0.6947    3.7752   -1.2304 N.pl3     1 GTP        -0.3688
     25 C5         -1.0607    4.0987    0.0476 C.ar      1 GTP         0.0648
     26 C6         -2.0310    5.0839    0.5029 C.ar      1 GTP         0.3597
     27 O6         -2.6779    5.7867   -0.2609 O.2       1 GTP        -0.2755
     28 N1         -2.1030    5.0975    1.8948 N.pl3     1 GTP        -0.1604
     29 C2         -1.3422    4.2721    2.7403 C.ar      1 GTP         0.4468
     30 N2         -1.5624    4.4419    4.0823 N.pl3     1 GTP        -0.5618
     31 N3         -0.4796    3.3981    2.2792 N.2       1 GTP        -0.4283
     32 C4         -0.3754    3.3496    0.9208 C.ar      1 GTP         0.2226
     33 HOA2        2.0444    1.9156   -4.6681 H         1 GTP         0.2010
     34 H5'         1.3514    0.2330   -2.1577 H         1 GTP        -0.0393
     35 H5''        2.1280   -1.3678   -2.0460 H         1 GTP        -0.0393
     36 H4'         3.8044   -0.1397   -0.4040 H         1 GTP        -0.0393
     37 H3'         1.6764   -1.7639    0.2728 H         1 GTP        -0.0393
     38 HO3'        3.5554   -1.2733    1.4914 H         1 GTP         0.2010
     39 H2'        -0.0011    0.0027    0.0003 H         1 GTP        -0.0393
     40 HO2'       -0.1563   -0.9855    2.0596 H         1 GTP         0.2010
     41 H1'         1.7826    1.9024    1.6451 H         1 GTP        -0.0393
     42 H8          0.7110    2.3472   -1.9295 H         1 GTP         0.0000
     43 HN1        -2.7504    5.7495    2.3282 H         1 GTP         0.0865
     44 HN21       -1.0467    3.8796    4.7190 H         1 GTP         0.2048
     45 HN22       -2.2294    5.1209    4.3680 H         1 GTP         0.2048
     46 H46        -1.0382    4.1687   -2.0954 H         1 GTP         0.2048
@<TRIPOS>BOND
     1    1    2 2
     2    1    3 1
     3    1    4 1
     4    1    5 1
     5    5    6 1
     6    6    7 2
     7    6    8 1
     8    6    9 1
     9    9   10 1
    10   10   11 2
    11   10   12 1
    12   10   13 1
    13   12   33 1
    14   13   14 1
    15   14   15 1
    16   14   34 1
    17   14   35 1
    18   15   16 1
    19   15   17 1
    20   15   36 1
    21   16   21 1
    22   17   18 1
    23   17   19 1
    24   17   37 1
    25   18   38 1
    26   19   20 1
    27   19   21 1
    28   19   39 1
    29   20   40 1
    30   21   22 1
    31   21   41 1
    32   22   23 ar
    33   22   32 ar
    34   23   24 ar
    35   23   42 1
    36   24   25 ar
    37   24   46 1
    38   25   26 ar
    39   25   32 ar
    40   26   27 2
    41   26   28 ar
    42   28   29 ar
    43   28   43 1
    44   29   30 1
    45   29   31 ar
    46   30   44 1
    47   30   45 1
    48   31   32 ar
@<TRIPOS>SUBSTRUCTURE
     1 GTP         1 GROUP 0 A     ****
@<TRIPOS>MOLECULE
[[[5-(2-amino-6-oxo-7,8-dihydro-1~{H}-purin-8-ylium-9-yl)-3,4-dihydroxy-tetrahydrofuran-2-yl]methoxy-hydroxy-phosphoryl]oxy-oxido-phosphoryl] phosphate
   46    48     1     0     0
SMALL
USER_CHARGES

@<TRIPOS>ATOM
      1 PG         -1.3432   -4.1042   -3.3279 P.3       1 GTP        -1.1921
      2 O1G        -2.7021   -3.4213   -3.2146 O.co2     1 GTP         0.3195
      3 O2G        -1.4123   -5.6099   -3.5578 O.co2     1 GTP         0.3195
      4 O3G        -0.3420   -3.6838   -2.2567 O.co2     1 GTP         0.3195
      5 O3B        -0.6990   -3.5055   -4.7215 O.3       1 GTP         0.4672
      6 PB         -0.3395   -1.9820   -5.1861 P.3       1 GTP        -1.1062
      7 O1B         0.3808   -2.0311   -6.5151 O.co2     1 GTP         0.3195
      8 O2B        -1.5735   -1.1264   -5.0021 O.co2     1 GTP         0.3195
      9 O3A         0.7363   -1.5984   -4.0205 O.3       1 GTP         0.4672
     10 PA          2.1490   -2.2861   -3.6338 P.3       1 GTP        -0.9715
     11 O1A         2.1379   -3.7860   -3.6973 O.2       1 GTP         0.2707
     12 O2A         3.2137   -1.5710   -4.6200 O.3       1 GTP         0.0326
     13 O5'         2.5245   -1.6648   -2.1878 O.3       1 GTP         0.1618
     14 C5'         2.2816   -0.2918   -1.9206 C.3       1 GTP         0.1504
     15 C4'         2.7248    0.0226   -0.4980 C.3       1 GTP         0.1111
     16 O4'         2.4697    1.4219   -0.2462 O.3       1 GTP        -0.1436
     17 C3'         1.9404   -0.7419    0.5596 C.3       1 GTP         0.1111
     18 O3'         2.7418   -0.8086    1.7389 O.3       1 GTP        -0.2728
     19 C2'         0.7477    0.1630    0.7858 C.3       1 GTP         0.1111
     20 O2'         0.1373   -0.0577    2.0407 O.3       1 GTP        -0.2728
     21 C1'         1.3733    1.5427    0.6747 C.3       1 GTP         0.2693
     22 N9          0.4520    2.5240    0.1767 N.pl3     1 GTP        -0.3222
     23 C8          0.2203    2.8205   -1.0970 C.ar      1 GTP         0.1640
     24 N7         -0.6947    3.7752   -1.2304 N.pl3     1 GTP        -0.3688
     25 C5         -1.0607    4.0987    0.0476 C.ar      1 GTP         0.0648
     26 C6         -2.0310    5.0839    0.5029 C.ar      1 GTP         0.3597
     27 O6         -2.6779    5.7867   -0.2609 O.2       1 GTP        -0.2755
     28 N1         -2.1030    5.0975    1.8948 N.pl3     1 GTP        -0.1604
     29 C2         -1.3422    4.2721    2.7403 C.ar      1 GTP         0.4468
     30 N2         -1.5624    4.4419    4.0823 N.pl3     1 GTP        -0.5618
     31 N3         -0.4796    3.3981    2.2792 N.2       1 GTP        -0.4283
     32 C4         -0.3754    3.3496    0.9208 C.ar      1 GTP         0.2226
     33 HOA2        3.1390   -1.7196   -5.5866 H         1 GTP         0.2010
     34 H5'         2.8432    0.3119   -2.6398 H         1 GTP        -0.0393
     35 H5''        1.2128   -0.0927   -2.0428 H         1 GTP        -0.0393
     36 H4'         3.8044   -0.1397   -0.4040 H         1 GTP        -0.0393
     37 H3'         1.6764   -1.7639    0.2728 H         1 GTP        -0.0393
     38 HO3'        3.5554   -1.2733    1.4914 H         1 GTP         0.2010
     39 H2'        -0.0011    0.0027    0.0003 H         1 GTP        -0.0393
     40 HO2'       -0.1563   -0.9855    2.0596 H         1 GTP         0.2010
     41 H1'         1.7826    1.9024    1.6451 H         1 GTP        -0.0393
     42 H8          0.7110    2.3472   -1.9295 H         1 GTP         0.0000
     43 HN1        -2.7504    5.7495    2.3282 H         1 GTP         0.0865
     44 HN21       -1.0467    3.8796    4.7190 H         1 GTP         0.2048
     45 HN22       -2.2294    5.1209    4.3680 H         1 GTP         0.2048
     46 H46        -1.0382    4.1687   -2.0954 H         1 GTP         0.2048
@<TRIPOS>BOND
     1    1    2 2
     2    1    3 1
     3    1    4 1
     4    1    5 1
     5    5    6 1
     6    6    7 2
     7    6    8 1
     8    6    9 1
     9    9   10 1
    10   10   11 2
    11   10   12 1
    12   10   13 1
    13   12   33 1
    14   13   14 1
    15   14   15 1
    16   14   34 1
    17   14   35 1
    18   15   16 1
    19   15   17 1
    20   15   36 1
    21   16   21 1
    22   17   18 1
    23   17   19 1
    24   17   37 1
    25   18   38 1
    26   19   20 1
    27   19   21 1
    28   19   39 1
    29   20   40 1
    30   21   22 1
    31   21   41 1
    32   22   23 ar
    33   22   32 ar
    34   23   24 ar
    35   23   42 1
    36   24   25 ar
    37   24   46 1
    38   25   26 ar
    39   25   32 ar
    40   26   27 2
    41   26   28 ar
    42   28   29 ar
    43   28   43 1
    44   29   30 1
    45   29   31 ar
    46   30   44 1
    47   30   45 1
    48   31   32 ar
@<TRIPOS>SUBSTRUCTURE
     1 GTP         1 GROUP 0 A     ****
@<TRIPOS>MOLECULE
[[[5-(2-amino-6-oxo-7,8-dihydro-1~{H}-purin-8-ylium-9-yl)-3,4-dihydroxy-tetrahydrofuran-2-yl]methoxy-hydroxy-phosphoryl]oxy-oxido-phosphoryl] phosphate
   46    48     1     0     0
SMALL
USER_CHARGES

@<TRIPOS>ATOM
      1 PG          8.0321   -1.9200   -1.3097 P.3       1 GTP        -1.1921
      2 O1G         7.6176   -0.4773   -1.0403 O.co2     1 GTP         0.3195
      3 O2G         8.0942   -2.8000   -0.0661 O.co2     1 GTP         0.3195
      4 O3G         9.2382   -2.0612   -2.2326 O.co2     1 GTP         0.3195
      5 O3B         6.7890   -2.5450   -2.1928 O.3       1 GTP         0.4672
      6 PB          6.1541   -2.1123   -3.6336 P.3       1 GTP        -1.1062
      7 O1B         7.1995   -1.3569   -4.4236 O.co2     1 GTP         0.3195
      8 O2B         5.4536   -3.3161   -4.2240 O.co2     1 GTP         0.3195
      9 O3A         5.0231   -1.0558   -3.1161 O.3       1 GTP         0.4672
     10 PA          3.9517   -0.1778   -3.9522 P.3       1 GTP        -0.9715
     11 O1A         4.5722    0.7720   -4.9354 O.2       1 GTP         0.2707
     12 O2A         2.9652   -1.2826   -4.6031 O.3       1 GTP         0.0326
     13 O5'         3.0213    0.5153   -2.8245 O.3       1 GTP         0.1618
     14 C5'         2.2816   -0.2918   -1.9206 C.3       1 GTP         0.1504
     15 C4'         2.7248    0.0226   -0.4980 C.3       1 GTP         0.1111
     16 O4'         2.4697    1.4219   -0.2462 O.3       1 GTP        -0.1436
     17 C3'         1.9404   -0.7419    0.5596 C.3       1 GTP         0.1111
     18 O3'         2.7418   -0.8086    1.7389 O.3       1 GTP        -0.2728
     19 C2'         0.7477    0.1630    0.7858 C.3       1 GTP         0.1111
     20 O2'         0.1373   -0.0577    2.0407 O.3       1 GTP        -0.2728
     21 C1'         1.3733    1.5427    0.6747 C.3       1 GTP         0.2693
     22 N9          0.4520    2.5240    0.1767 N.pl3     1 GTP        -0.3222
     23 C8          0.2203    2.8205   -1.0970 C.ar      1 GTP         0.1640
     24 N7         -0.6947    3.7752   -1.2304 N.pl3     1 GTP        -0.3688
     25 C5         -1.0607    4.0987    0.0476 C.ar      1 GTP         0.0648
     26 C6         -2.0310    5.0839    0.5029 C.ar      1 GTP         0.3597
     27 O6         -2.6779    5.7867   -0.2609 O.2       1 GTP        -0.2755
     28 N1         -2.1030    5.0975    1.8948 N.pl3     1 GTP        -0.1604
     29 C2         -1.3422    4.2721    2.7403 C.ar      1 GTP         0.4468
     30 N2         -1.5624    4.4419    4.0823 N.pl3     1 GTP        -0.5618
     31 N3         -0.4796    3.3981    2.2792 N.2       1 GTP        -0.4283
     32 C4         -0.3754    3.3496    0.9208 C.ar      1 GTP         0.2226
     33 HOA2        3.3251   -1.9067   -5.2687 H         1 GTP         0.2010
     34 H5'         1.2163   -0.0770   -2.0471 H         1 GTP        -0.0393
     35 H5''        2.4655   -1.3443   -2.1563 H         1 GTP        -0.0393
     36 H4'         3.8044   -0.1397   -0.4040 H         1 GTP        -0.0393
     37 H3'         1.6764   -1.7639    0.2728 H         1 GTP        -0.0393
     38 HO3'        3.5554   -1.2733    1.4914 H         1 GTP         0.2010
     39 H2'        -0.0011    0.0027    0.0003 H         1 GTP        -0.0393
     40 HO2'       -0.1563   -0.9855    2.0596 H         1 GTP         0.2010
     41 H1'         1.7826    1.9024    1.6451 H         1 GTP        -0.0393
     42 H8          0.7110    2.3472   -1.9295 H         1 GTP         0.0000
     43 HN1        -2.7504    5.7495    2.3282 H         1 GTP         0.0865
     44 HN21       -1.0467    3.8796    4.7190 H         1 GTP         0.2048
     45 HN22       -2.2294    5.1209    4.3680 H         1 GTP         0.2048
     46 H46        -1.0382    4.1687   -2.0954 H         1 GTP         0.2048
@<TRIPOS>BOND
     1    1    2 2
     2    1    3 1
     3    1    4 1
     4    1    5 1
     5    5    6 1
     6    6    7 2
     7    6    8 1
     8    6    9 1
     9    9   10 1
    10   10   11 2
    11   10   12 1
    12   10   13 1
    13   12   33 1
    14   13   14 1
    15   14   15 1
    16   14   34 1
    17   14   35 1
    18   15   16 1
    19   15   17 1
    20   15   36 1
    21   16   21 1
    22   17   18 1
    23   17   19 1
    24   17   37 1
    25   18   38 1
    26   19   20 1
    27   19   21 1
    28   19   39 1
    29   20   40 1
    30   21   22 1
    31   21   41 1
    32   22   23 ar
    33   22   32 ar
    34   23   24 ar
    35   23   42 1
    36   24   25 ar
    37   24   46 1
    38   25   26 ar
    39   25   32 ar
    40   26   27 2
    41   26   28 ar
    42   28   29 ar
    43   28   43 1
    44   29   30 1
    45   29   31 ar
    46   30   44 1
    47   30   45 1
    48   31   32 ar
@<TRIPOS>SUBSTRUCTURE
     1 GTP         1 GROUP 0 A     ****
@<TRIPOS>MOLECULE
[[[5-(2-amino-6-oxo-7,8-dihydro-1~{H}-purin-8-ylium-9-yl)-3,4-dihydroxy-tetrahydrofuran-2-yl]methoxy-hydroxy-phosphoryl]oxy-oxido-phosphoryl] phosphate
   46    48     1     0     0
SMALL
USER_CHARGES

@<TRIPOS>ATOM
      1 PG          9.0591   -0.8335   -3.9446 P.3       1 GTP        -1.1921
      2 O1G         9.6536   -1.7244   -2.8590 O.co2     1 GTP         0.3195
      3 O2G         9.3063   -1.3240   -5.3670 O.co2     1 GTP         0.3195
      4 O3G         9.3241    0.6553   -3.7450 O.co2     1 GTP         0.3195
      5 O3B         7.4296   -0.9712   -3.7405 O.3       1 GTP         0.4672
      6 PB          6.4607   -0.6311   -2.4711 P.3       1 GTP        -1.1062
      7 O1B         6.7845   -1.5799   -1.3385 O.co2     1 GTP         0.3195
      8 O2B         6.4681    0.8664   -2.2565 O.co2     1 GTP         0.3195
      9 O3A         5.0231   -1.0558   -3.1161 O.3       1 GTP         0.4672
     10 PA          3.9517   -0.1778   -3.9522 P.3       1 GTP        -0.9715
     11 O1A         4.5722    0.7720   -4.9354 O.2       1 GTP         0.2707
     12 O2A         2.9652   -1.2826   -4.6031 O.3       1 GTP         0.0326
     13 O5'         3.0213    0.5153   -2.8245 O.3       1 GTP         0.1618
     14 C5'         2.2816   -0.2918   -1.9206 C.3       1 GTP         0.1504
     15 C4'         2.7248    0.0226   -0.4980 C.3       1 GTP         0.1111
     16 O4'         2.4697    1.4219   -0.2462 O.3       1 GTP        -0.1436
     17 C3'         1.9404   -0.7419    0.5596 C.3       1 GTP         0.1111
     18 O3'         2.7418   -0.8086    1.7389 O.3       1 GTP        -0.2728
     19 C2'         0.7477    0.1630    0.7858 C.3       1 GTP         0.1111
     20 O2'         0.1373   -0.0577    2.0407 O.3       1 GTP        -0.2728
     21 C1'         1.3733    1.5427    0.6747 C.3       1 GTP         0.2693
     22 N9          0.4520    2.5240    0.1767 N.pl3     1 GTP        -0.3222
     23 C8          0.2203    2.8205   -1.0970 C.ar      1 GTP         0.1640
     24 N7         -0.6947    3.7752   -1.2304 N.pl3     1 GTP        -0.3688
     25 C5         -1.0607    4.0987    0.0476 C.ar      1 GTP         0.0648
     26 C6         -2.0310    5.0839    0.5029 C.ar      1 GTP         0.3597
     27 O6         -2.6779    5.7867   -0.2609 O.2       1 GTP        -0.2755
     28 N1         -2.1030    5.0975    1.8948 N.pl3     1 GTP        -0.1604
     29 C2         -1.3422    4.2721    2.7403 C.ar      1 GTP         0.4468
     30 N2         -1.5624    4.4419    4.0823 N.pl3     1 GTP        -0.5618
     31 N3         -0.4796    3.3981    2.2792 N.2       1 GTP        -0.4283
     32 C4         -0.3754    3.3496    0.9208 C.ar      1 GTP         0.2226
     33 HOA2        3.3251   -1.9067   -5.2687 H         1 GTP         0.2010
     34 H5'         1.2163   -0.0770   -2.0471 H         1 GTP        -0.0393
     35 H5''        2.4655   -1.3443   -2.1563 H         1 GTP        -0.0393
     36 H4'         3.8044   -0.1397   -0.4040 H         1 GTP        -0.0393
     37 H3'         1.6764   -1.7639    0.2728 H         1 GTP        -0.0393
     38 HO3'        2.2232   -1.2979    2.3953 H         1 GTP         0.2010
     39 H2'        -0.0011    0.0027    0.0003 H         1 GTP        -0.0393
     40 HO2'       -0.6141    0.5574    2.1082 H         1 GTP         0.2010
     41 H1'         1.7826    1.9024    1.6451 H         1 GTP        -0.0393
     42 H8          0.7110    2.3472   -1.9295 H         1 GTP         0.0000
     43 HN1        -2.7504    5.7495    2.3282 H         1 GTP         0.0865
     44 HN21       -1.0467    3.8796    4.7190 H         1 GTP         0.2048
     45 HN22       -2.2294    5.1209    4.3680 H         1 GTP         0.2048
     46 H46        -1.0382    4.1687   -2.0954 H         1 GTP         0.2048
@<TRIPOS>BOND
     1    1    2 2
     2    1    3 1
     3    1    4 1
     4    1    5 1
     5    5    6 1
     6    6    7 2
     7    6    8 1
     8    6    9 1
     9    9   10 1
    10   10   11 2
    11   10   12 1
    12   10   13 1
    13   12   33 1
    14   13   14 1
    15   14   15 1
    16   14   34 1
    17   14   35 1
    18   15   16 1
    19   15   17 1
    20   15   36 1
    21   16   21 1
    22   17   18 1
    23   17   19 1
    24   17   37 1
    25   18   38 1
    26   19   20 1
    27   19   21 1
    28   19   39 1
    29   20   40 1
    30   21   22 1
    31   21   41 1
    32   22   23 ar
    33   22   32 ar
    34   23   24 ar
    35   23   42 1
    36   24   25 ar
    37   24   46 1
    38   25   26 ar
    39   25   32 ar
    40   26   27 2
    41   26   28 ar
    42   28   29 ar
    43   28   43 1
    44   29   30 1
    45   29   31 ar
    46   30   44 1
    47   30   45 1
    48   31   32 ar
@<TRIPOS>SUBSTRUCTURE
     1 GTP         1 GROUP 0 A     ****
@<TRIPOS>MOLECULE
[[[5-(2-amino-6-oxo-7,8-dihydro-1~{H}-purin-8-ylium-9-yl)-3,4-dihydroxy-tetrahydrofuran-2-yl]methoxy-hydroxy-phosphoryl]oxy-oxido-phosphoryl] phosphate
   46    48     1     0     0
SMALL
USER_CHARGES

@<TRIPOS>ATOM
      1 PG          3.4544   -4.0802   -7.6302 P.3       1 GTP        -1.1921
      2 O1G         3.1165   -3.2446   -8.8604 O.co2     1 GTP         0.3195
      3 O2G         4.9299   -4.4426   -7.5010 O.co2     1 GTP         0.3195
      4 O3G         2.5035   -5.2481   -7.3882 O.co2     1 GTP         0.3195
      5 O3B         3.1667   -3.0721   -6.3587 O.3       1 GTP         0.4672
      6 PB          1.8142   -2.2998   -5.8684 P.3       1 GTP        -1.1062
      7 O1B         1.4368   -1.2649   -6.9049 O.co2     1 GTP         0.3195
      8 O2B         0.8154   -3.3386   -5.4081 O.co2     1 GTP         0.3195
      9 O3A         2.4093   -1.5346   -4.5557 O.3       1 GTP         0.4672
     10 PA          3.0905   -0.0736   -4.4161 P.3       1 GTP        -0.9715
     11 O1A         4.3323    0.1046   -5.2408 O.2       1 GTP         0.2707
     12 O2A         1.8889    0.9520   -4.7650 O.3       1 GTP         0.0326
     13 O5'         3.2903    0.1346   -2.8241 O.3       1 GTP         0.1618
     14 C5'         2.2816   -0.2918   -1.9206 C.3       1 GTP         0.1504
     15 C4'         2.7248    0.0226   -0.4980 C.3       1 GTP         0.1111
     16 O4'         2.4697    1.4219   -0.2462 O.3       1 GTP        -0.1436
     17 C3'         1.9404   -0.7419    0.5596 C.3       1 GTP         0.1111
     18 O3'         2.7418   -0.8086    1.7389 O.3       1 GTP        -0.2728
     19 C2'         0.7477    0.1630    0.7858 C.3       1 GTP         0.1111
     20 O2'         0.1373   -0.0577    2.0407 O.3       1 GTP        -0.2728
     21 C1'         1.3733    1.5427    0.6747 C.3       1 GTP         0.2693
     22 N9          0.4520    2.5240    0.1767 N.pl3     1 GTP        -0.3222
     23 C8          0.2203    2.8205   -1.0970 C.ar      1 GTP         0.1640
     24 N7         -0.6947    3.7752   -1.2304 N.pl3     1 GTP        -0.3688
     25 C5         -1.0607    4.0987    0.0476 C.ar      1 GTP         0.0648
     26 C6         -2.0310    5.0839    0.5029 C.ar      1 GTP         0.3597
     27 O6         -2.6779    5.7867   -0.2609 O.2       1 GTP        -0.2755
     28 N1         -2.1030    5.0975    1.8948 N.pl3     1 GTP        -0.1604
     29 C2         -1.3422    4.2721    2.7403 C.ar      1 GTP         0.4468
     30 N2         -1.5624    4.4419    4.0823 N.pl3     1 GTP        -0.5618
     31 N3         -0.4796    3.3981    2.2792 N.2       1 GTP        -0.4283
     32 C4         -0.3754    3.3496    0.9208 C.ar      1 GTP         0.2226
     33 HOA2        1.5156    0.9546   -5.6720 H         1 GTP         0.2010
     34 H5'         1.3514    0.2330   -2.1577 H         1 GTP        -0.0393
     35 H5''        2.1280   -1.3678   -2.0460 H         1 GTP        -0.0393
     36 H4'         3.8044   -0.1397   -0.4040 H         1 GTP        -0.0393
     37 H3'         1.6764   -1.7639    0.2728 H         1 GTP        -0.0393
     38 HO3'        3.5554   -1.2733    1.4914 H         1 GTP         0.2010
     39 H2'        -0.0011    0.0027    0.0003 H         1 GTP        -0.0393
     40 HO2'       -0.6141    0.5574    2.1082 H         1 GTP         0.2010
     41 H1'         1.7826    1.9024    1.6451 H         1 GTP        -0.0393
     42 H8          0.7110    2.3472   -1.9295 H         1 GTP         0.0000
     43 HN1        -2.7504    5.7495    2.3282 H         1 GTP         0.0865
     44 HN21       -1.0467    3.8796    4.7190 H         1 GTP         0.2048
     45 HN22       -2.2294    5.1209    4.3680 H         1 GTP         0.2048
     46 H46        -1.0382    4.1687   -2.0954 H         1 GTP         0.2048
@<TRIPOS>BOND
     1    1    2 2
     2    1    3 1
     3    1    4 1
     4    1    5 1
     5    5    6 1
     6    6    7 2
     7    6    8 1
     8    6    9 1
     9    9   10 1
    10   10   11 2
    11   10   12 1
    12   10   13 1
    13   12   33 1
    14   13   14 1
    15   14   15 1
    16   14   34 1
    17   14   35 1
    18   15   16 1
    19   15   17 1
    20   15   36 1
    21   16   21 1
    22   17   18 1
    23   17   19 1
    24   17   37 1
    25   18   38 1
    26   19   20 1
    27   19   21 1
    28   19   39 1
    29   20   40 1
    30   21   22 1
    31   21   41 1
    32   22   23 ar
    33   22   32 ar
    34   23   24 ar
    35   23   42 1
    36   24   25 ar
    37   24   46 1
    38   25   26 ar
    39   25   32 ar
    40   26   27 2
    41   26   28 ar
    42   28   29 ar
    43   28   43 1
    44   29   30 1
    45   29   31 ar
    46   30   44 1
    47   30   45 1
    48   31   32 ar
@<TRIPOS>SUBSTRUCTURE
     1 GTP         1 GROUP 0 A     ****
@<TRIPOS>MOLECULE
[[[5-(2-amino-6-oxo-7,8-dihydro-1~{H}-purin-8-ylium-9-yl)-3,4-dihydroxy-tetrahydrofuran-2-yl]methoxy-hydroxy-phosphoryl]oxy-oxido-phosphoryl] phosphate
   46    48     1     0     0
SMALL
USER_CHARGES

@<TRIPOS>ATOM
      1 PG          2.7560   -4.2483   -3.9066 P.3       1 GTP        -1.1921
      2 O1G         3.1835   -4.9866   -5.1706 O.co2     1 GTP         0.3195
      3 O2G         3.7756   -4.2963   -2.7739 O.co2     1 GTP         0.3195
      4 O3G         1.3244   -4.5390   -3.4676 O.co2     1 GTP         0.3195
      5 O3B         2.7133   -2.6626   -4.3532 O.3       1 GTP         0.4672
      6 PB          1.8519   -1.8785   -5.4975 P.3       1 GTP        -1.1062
      7 O1B         2.6992   -1.7432   -6.7430 O.co2     1 GTP         0.3195
      8 O2B         0.4725   -2.4966   -5.5594 O.co2     1 GTP         0.3195
      9 O3A         1.7338   -0.4165   -4.7823 O.3       1 GTP         0.4672
     10 PA          2.8890    0.6159   -4.3157 P.3       1 GTP        -0.9715
     11 O1A         4.0363    0.7269   -5.2776 O.2       1 GTP         0.2707
     12 O2A         2.0915    1.9974   -4.0454 O.3       1 GTP         0.0326
     13 O5'         3.2903    0.1346   -2.8241 O.3       1 GTP         0.1618
     14 C5'         2.2816   -0.2918   -1.9206 C.3       1 GTP         0.1504
     15 C4'         2.7248    0.0226   -0.4980 C.3       1 GTP         0.1111
     16 O4'         2.4697    1.4219   -0.2462 O.3       1 GTP        -0.1436
     17 C3'         1.9404   -0.7419    0.5596 C.3       1 GTP         0.1111
     18 O3'         2.7418   -0.8086    1.7389 O.3       1 GTP        -0.2728
     19 C2'         0.7477    0.1630    0.7858 C.3       1 GTP         0.1111
     20 O2'         0.1373   -0.0577    2.0407 O.3       1 GTP        -0.2728
     21 C1'         1.3733    1.5427    0.6747 C.3       1 GTP         0.2693
     22 N9          0.4520    2.5240    0.1767 N.pl3     1 GTP        -0.3222
     23 C8          0.2203    2.8205   -1.0970 C.ar      1 GTP         0.1640
     24 N7         -0.6947    3.7752   -1.2304 N.pl3     1 GTP        -0.3688
     25 C5         -1.0607    4.0987    0.0476 C.ar      1 GTP         0.0648
     26 C6         -2.0310    5.0839    0.5029 C.ar      1 GTP         0.3597
     27 O6         -2.6779    5.7867   -0.2609 O.2       1 GTP        -0.2755
     28 N1         -2.1030    5.0975    1.8948 N.pl3     1 GTP        -0.1604
     29 C2         -1.3422    4.2721    2.7403 C.ar      1 GTP         0.4468
     30 N2         -1.5624    4.4419    4.0823 N.pl3     1 GTP        -0.5618
     31 N3         -0.4796    3.3981    2.2792 N.2       1 GTP        -0.4283
     32 C4         -0.3754    3.3496    0.9208 C.ar      1 GTP         0.2226
     33 HOA2        2.5795    2.7616   -3.6715 H         1 GTP         0.2010
     34 H5'         1.3514    0.2330   -2.1577 H         1 GTP        -0.0393
     35 H5''        2.1280   -1.3678   -2.0460 H         1 GTP        -0.0393
     36 H4'         3.8044   -0.1397   -0.4040 H         1 GTP        -0.0393
     37 H3'         1.6764   -1.7639    0.2728 H         1 GTP        -0.0393
     38 HO3'        3.5554   -1.2733    1.4914 H         1 GTP         0.2010
     39 H2'        -0.0011    0.0027    0.0003 H         1 GTP        -0.0393
     40 HO2'       -0.6141    0.5574    2.1082 H         1 GTP         0.2010
     41 H1'         1.7826    1.9024    1.6451 H         1 GTP        -0.0393
     42 H8          0.7110    2.3472   -1.9295 H         1 GTP         0.0000
     43 HN1        -2.7504    5.7495    2.3282 H         1 GTP         0.0865
     44 HN21       -1.0467    3.8796    4.7190 H         1 GTP         0.2048
     45 HN22       -2.2294    5.1209    4.3680 H         1 GTP         0.2048
     46 H46        -1.0382    4.1687   -2.0954 H         1 GTP         0.2048
@<TRIPOS>BOND
     1    1    2 2
     2    1    3 1
     3    1    4 1
     4    1    5 1
     5    5    6 1
     6    6    7 2
     7    6    8 1
     8    6    9 1
     9    9   10 1
    10   10   11 2
    11   10   12 1
    12   10   13 1
    13   12   33 1
    14   13   14 1
    15   14   15 1
    16   14   34 1
    17   14   35 1
    18   15   16 1
    19   15   17 1
    20   15   36 1
    21   16   21 1
    22   17   18 1
    23   17   19 1
    24   17   37 1
    25   18   38 1
    26   19   20 1
    27   19   21 1
    28   19   39 1
    29   20   40 1
    30   21   22 1
    31   21   41 1
    32   22   23 ar
    33   22   32 ar
    34   23   24 ar
    35   23   42 1
    36   24   25 ar
    37   24   46 1
    38   25   26 ar
    39   25   32 ar
    40   26   27 2
    41   26   28 ar
    42   28   29 ar
    43   28   43 1
    44   29   30 1
    45   29   31 ar
    46   30   44 1
    47   30   45 1
    48   31   32 ar
@<TRIPOS>SUBSTRUCTURE
     1 GTP         1 GROUP 0 A     ****
@<TRIPOS>MOLECULE
[[[5-(2-amino-6-oxo-7,8-dihydro-1~{H}-purin-8-ylium-9-yl)-3,4-dihydroxy-tetrahydrofuran-2-yl]methoxy-hydroxy-phosphoryl]oxy-oxido-phosphoryl] phosphate
   46    48     1     0     0
SMALL
USER_CHARGES

@<TRIPOS>ATOM
      1 PG          0.6141   -0.8738   -8.2116 P.3       1 GTP        -1.1921
      2 O1G        -0.6930   -1.6456   -8.0653 O.co2     1 GTP         0.3195
      3 O2G         0.4395    0.6265   -8.4202 O.co2     1 GTP         0.3195
      4 O3G         1.6186   -1.5210   -9.1597 O.co2     1 GTP         0.3195
      5 O3B         1.3328   -1.0018   -6.7341 O.3       1 GTP         0.4672
      6 PB          1.8142   -2.2998   -5.8684 P.3       1 GTP        -1.1062
      7 O1B         0.5951   -3.0947   -5.4566 O.co2     1 GTP         0.3195
      8 O2B         2.9610   -2.9600   -6.6016 O.co2     1 GTP         0.3195
      9 O3A         2.4093   -1.5346   -4.5557 O.3       1 GTP         0.4672
     10 PA          3.0905   -0.0736   -4.4161 P.3       1 GTP        -0.9715
     11 O1A         4.3323    0.1046   -5.2408 O.2       1 GTP         0.2707
     12 O2A         1.8889    0.9520   -4.7650 O.3       1 GTP         0.0326
     13 O5'         3.2903    0.1346   -2.8241 O.3       1 GTP         0.1618
     14 C5'         2.2816   -0.2918   -1.9206 C.3       1 GTP         0.1504
     15 C4'         2.7248    0.0226   -0.4980 C.3       1 GTP         0.1111
     16 O4'         2.4697    1.4219   -0.2462 O.3       1 GTP        -0.1436
     17 C3'         1.9404   -0.7419    0.5596 C.3       1 GTP         0.1111
     18 O3'         2.7418   -0.8086    1.7389 O.3       1 GTP        -0.2728
     19 C2'         0.7477    0.1630    0.7858 C.3       1 GTP         0.1111
     20 O2'         0.1373   -0.0577    2.0407 O.3       1 GTP        -0.2728
     21 C1'         1.3733    1.5427    0.6747 C.3       1 GTP         0.2693
     22 N9          0.4520    2.5240    0.1767 N.pl3     1 GTP        -0.3222
     23 C8          0.2203    2.8205   -1.0970 C.ar      1 GTP         0.1640
     24 N7         -0.6947    3.7752   -1.2304 N.pl3     1 GTP        -0.3688
     25 C5         -1.0607    4.0987    0.0476 C.ar      1 GTP         0.0648
     26 C6         -2.0310    5.0839    0.5029 C.ar      1 GTP         0.3597
     27 O6         -2.6779    5.7867   -0.2609 O.2       1 GTP        -0.2755
     28 N1         -2.1030    5.0975    1.8948 N.pl3     1 GTP        -0.1604
     29 C2         -1.3422    4.2721    2.7403 C.ar      1 GTP         0.4468
     30 N2         -1.5624    4.4419    4.0823 N.pl3     1 GTP        -0.5618
     31 N3         -0.4796    3.3981    2.2792 N.2       1 GTP        -0.4283
     32 C4         -0.3754    3.3496    0.9208 C.ar      1 GTP         0.2226
     33 HOA2        2.0444    1.9156   -4.6681 H         1 GTP         0.2010
     34 H5'         1.3514    0.2330   -2.1577 H         1 GTP        -0.0393
     35 H5''        2.1280   -1.3678   -2.0460 H         1 GTP        -0.0393
     36 H4'         3.8044   -0.1397   -0.4040 H         1 GTP        -0.0393
     37 H3'         1.6764   -1.7639    0.2728 H         1 GTP        -0.0393
     38 HO3'        2.2232   -1.2979    2.3953 H         1 GTP         0.2010
     39 H2'        -0.0011    0.0027    0.0003 H         1 GTP        -0.0393
     40 HO2'       -0.1563   -0.9855    2.0596 H         1 GTP         0.2010
     41 H1'         1.7826    1.9024    1.6451 H         1 GTP        -0.0393
     42 H8          0.7110    2.3472   -1.9295 H         1 GTP         0.0000
     43 HN1        -2.7504    5.7495    2.3282 H         1 GTP         0.0865
     44 HN21       -1.0467    3.8796    4.7190 H         1 GTP         0.2048
     45 HN22       -2.2294    5.1209    4.3680 H         1 GTP         0.2048
     46 H46        -1.0382    4.1687   -2.0954 H         1 GTP         0.2048
@<TRIPOS>BOND
     1    1    2 2
     2    1    3 1
     3    1    4 1
     4    1    5 1
     5    5    6 1
     6    6    7 2
     7    6    8 1
     8    6    9 1
     9    9   10 1
    10   10   11 2
    11   10   12 1
    12   10   13 1
    13   12   33 1
    14   13   14 1
    15   14   15 1
    16   14   34 1
    17   14   35 1
    18   15   16 1
    19   15   17 1
    20   15   36 1
    21   16   21 1
    22   17   18 1
    23   17   19 1
    24   17   37 1
    25   18   38 1
    26   19   20 1
    27   19   21 1
    28   19   39 1
    29   20   40 1
    30   21   22 1
    31   21   41 1
    32   22   23 ar
    33   22   32 ar
    34   23   24 ar
    35   23   42 1
    36   24   25 ar
    37   24   46 1
    38   25   26 ar
    39   25   32 ar
    40   26   27 2
    41   26   28 ar
    42   28   29 ar
    43   28   43 1
    44   29   30 1
    45   29   31 ar
    46   30   44 1
    47   30   45 1
    48   31   32 ar
@<TRIPOS>SUBSTRUCTURE
     1 GTP         1 GROUP 0 A     ****
@<TRIPOS>MOLECULE
[[[5-(2-amino-6-oxo-7,8-dihydro-1~{H}-purin-8-ylium-9-yl)-3,4-dihydroxy-tetrahydrofuran-2-yl]methoxy-hydroxy-phosphoryl]oxy-oxido-phosphoryl] phosphate
   46    48     1     0     0
SMALL
USER_CHARGES

@<TRIPOS>ATOM
      1 PG         -3.3297   -3.0315   -4.7656 P.3       1 GTP        -1.1921
      2 O1G        -3.1355   -4.3018   -5.5867 O.co2     1 GTP         0.3195
      3 O2G        -4.1376   -3.2255   -3.4870 O.co2     1 GTP         0.3195
      4 O3G        -3.7464   -1.8152   -5.5862 O.co2     1 GTP         0.3195
      5 O3B        -1.8156   -2.6482   -4.2400 O.3       1 GTP         0.4672
      6 PB         -0.4382   -2.3081   -5.0482 P.3       1 GTP        -1.1062
      7 O1B         0.0207   -3.5496   -5.7801 O.co2     1 GTP         0.3195
      8 O2B        -0.6299   -0.9994   -5.7825 O.co2     1 GTP         0.3195
      9 O3A         0.5548   -2.0505   -3.7791 O.3       1 GTP         0.4672
     10 PA          2.1490   -2.2861   -3.6338 P.3       1 GTP        -0.9715
     11 O1A         2.5798   -3.7086   -3.8453 O.2       1 GTP         0.2707
     12 O2A         2.7964   -1.2188   -4.6629 O.3       1 GTP         0.0326
     13 O5'         2.5245   -1.6648   -2.1878 O.3       1 GTP         0.1618
     14 C5'         2.2816   -0.2918   -1.9206 C.3       1 GTP         0.1504
     15 C4'         2.7248    0.0226   -0.4980 C.3       1 GTP         0.1111
     16 O4'         2.4697    1.4219   -0.2462 O.3       1 GTP        -0.1436
     17 C3'         1.9404   -0.7419    0.5596 C.3       1 GTP         0.1111
     18 O3'         2.7418   -0.8086    1.7389 O.3       1 GTP        -0.2728
     19 C2'         0.7477    0.1630    0.7858 C.3       1 GTP         0.1111
     20 O2'         0.1373   -0.0577    2.0407 O.3       1 GTP        -0.2728
     21 C1'         1.3733    1.5427    0.6747 C.3       1 GTP         0.2693
     22 N9          0.4520    2.5240    0.1767 N.pl3     1 GTP        -0.3222
     23 C8         -0.2009    2.4849   -0.9792 C.ar      1 GTP         0.1640
     24 N7         -0.9840    3.5454   -1.1481 N.pl3     1 GTP        -0.3688
     25 C5         -0.8090    4.3005   -0.0206 C.ar      1 GTP         0.0648
     26 C6         -1.4206    5.5724    0.3362 C.ar      1 GTP         0.3597
     27 O6         -2.2199    6.1544   -0.3836 O.2       1 GTP        -0.2755
     28 N1         -0.9680    6.0043    1.5817 N.pl3     1 GTP        -0.1604
     29 C2         -0.0474    5.3055    2.3814 C.ar      1 GTP         0.4468
     30 N2          0.2680    5.9024    3.5740 N.pl3     1 GTP        -0.5618
     31 N3          0.4755    4.1601    2.0138 N.2       1 GTP        -0.4283
     32 C4          0.0611    3.6981    0.8001 C.ar      1 GTP         0.2226
     33 HOA2        2.6315   -1.3261   -5.6239 H         1 GTP         0.2010
     34 H5'         2.8432    0.3119   -2.6398 H         1 GTP        -0.0393
     35 H5''        1.2128   -0.0927   -2.0428 H         1 GTP        -0.0393
     36 H4'         3.8044   -0.1397   -0.4040 H         1 GTP        -0.0393
     37 H3'         1.6764   -1.7639    0.2728 H         1 GTP        -0.0393
     38 HO3'        2.2232   -1.2979    2.3953 H         1 GTP         0.2010
     39 H2'        -0.0011    0.0027    0.0003 H         1 GTP        -0.0393
     40 HO2'       -0.1563   -0.9855    2.0596 H         1 GTP         0.2010
     41 H1'         1.7826    1.9024    1.6451 H         1 GTP        -0.0393
     42 H8         -0.1126    1.6906   -1.6997 H         1 GTP         0.0000
     43 HN1        -1.3285    6.8855    1.9361 H         1 GTP         0.0865
     44 HN21        0.9153    5.4446    4.1732 H         1 GTP         0.2048
     45 HN22       -0.1624    6.7706    3.7948 H         1 GTP         0.2048
     46 H46        -1.5768    3.7405   -1.9429 H         1 GTP         0.2048
@<TRIPOS>BOND
     1    1    2 2
     2    1    3 1
     3    1    4 1
     4    1    5 1
     5    5    6 1
     6    6    7 2
     7    6    8 1
     8    6    9 1
     9    9   10 1
    10   10   11 2
    11   10   12 1
    12   10   13 1
    13   12   33 1
    14   13   14 1
    15   14   15 1
    16   14   34 1
    17   14   35 1
    18   15   16 1
    19   15   17 1
    20   15   36 1
    21   16   21 1
    22   17   18 1
    23   17   19 1
    24   17   37 1
    25   18   38 1
    26   19   20 1
    27   19   21 1
    28   19   39 1
    29   20   40 1
    30   21   22 1
    31   21   41 1
    32   22   23 ar
    33   22   32 ar
    34   23   24 ar
    35   23   42 1
    36   24   25 ar
    37   24   46 1
    38   25   26 ar
    39   25   32 ar
    40   26   27 2
    41   26   28 ar
    42   28   29 ar
    43   28   43 1
    44   29   30 1
    45   29   31 ar
    46   30   44 1
    47   30   45 1
    48   31   32 ar
@<TRIPOS>SUBSTRUCTURE
     1 GTP         1 GROUP 0 A     ****
@<TRIPOS>MOLECULE
[[[5-(2-amino-6-oxo-7,8-dihydro-1~{H}-purin-8-ylium-9-yl)-3,4-dihydroxy-tetrahydrofuran-2-yl]methoxy-hydroxy-phosphoryl]oxy-oxido-phosphoryl] phosphate
   46    48     1     0     0
SMALL
USER_CHARGES

@<TRIPOS>ATOM
      1 PG          7.4161   -1.3076   -1.9046 P.3       1 GTP        -1.1921
      2 O1G         8.2652   -2.5224   -2.2636 O.co2     1 GTP         0.3195
      3 O2G         7.9585    0.0172   -2.4297 O.co2     1 GTP         0.3195
      4 O3G         6.9738   -1.2641   -0.4455 O.co2     1 GTP         0.3195
      5 O3B         6.0092   -1.5320   -2.7329 O.3       1 GTP         0.4672
      6 PB          4.9012   -2.7305   -2.6885 P.3       1 GTP        -1.1062
      7 O1B         5.5312   -4.0011   -3.2140 O.co2     1 GTP         0.3195
      8 O2B         4.2241   -2.7006   -1.3360 O.co2     1 GTP         0.3195
      9 O3A         3.8551   -2.1631   -3.8051 O.3       1 GTP         0.4672
     10 PA          3.4996   -0.6423   -4.2278 P.3       1 GTP        -0.9715
     11 O1A         4.4977   -0.0158   -5.1579 O.2       1 GTP         0.2707
     12 O2A         1.9941   -0.7416   -4.8119 O.3       1 GTP         0.0326
     13 O5'         3.2903    0.1346   -2.8241 O.3       1 GTP         0.1618
     14 C5'         2.2816   -0.2918   -1.9206 C.3       1 GTP         0.1504
     15 C4'         2.7248    0.0226   -0.4980 C.3       1 GTP         0.1111
     16 O4'         2.4697    1.4219   -0.2462 O.3       1 GTP        -0.1436
     17 C3'         1.9404   -0.7419    0.5596 C.3       1 GTP         0.1111
     18 O3'         2.7418   -0.8086    1.7389 O.3       1 GTP        -0.2728
     19 C2'         0.7477    0.1630    0.7858 C.3       1 GTP         0.1111
     20 O2'         0.1373   -0.0577    2.0407 O.3       1 GTP        -0.2728
     21 C1'         1.3733    1.5427    0.6747 C.3       1 GTP         0.2693
     22 N9          0.4520    2.5240    0.1767 N.pl3     1 GTP        -0.3222
     23 C8          0.2203    2.8205   -1.0970 C.ar      1 GTP         0.1640
     24 N7         -0.6947    3.7752   -1.2304 N.pl3     1 GTP        -0.3688
     25 C5         -1.0607    4.0987    0.0476 C.ar      1 GTP         0.0648
     26 C6         -2.0310    5.0839    0.5029 C.ar      1 GTP         0.3597
     27 O6         -2.6779    5.7867   -0.2609 O.2       1 GTP        -0.2755
     28 N1         -2.1030    5.0975    1.8948 N.pl3     1 GTP        -0.1604
     29 C2         -1.3422    4.2721    2.7403 C.ar      1 GTP         0.4468
     30 N2         -1.5624    4.4419    4.0823 N.pl3     1 GTP        -0.5618
     31 N3         -0.4796    3.3981    2.2792 N.2       1 GTP        -0.4283
     32 C4         -0.3754    3.3496    0.9208 C.ar      1 GTP         0.2226
     33 HOA2        1.5274    0.0837   -5.0634 H         1 GTP         0.2010
     34 H5'         1.3514    0.2330   -2.1577 H         1 GTP        -0.0393
     35 H5''        2.1280   -1.3678   -2.0460 H         1 GTP        -0.0393
     36 H4'         3.8044   -0.1397   -0.4040 H         1 GTP        -0.0393
     37 H3'         1.6764   -1.7639    0.2728 H         1 GTP        -0.0393
     38 HO3'        2.2232   -1.2979    2.3953 H         1 GTP         0.2010
     39 H2'        -0.0011    0.0027    0.0003 H         1 GTP        -0.0393
     40 HO2'       -0.1563   -0.9855    2.0596 H         1 GTP         0.2010
     41 H1'         1.7826    1.9024    1.6451 H         1 GTP        -0.0393
     42 H8          0.7110    2.3472   -1.9295 H         1 GTP         0.0000
     43 HN1        -2.7504    5.7495    2.3282 H         1 GTP         0.0865
     44 HN21       -1.0467    3.8796    4.7190 H         1 GTP         0.2048
     45 HN22       -2.2294    5.1209    4.3680 H         1 GTP         0.2048
     46 H46        -1.0382    4.1687   -2.0954 H         1 GTP         0.2048
@<TRIPOS>BOND
     1    1    2 2
     2    1    3 1
     3    1    4 1
     4    1    5 1
     5    5    6 1
     6    6    7 2
     7    6    8 1
     8    6    9 1
     9    9   10 1
    10   10   11 2
    11   10   12 1
    12   10   13 1
    13   12   33 1
    14   13   14 1
    15   14   15 1
    16   14   34 1
    17   14   35 1
    18   15   16 1
    19   15   17 1
    20   15   36 1
    21   16   21 1
    22   17   18 1
    23   17   19 1
    24   17   37 1
    25   18   38 1
    26   19   20 1
    27   19   21 1
    28   19   39 1
    29   20   40 1
    30   21   22 1
    31   21   41 1
    32   22   23 ar
    33   22   32 ar
    34   23   24 ar
    35   23   42 1
    36   24   25 ar
    37   24   46 1
    38   25   26 ar
    39   25   32 ar
    40   26   27 2
    41   26   28 ar
    42   28   29 ar
    43   28   43 1
    44   29   30 1
    45   29   31 ar
    46   30   44 1
    47   30   45 1
    48   31   32 ar
@<TRIPOS>SUBSTRUCTURE
     1 GTP         1 GROUP 0 A     ****
@<TRIPOS>MOLECULE
[[[5-(2-amino-6-oxo-7,8-dihydro-1~{H}-purin-8-ylium-9-yl)-3,4-dihydroxy-tetrahydrofuran-2-yl]methoxy-hydroxy-phosphoryl]oxy-oxido-phosphoryl] phosphate
   46    48     1     0     0
SMALL
USER_CHARGES

@<TRIPOS>ATOM
      1 PG          6.2458   -3.2786   -6.3183 P.3       1 GTP        -1.1921
      2 O1G         5.3870   -4.2040   -7.1736 O.co2     1 GTP         0.3195
      3 O2G         7.0166   -2.2264   -7.1079 O.co2     1 GTP         0.3195
      4 O3G         7.0792   -3.9986   -5.2629 O.co2     1 GTP         0.3195
      5 O3B         5.1583   -2.4125   -5.4334 O.3       1 GTP         0.4672
      6 PB          4.0118   -2.8742   -4.3664 P.3       1 GTP        -1.1062
      7 O1B         3.4007   -4.1759   -4.8351 O.co2     1 GTP         0.3195
      8 O2B         4.5812   -2.7410   -2.9711 O.co2     1 GTP         0.3195
      9 O3A         2.9329   -1.6730   -4.6033 O.3       1 GTP         0.4672
     10 PA          3.0905   -0.0736   -4.4161 P.3       1 GTP        -0.9715
     11 O1A         4.1564    0.5417   -5.2759 O.2       1 GTP         0.2707
     12 O2A         1.5982    0.4977   -4.6691 O.3       1 GTP         0.0326
     13 O5'         3.2903    0.1346   -2.8241 O.3       1 GTP         0.1618
     14 C5'         2.2816   -0.2918   -1.9206 C.3       1 GTP         0.1504
     15 C4'         2.7248    0.0226   -0.4980 C.3       1 GTP         0.1111
     16 O4'         2.4697    1.4219   -0.2462 O.3       1 GTP        -0.1436
     17 C3'         1.9404   -0.7419    0.5596 C.3       1 GTP         0.1111
     18 O3'         2.7418   -0.8086    1.7389 O.3       1 GTP        -0.2728
     19 C2'         0.7477    0.1630    0.7858 C.3       1 GTP         0.1111
     20 O2'         0.1373   -0.0577    2.0407 O.3       1 GTP        -0.2728
     21 C1'         1.3733    1.5427    0.6747 C.3       1 GTP         0.2693
     22 N9          0.4520    2.5240    0.1767 N.pl3     1 GTP        -0.3222
     23 C8          0.5671    3.2221   -0.9473 C.ar      1 GTP         0.1640
     24 N7         -0.4560    4.0508   -1.1290 N.pl3     1 GTP        -0.3688
     25 C5         -1.2671    3.8585   -0.0441 C.ar      1 GTP         0.0648
     26 C6         -2.5318    4.5014    0.2817 C.ar      1 GTP         0.3597
     27 O6         -3.0527    5.3493   -0.4293 O.2       1 GTP        -0.2755
     28 N1         -3.0357    4.0149    1.4868 N.pl3     1 GTP        -0.1604
     29 C2         -2.4069    3.0373    2.2768 C.ar      1 GTP         0.4468
     30 N2         -3.0679    2.6964    3.4278 N.pl3     1 GTP        -0.5618
     31 N3         -1.2653    2.4872    1.9379 N.2       1 GTP        -0.4283
     32 C4         -0.7342    2.9334    0.7643 C.ar      1 GTP         0.2226
     33 HOA2        1.4261    1.4532   -4.5301 H         1 GTP         0.2010
     34 H5'         1.3514    0.2330   -2.1577 H         1 GTP        -0.0393
     35 H5''        2.1280   -1.3678   -2.0460 H         1 GTP        -0.0393
     36 H4'         3.8044   -0.1397   -0.4040 H         1 GTP        -0.0393
     37 H3'         1.6764   -1.7639    0.2728 H         1 GTP        -0.0393
     38 HO3'        2.2232   -1.2979    2.3953 H         1 GTP         0.2010
     39 H2'        -0.0011    0.0027    0.0003 H         1 GTP        -0.0393
     40 HO2'       -0.1563   -0.9855    2.0596 H         1 GTP         0.2010
     41 H1'         1.7826    1.9024    1.6451 H         1 GTP        -0.0393
     42 H8          1.3888    3.1325   -1.6361 H         1 GTP         0.0000
     43 HN1        -3.9188    4.3932    1.8170 H         1 GTP         0.0865
     44 HN21       -2.6609    2.0087    4.0186 H         1 GTP         0.2048
     45 HN22       -3.9293    3.1496    3.6283 H         1 GTP         0.2048
     46 H46        -0.5938    4.6820   -1.9060 H         1 GTP         0.2048
@<TRIPOS>BOND
     1    1    2 2
     2    1    3 1
     3    1    4 1
     4    1    5 1
     5    5    6 1
     6    6    7 2
     7    6    8 1
     8    6    9 1
     9    9   10 1
    10   10   11 2
    11   10   12 1
    12   10   13 1
    13   12   33 1
    14   13   14 1
    15   14   15 1
    16   14   34 1
    17   14   35 1
    18   15   16 1
    19   15   17 1
    20   15   36 1
    21   16   21 1
    22   17   18 1
    23   17   19 1
    24   17   37 1
    25   18   38 1
    26   19   20 1
    27   19   21 1
    28   19   39 1
    29   20   40 1
    30   21   22 1
    31   21   41 1
    32   22   23 ar
    33   22   32 ar
    34   23   24 ar
    35   23   42 1
    36   24   25 ar
    37   24   46 1
    38   25   26 ar
    39   25   32 ar
    40   26   27 2
    41   26   28 ar
    42   28   29 ar
    43   28   43 1
    44   29   30 1
    45   29   31 ar
    46   30   44 1
    47   30   45 1
    48   31   32 ar
@<TRIPOS>SUBSTRUCTURE
     1 GTP         1 GROUP 0 A     ****
@<TRIPOS>MOLECULE
[[[5-(2-amino-6-oxo-7,8-dihydro-1~{H}-purin-8-ylium-9-yl)-3,4-dihydroxy-tetrahydrofuran-2-yl]methoxy-hydroxy-phosphoryl]oxy-oxido-phosphoryl] phosphate
   46    48     1     0     0
SMALL
USER_CHARGES

@<TRIPOS>ATOM
      1 PG          1.9990   -0.9731   -8.7444 P.3       1 GTP        -1.1921
      2 O1G         1.3882   -2.3532   -8.9632 O.co2     1 GTP         0.3195
      3 O2G         1.0271    0.1846   -8.9447 O.co2     1 GTP         0.3195
      4 O3G         3.3513   -0.7742   -9.4213 O.co2     1 GTP         0.3195
      5 O3B         2.3574   -0.9342   -7.1363 O.3       1 GTP         0.4672
      6 PB          3.3276   -1.8712   -6.2161 P.3       1 GTP        -1.1062
      7 O1B         2.7489   -3.2673   -6.1565 O.co2     1 GTP         0.3195
      8 O2B         4.7588   -1.6411   -6.6492 O.co2     1 GTP         0.3195
      9 O3A         3.0998   -1.1470   -4.7716 O.3       1 GTP         0.4672
     10 PA          2.7598    0.3945   -4.4166 P.3       1 GTP        -0.9715
     11 O1A         3.4977    1.3943   -5.2592 O.2       1 GTP         0.2707
     12 O2A         1.1474    0.4728   -4.5232 O.3       1 GTP         0.0326
     13 O5'         3.0213    0.5153   -2.8245 O.3       1 GTP         0.1618
     14 C5'         2.2816   -0.2918   -1.9206 C.3       1 GTP         0.1504
     15 C4'         2.7248    0.0226   -0.4980 C.3       1 GTP         0.1111
     16 O4'         2.4697    1.4219   -0.2462 O.3       1 GTP        -0.1436
     17 C3'         1.9404   -0.7419    0.5596 C.3       1 GTP         0.1111
     18 O3'         2.7418   -0.8086    1.7389 O.3       1 GTP        -0.2728
     19 C2'         0.7477    0.1630    0.7858 C.3       1 GTP         0.1111
     20 O2'         0.1373   -0.0577    2.0407 O.3       1 GTP        -0.2728
     21 C1'         1.3733    1.5427    0.6747 C.3       1 GTP         0.2693
     22 N9          0.4520    2.5240    0.1767 N.pl3     1 GTP        -0.3222
     23 C8         -0.2009    2.4849   -0.9792 C.ar      1 GTP         0.1640
     24 N7         -0.9840    3.5454   -1.1481 N.pl3     1 GTP        -0.3688
     25 C5         -0.8090    4.3005   -0.0206 C.ar      1 GTP         0.0648
     26 C6         -1.4206    5.5724    0.3362 C.ar      1 GTP         0.3597
     27 O6         -2.2199    6.1544   -0.3836 O.2       1 GTP        -0.2755
     28 N1         -0.9680    6.0043    1.5817 N.pl3     1 GTP        -0.1604
     29 C2         -0.0474    5.3055    2.3814 C.ar      1 GTP         0.4468
     30 N2          0.2680    5.9024    3.5740 N.pl3     1 GTP        -0.5618
     31 N3          0.4755    4.1601    2.0138 N.2       1 GTP        -0.4283
     32 C4          0.0611    3.6981    0.8001 C.ar      1 GTP         0.2226
     33 HOA2        0.6950    1.3054   -4.2697 H         1 GTP         0.2010
     34 H5'         1.2163   -0.0770   -2.0471 H         1 GTP        -0.0393
     35 H5''        2.4655   -1.3443   -2.1563 H         1 GTP        -0.0393
     36 H4'         3.8044   -0.1397   -0.4040 H         1 GTP        -0.0393
     37 H3'         1.6764   -1.7639    0.2728 H         1 GTP        -0.0393
     38 HO3'        2.2232   -1.2979    2.3953 H         1 GTP         0.2010
     39 H2'        -0.0011    0.0027    0.0003 H         1 GTP        -0.0393
     40 HO2'       -0.1563   -0.9855    2.0596 H         1 GTP         0.2010
     41 H1'         1.7826    1.9024    1.6451 H         1 GTP        -0.0393
     42 H8         -0.1126    1.6906   -1.6997 H         1 GTP         0.0000
     43 HN1        -1.3285    6.8855    1.9361 H         1 GTP         0.0865
     44 HN21        0.9153    5.4446    4.1732 H         1 GTP         0.2048
     45 HN22       -0.1624    6.7706    3.7948 H         1 GTP         0.2048
     46 H46        -1.5768    3.7405   -1.9429 H         1 GTP         0.2048
@<TRIPOS>BOND
     1    1    2 2
     2    1    3 1
     3    1    4 1
     4    1    5 1
     5    5    6 1
     6    6    7 2
     7    6    8 1
     8    6    9 1
     9    9   10 1
    10   10   11 2
    11   10   12 1
    12   10   13 1
    13   12   33 1
    14   13   14 1
    15   14   15 1
    16   14   34 1
    17   14   35 1
    18   15   16 1
    19   15   17 1
    20   15   36 1
    21   16   21 1
    22   17   18 1
    23   17   19 1
    24   17   37 1
    25   18   38 1
    26   19   20 1
    27   19   21 1
    28   19   39 1
    29   20   40 1
    30   21   22 1
    31   21   41 1
    32   22   23 ar
    33   22   32 ar
    34   23   24 ar
    35   23   42 1
    36   24   25 ar
    37   24   46 1
    38   25   26 ar
    39   25   32 ar
    40   26   27 2
    41   26   28 ar
    42   28   29 ar
    43   28   43 1
    44   29   30 1
    45   29   31 ar
    46   30   44 1
    47   30   45 1
    48   31   32 ar
@<TRIPOS>SUBSTRUCTURE
     1 GTP         1 GROUP 0 A     ****
@<TRIPOS>MOLECULE
[[[5-(2-amino-6-oxo-7,8-dihydro-1~{H}-purin-8-ylium-9-yl)-3,4-dihydroxy-tetrahydrofuran-2-yl]methoxy-hydroxy-phosphoryl]oxy-oxido-phosphoryl] phosphate
   46    48     1     0     0
SMALL
USER_CHARGES

@<TRIPOS>ATOM
      1 PG         -1.9791   -1.5398   -6.1885 P.3       1 GTP        -1.1921
      2 O1G        -1.6123   -2.4845   -7.3280 O.co2     1 GTP         0.3195
      3 O2G        -2.7665   -2.1929   -5.0578 O.co2     1 GTP         0.3195
      4 O3G        -2.5440   -0.1990   -6.6464 O.co2     1 GTP         0.3195
      5 O3B        -0.5333   -1.1418   -5.5050 O.3       1 GTP         0.4672
      6 PB          0.7951   -0.4162   -6.1171 P.3       1 GTP        -1.1062
      7 O1B         1.4197   -1.3268   -7.1507 O.co2     1 GTP         0.3195
      8 O2B         0.4404    1.0151   -6.4554 O.co2     1 GTP         0.3195
      9 O3A         1.7338   -0.4165   -4.7823 O.3       1 GTP         0.4672
     10 PA          2.8890    0.6159   -4.3157 P.3       1 GTP        -0.9715
     11 O1A         4.0363    0.7269   -5.2776 O.2       1 GTP         0.2707
     12 O2A         2.0915    1.9974   -4.0454 O.3       1 GTP         0.0326
     13 O5'         3.2903    0.1346   -2.8241 O.3       1 GTP         0.1618
     14 C5'         2.2816   -0.2918   -1.9206 C.3       1 GTP         0.1504
     15 C4'         2.7248    0.0226   -0.4980 C.3       1 GTP         0.1111
     16 O4'         2.4697    1.4219   -0.2462 O.3       1 GTP        -0.1436
     17 C3'         1.9404   -0.7419    0.5596 C.3       1 GTP         0.1111
     18 O3'         2.7418   -0.8086    1.7389 O.3       1 GTP        -0.2728
     19 C2'         0.7477    0.1630    0.7858 C.3       1 GTP         0.1111
     20 O2'         0.1373   -0.0577    2.0407 O.3       1 GTP        -0.2728
     21 C1'         1.3733    1.5427    0.6747 C.3       1 GTP         0.2693
     22 N9          0.4520    2.5240    0.1767 N.pl3     1 GTP        -0.3222
     23 C8         -0.2009    2.4849   -0.9792 C.ar      1 GTP         0.1640
     24 N7         -0.9840    3.5454   -1.1481 N.pl3     1 GTP        -0.3688
     25 C5         -0.8090    4.3005   -0.0206 C.ar      1 GTP         0.0648
     26 C6         -1.4206    5.5724    0.3362 C.ar      1 GTP         0.3597
     27 O6         -2.2199    6.1544   -0.3836 O.2       1 GTP        -0.2755
     28 N1         -0.9680    6.0043    1.5817 N.pl3     1 GTP        -0.1604
     29 C2         -0.0474    5.3055    2.3814 C.ar      1 GTP         0.4468
     30 N2          0.2680    5.9024    3.5740 N.pl3     1 GTP        -0.5618
     31 N3          0.4755    4.1601    2.0138 N.2       1 GTP        -0.4283
     32 C4          0.0611    3.6981    0.8001 C.ar      1 GTP         0.2226
     33 HOA2        2.5795    2.7616   -3.6715 H         1 GTP         0.2010
     34 H5'         1.3514    0.2330   -2.1577 H         1 GTP        -0.0393
     35 H5''        2.1280   -1.3678   -2.0460 H         1 GTP        -0.0393
     36 H4'         3.8044   -0.1397   -0.4040 H         1 GTP        -0.0393
     37 H3'         1.6764   -1.7639    0.2728 H         1 GTP        -0.0393
     38 HO3'        2.2232   -1.2979    2.3953 H         1 GTP         0.2010
     39 H2'        -0.0011    0.0027    0.0003 H         1 GTP        -0.0393
     40 HO2'       -0.1563   -0.9855    2.0596 H         1 GTP         0.2010
     41 H1'         1.7826    1.9024    1.6451 H         1 GTP        -0.0393
     42 H8         -0.1126    1.6906   -1.6997 H         1 GTP         0.0000
     43 HN1        -1.3285    6.8855    1.9361 H         1 GTP         0.0865
     44 HN21        0.9153    5.4446    4.1732 H         1 GTP         0.2048
     45 HN22       -0.1624    6.7706    3.7948 H         1 GTP         0.2048
     46 H46        -1.5768    3.7405   -1.9429 H         1 GTP         0.2048
@<TRIPOS>BOND
     1    1    2 2
     2    1    3 1
     3    1    4 1
     4    1    5 1
     5    5    6 1
     6    6    7 2
     7    6    8 1
     8    6    9 1
     9    9   10 1
    10   10   11 2
    11   10   12 1
    12   10   13 1
    13   12   33 1
    14   13   14 1
    15   14   15 1
    16   14   34 1
    17   14   35 1
    18   15   16 1
    19   15   17 1
    20   15   36 1
    21   16   21 1
    22   17   18 1
    23   17   19 1
    24   17   37 1
    25   18   38 1
    26   19   20 1
    27   19   21 1
    28   19   39 1
    29   20   40 1
    30   21   22 1
    31   21   41 1
    32   22   23 ar
    33   22   32 ar
    34   23   24 ar
    35   23   42 1
    36   24   25 ar
    37   24   46 1
    38   25   26 ar
    39   25   32 ar
    40   26   27 2
    41   26   28 ar
    42   28   29 ar
    43   28   43 1
    44   29   30 1
    45   29   31 ar
    46   30   44 1
    47   30   45 1
    48   31   32 ar
@<TRIPOS>SUBSTRUCTURE
     1 GTP         1 GROUP 0 A     ****
@<TRIPOS>MOLECULE
[[[5-(2-amino-6-oxo-7,8-dihydro-1~{H}-purin-8-ylium-9-yl)-3,4-dihydroxy-tetrahydrofuran-2-yl]methoxy-hydroxy-phosphoryl]oxy-oxido-phosphoryl] phosphate
   46    48     1     0     0
SMALL
USER_CHARGES

@<TRIPOS>ATOM
      1 PG          0.3496   -5.8856   -4.0783 P.3       1 GTP        -1.1921
      2 O1G         0.5813   -4.7016   -5.0111 O.co2     1 GTP         0.3195
      3 O2G         1.1852   -7.1182   -4.4059 O.co2     1 GTP         0.3195
      4 O3G        -1.1204   -6.1856   -3.8035 O.co2     1 GTP         0.3195
      5 O3B         0.9239   -5.3764   -2.6200 O.3       1 GTP         0.4672
      6 PB          0.5040   -4.1203   -1.6650 P.3       1 GTP        -1.1062
      7 O1B        -0.9850   -4.1771   -1.4057 O.co2     1 GTP         0.3195
      8 O2B         1.4899   -4.0448   -0.5200 O.co2     1 GTP         0.3195
      9 O3A         0.8103   -2.8926   -2.6954 O.3       1 GTP         0.4672
     10 PA          2.1894   -2.4541   -3.4192 P.3       1 GTP        -0.9715
     11 O1A         3.0202   -3.6067   -3.9039 O.2       1 GTP         0.2707
     12 O2A         1.7139   -1.4250   -4.5735 O.3       1 GTP         0.0326
     13 O5'         2.9216   -1.4836   -2.3516 O.3       1 GTP         0.1618
     14 C5'         2.2816   -0.2918   -1.9206 C.3       1 GTP         0.1504
     15 C4'         2.7248    0.0226   -0.4980 C.3       1 GTP         0.1111
     16 O4'         2.4697    1.4219   -0.2462 O.3       1 GTP        -0.1436
     17 C3'         1.9404   -0.7419    0.5596 C.3       1 GTP         0.1111
     18 O3'         2.7418   -0.8086    1.7389 O.3       1 GTP        -0.2728
     19 C2'         0.7477    0.1630    0.7858 C.3       1 GTP         0.1111
     20 O2'         0.1373   -0.0577    2.0407 O.3       1 GTP        -0.2728
     21 C1'         1.3733    1.5427    0.6747 C.3       1 GTP         0.2693
     22 N9          0.4520    2.5240    0.1767 N.pl3     1 GTP        -0.3222
     23 C8          0.2203    2.8205   -1.0970 C.ar      1 GTP         0.1640
     24 N7         -0.6947    3.7752   -1.2304 N.pl3     1 GTP        -0.3688
     25 C5         -1.0607    4.0987    0.0476 C.ar      1 GTP         0.0648
     26 C6         -2.0310    5.0839    0.5029 C.ar      1 GTP         0.3597
     27 O6         -2.6779    5.7867   -0.2609 O.2       1 GTP        -0.2755
     28 N1         -2.1030    5.0975    1.8948 N.pl3     1 GTP        -0.1604
     29 C2         -1.3422    4.2721    2.7403 C.ar      1 GTP         0.4468
     30 N2         -1.5624    4.4419    4.0823 N.pl3     1 GTP        -0.5618
     31 N3         -0.4796    3.3981    2.2792 N.2       1 GTP        -0.4283
     32 C4         -0.3754    3.3496    0.9208 C.ar      1 GTP         0.2226
     33 HOA2        1.1606   -1.7612   -5.3104 H         1 GTP         0.2010
     34 H5'         2.5589    0.5217   -2.5976 H         1 GTP        -0.0393
     35 H5''        1.1982   -0.4388   -1.9617 H         1 GTP        -0.0393
     36 H4'         3.8044   -0.1397   -0.4040 H         1 GTP        -0.0393
     37 H3'         1.6764   -1.7639    0.2728 H         1 GTP        -0.0393
     38 HO3'        2.2232   -1.2979    2.3953 H         1 GTP         0.2010
     39 H2'        -0.0011    0.0027    0.0003 H         1 GTP        -0.0393
     40 HO2'       -0.6141    0.5574    2.1082 H         1 GTP         0.2010
     41 H1'         1.7826    1.9024    1.6451 H         1 GTP        -0.0393
     42 H8          0.7110    2.3472   -1.9295 H         1 GTP         0.0000
     43 HN1        -2.7504    5.7495    2.3282 H         1 GTP         0.0865
     44 HN21       -1.0467    3.8796    4.7190 H         1 GTP         0.2048
     45 HN22       -2.2294    5.1209    4.3680 H         1 GTP         0.2048
     46 H46        -1.0382    4.1687   -2.0954 H         1 GTP         0.2048
@<TRIPOS>BOND
     1    1    2 2
     2    1    3 1
     3    1    4 1
     4    1    5 1
     5    5    6 1
     6    6    7 2
     7    6    8 1
     8    6    9 1
     9    9   10 1
    10   10   11 2
    11   10   12 1
    12   10   13 1
    13   12   33 1
    14   13   14 1
    15   14   15 1
    16   14   34 1
    17   14   35 1
    18   15   16 1
    19   15   17 1
    20   15   36 1
    21   16   21 1
    22   17   18 1
    23   17   19 1
    24   17   37 1
    25   18   38 1
    26   19   20 1
    27   19   21 1
    28   19   39 1
    29   20   40 1
    30   21   22 1
    31   21   41 1
    32   22   23 ar
    33   22   32 ar
    34   23   24 ar
    35   23   42 1
    36   24   25 ar
    37   24   46 1
    38   25   26 ar
    39   25   32 ar
    40   26   27 2
    41   26   28 ar
    42   28   29 ar
    43   28   43 1
    44   29   30 1
    45   29   31 ar
    46   30   44 1
    47   30   45 1
    48   31   32 ar
@<TRIPOS>SUBSTRUCTURE
     1 GTP         1 GROUP 0 A     ****
@<TRIPOS>MOLECULE
[[[5-(2-amino-6-oxo-7,8-dihydro-1~{H}-purin-8-ylium-9-yl)-3,4-dihydroxy-tetrahydrofuran-2-yl]methoxy-hydroxy-phosphoryl]oxy-oxido-phosphoryl] phosphate
   46    48     1     0     0
SMALL
USER_CHARGES

@<TRIPOS>ATOM
      1 PG          2.4214   -3.1545   -7.7915 P.3       1 GTP        -1.1921
      2 O1G         1.1213   -3.9516   -7.7959 O.co2     1 GTP         0.3195
      3 O2G         2.7078   -2.4096   -9.0908 O.co2     1 GTP         0.3195
      4 O3G         3.6193   -3.9170   -7.2345 O.co2     1 GTP         0.3195
      5 O3B         2.1670   -1.9623   -6.6826 O.3       1 GTP         0.4672
      6 PB          1.8113   -2.0172   -5.0899 P.3       1 GTP        -1.1062
      7 O1B         0.4321   -2.6130   -4.9153 O.co2     1 GTP         0.3195
      8 O2B         3.0040   -2.5908   -4.3571 O.co2     1 GTP         0.3195
      9 O3A         1.7338   -0.4165   -4.7823 O.3       1 GTP         0.4672
     10 PA          2.8890    0.6159   -4.3157 P.3       1 GTP        -0.9715
     11 O1A         4.0363    0.7269   -5.2776 O.2       1 GTP         0.2707
     12 O2A         2.0915    1.9974   -4.0454 O.3       1 GTP         0.0326
     13 O5'         3.2903    0.1346   -2.8241 O.3       1 GTP         0.1618
     14 C5'         2.2816   -0.2918   -1.9206 C.3       1 GTP         0.1504
     15 C4'         2.7248    0.0226   -0.4980 C.3       1 GTP         0.1111
     16 O4'         2.4697    1.4219   -0.2462 O.3       1 GTP        -0.1436
     17 C3'         1.9404   -0.7419    0.5596 C.3       1 GTP         0.1111
     18 O3'         2.7418   -0.8086    1.7389 O.3       1 GTP        -0.2728
     19 C2'         0.7477    0.1630    0.7858 C.3       1 GTP         0.1111
     20 O2'         0.1373   -0.0577    2.0407 O.3       1 GTP        -0.2728
     21 C1'         1.3733    1.5427    0.6747 C.3       1 GTP         0.2693
     22 N9          0.4520    2.5240    0.1767 N.pl3     1 GTP        -0.3222
     23 C8          0.5671    3.2221   -0.9473 C.ar      1 GTP         0.1640
     24 N7         -0.4560    4.0508   -1.1290 N.pl3     1 GTP        -0.3688
     25 C5         -1.2671    3.8585   -0.0441 C.ar      1 GTP         0.0648
     26 C6         -2.5318    4.5014    0.2817 C.ar      1 GTP         0.3597
     27 O6         -3.0527    5.3493   -0.4293 O.2       1 GTP        -0.2755
     28 N1         -3.0357    4.0149    1.4868 N.pl3     1 GTP        -0.1604
     29 C2         -2.4069    3.0373    2.2768 C.ar      1 GTP         0.4468
     30 N2         -3.0679    2.6964    3.4278 N.pl3     1 GTP        -0.5618
     31 N3         -1.2653    2.4872    1.9379 N.2       1 GTP        -0.4283
     32 C4         -0.7342    2.9334    0.7643 C.ar      1 GTP         0.2226
     33 HOA2        2.5795    2.7616   -3.6715 H         1 GTP         0.2010
     34 H5'         1.3514    0.2330   -2.1577 H         1 GTP        -0.0393
     35 H5''        2.1280   -1.3678   -2.0460 H         1 GTP        -0.0393
     36 H4'         3.8044   -0.1397   -0.4040 H         1 GTP        -0.0393
     37 H3'         1.6764   -1.7639    0.2728 H         1 GTP        -0.0393
     38 HO3'        2.2232   -1.2979    2.3953 H         1 GTP         0.2010
     39 H2'        -0.0011    0.0027    0.0003 H         1 GTP        -0.0393
     40 HO2'       -0.1563   -0.9855    2.0596 H         1 GTP         0.2010
     41 H1'         1.7826    1.9024    1.6451 H         1 GTP        -0.0393
     42 H8          1.3888    3.1325   -1.6361 H         1 GTP         0.0000
     43 HN1        -3.9188    4.3932    1.8170 H         1 GTP         0.0865
     44 HN21       -2.6609    2.0087    4.0186 H         1 GTP         0.2048
     45 HN22       -3.9293    3.1496    3.6283 H         1 GTP         0.2048
     46 H46        -0.5938    4.6820   -1.9060 H         1 GTP         0.2048
@<TRIPOS>BOND
     1    1    2 2
     2    1    3 1
     3    1    4 1
     4    1    5 1
     5    5    6 1
     6    6    7 2
     7    6    8 1
     8    6    9 1
     9    9   10 1
    10   10   11 2
    11   10   12 1
    12   10   13 1
    13   12   33 1
    14   13   14 1
    15   14   15 1
    16   14   34 1
    17   14   35 1
    18   15   16 1
    19   15   17 1
    20   15   36 1
    21   16   21 1
    22   17   18 1
    23   17   19 1
    24   17   37 1
    25   18   38 1
    26   19   20 1
    27   19   21 1
    28   19   39 1
    29   20   40 1
    30   21   22 1
    31   21   41 1
    32   22   23 ar
    33   22   32 ar
    34   23   24 ar
    35   23   42 1
    36   24   25 ar
    37   24   46 1
    38   25   26 ar
    39   25   32 ar
    40   26   27 2
    41   26   28 ar
    42   28   29 ar
    43   28   43 1
    44   29   30 1
    45   29   31 ar
    46   30   44 1
    47   30   45 1
    48   31   32 ar
@<TRIPOS>SUBSTRUCTURE
     1 GTP         1 GROUP 0 A     ****
@<TRIPOS>MOLECULE
[[[5-(2-amino-6-oxo-7,8-dihydro-1~{H}-purin-8-ylium-9-yl)-3,4-dihydroxy-tetrahydrofuran-2-yl]methoxy-hydroxy-phosphoryl]oxy-oxido-phosphoryl] phosphate
   46    48     1     0     0
SMALL
USER_CHARGES

@<TRIPOS>ATOM
      1 PG          0.0346    1.0449   -5.5711 P.3       1 GTP        -1.1921
      2 O1G         0.2318    1.2933   -4.0795 O.co2     1 GTP         0.3195
      3 O2G         1.0613    1.7318   -6.4650 O.co2     1 GTP         0.3195
      4 O3G        -1.4067    1.2016   -6.0450 O.co2     1 GTP         0.3195
      5 O3B         0.3359   -0.5641   -5.7617 O.3       1 GTP         0.4672
      6 PB         -0.3699   -1.8862   -5.1136 P.3       1 GTP        -1.1062
      7 O1B        -1.7778   -1.5326   -4.6889 O.co2     1 GTP         0.3195
      8 O2B        -0.1063   -3.0613   -6.0292 O.co2     1 GTP         0.3195
      9 O3A         0.5548   -2.0505   -3.7791 O.3       1 GTP         0.4672
     10 PA          2.1490   -2.2861   -3.6338 P.3       1 GTP        -0.9715
     11 O1A         2.5798   -3.7086   -3.8453 O.2       1 GTP         0.2707
     12 O2A         2.7964   -1.2188   -4.6629 O.3       1 GTP         0.0326
     13 O5'         2.5245   -1.6648   -2.1878 O.3       1 GTP         0.1618
     14 C5'         2.2816   -0.2918   -1.9206 C.3       1 GTP         0.1504
     15 C4'         2.7248    0.0226   -0.4980 C.3       1 GTP         0.1111
     16 O4'         2.4697    1.4219   -0.2462 O.3       1 GTP        -0.1436
     17 C3'         1.9404   -0.7419    0.5596 C.3       1 GTP         0.1111
     18 O3'         2.7418   -0.8086    1.7389 O.3       1 GTP        -0.2728
     19 C2'         0.7477    0.1630    0.7858 C.3       1 GTP         0.1111
     20 O2'         0.1373   -0.0577    2.0407 O.3       1 GTP        -0.2728
     21 C1'         1.3733    1.5427    0.6747 C.3       1 GTP         0.2693
     22 N9          0.4520    2.5240    0.1767 N.pl3     1 GTP        -0.3222
     23 C8          0.2203    2.8205   -1.0970 C.ar      1 GTP         0.1640
     24 N7         -0.6947    3.7752   -1.2304 N.pl3     1 GTP        -0.3688
     25 C5         -1.0607    4.0987    0.0476 C.ar      1 GTP         0.0648
     26 C6         -2.0310    5.0839    0.5029 C.ar      1 GTP         0.3597
     27 O6         -2.6779    5.7867   -0.2609 O.2       1 GTP        -0.2755
     28 N1         -2.1030    5.0975    1.8948 N.pl3     1 GTP        -0.1604
     29 C2         -1.3422    4.2721    2.7403 C.ar      1 GTP         0.4468
     30 N2         -1.5624    4.4419    4.0823 N.pl3     1 GTP        -0.5618
     31 N3         -0.4796    3.3981    2.2792 N.2       1 GTP        -0.4283
     32 C4         -0.3754    3.3496    0.9208 C.ar      1 GTP         0.2226
     33 HOA2        2.6315   -1.3261   -5.6239 H         1 GTP         0.2010
     34 H5'         2.8432    0.3119   -2.6398 H         1 GTP        -0.0393
     35 H5''        1.2128   -0.0927   -2.0428 H         1 GTP        -0.0393
     36 H4'         3.8044   -0.1397   -0.4040 H         1 GTP        -0.0393
     37 H3'         1.6764   -1.7639    0.2728 H         1 GTP        -0.0393
     38 HO3'        3.5554   -1.2733    1.4914 H         1 GTP         0.2010
     39 H2'        -0.0011    0.0027    0.0003 H         1 GTP        -0.0393
     40 HO2'        0.8082    0.1199    2.7232 H         1 GTP         0.2010
     41 H1'         1.7826    1.9024    1.6451 H         1 GTP        -0.0393
     42 H8          0.7110    2.3472   -1.9295 H         1 GTP         0.0000
     43 HN1        -2.7504    5.7495    2.3282 H         1 GTP         0.0865
     44 HN21       -1.0467    3.8796    4.7190 H         1 GTP         0.2048
     45 HN22       -2.2294    5.1209    4.3680 H         1 GTP         0.2048
     46 H46        -1.0382    4.1687   -2.0954 H         1 GTP         0.2048
@<TRIPOS>BOND
     1    1    2 2
     2    1    3 1
     3    1    4 1
     4    1    5 1
     5    5    6 1
     6    6    7 2
     7    6    8 1
     8    6    9 1
     9    9   10 1
    10   10   11 2
    11   10   12 1
    12   10   13 1
    13   12   33 1
    14   13   14 1
    15   14   15 1
    16   14   34 1
    17   14   35 1
    18   15   16 1
    19   15   17 1
    20   15   36 1
    21   16   21 1
    22   17   18 1
    23   17   19 1
    24   17   37 1
    25   18   38 1
    26   19   20 1
    27   19   21 1
    28   19   39 1
    29   20   40 1
    30   21   22 1
    31   21   41 1
    32   22   23 ar
    33   22   32 ar
    34   23   24 ar
    35   23   42 1
    36   24   25 ar
    37   24   46 1
    38   25   26 ar
    39   25   32 ar
    40   26   27 2
    41   26   28 ar
    42   28   29 ar
    43   28   43 1
    44   29   30 1
    45   29   31 ar
    46   30   44 1
    47   30   45 1
    48   31   32 ar
@<TRIPOS>SUBSTRUCTURE
     1 GTP         1 GROUP 0 A     ****
@<TRIPOS>MOLECULE
[[[5-(2-amino-6-oxo-7,8-dihydro-1~{H}-purin-8-ylium-9-yl)-3,4-dihydroxy-tetrahydrofuran-2-yl]methoxy-hydroxy-phosphoryl]oxy-oxido-phosphoryl] phosphate
   46    48     1     0     0
SMALL
USER_CHARGES

@<TRIPOS>ATOM
      1 PG         -2.3715   -3.8407   -2.4509 P.3       1 GTP        -1.1921
      2 O1G        -2.3798   -5.2322   -3.0749 O.co2     1 GTP         0.3195
      3 O2G        -3.5727   -3.5428   -1.5603 O.co2     1 GTP         0.3195
      4 O3G        -2.0280   -2.7205   -3.4275 O.co2     1 GTP         0.3195
      5 O3B        -1.0892   -3.8637   -1.4160 O.3       1 GTP         0.4672
      6 PB          0.5040   -4.1203   -1.6650 P.3       1 GTP        -1.1062
      7 O1B         1.2495   -3.8683   -0.3734 O.co2     1 GTP         0.3195
      8 O2B         0.6629   -5.4263   -2.4119 O.co2     1 GTP         0.3195
      9 O3A         0.8103   -2.8926   -2.6954 O.3       1 GTP         0.4672
     10 PA          2.1894   -2.4541   -3.4192 P.3       1 GTP        -0.9715
     11 O1A         3.0202   -3.6067   -3.9039 O.2       1 GTP         0.2707
     12 O2A         1.7139   -1.4250   -4.5735 O.3       1 GTP         0.0326
     13 O5'         2.9216   -1.4836   -2.3516 O.3       1 GTP         0.1618
     14 C5'         2.2816   -0.2918   -1.9206 C.3       1 GTP         0.1504
     15 C4'         2.7248    0.0226   -0.4980 C.3       1 GTP         0.1111
     16 O4'         2.4697    1.4219   -0.2462 O.3       1 GTP        -0.1436
     17 C3'         1.9404   -0.7419    0.5596 C.3       1 GTP         0.1111
     18 O3'         2.7418   -0.8086    1.7389 O.3       1 GTP        -0.2728
     19 C2'         0.7477    0.1630    0.7858 C.3       1 GTP         0.1111
     20 O2'         0.1373   -0.0577    2.0407 O.3       1 GTP        -0.2728
     21 C1'         1.3733    1.5427    0.6747 C.3       1 GTP         0.2693
     22 N9          0.4520    2.5240    0.1767 N.pl3     1 GTP        -0.3222
     23 C8          0.2203    2.8205   -1.0970 C.ar      1 GTP         0.1640
     24 N7         -0.6947    3.7752   -1.2304 N.pl3     1 GTP        -0.3688
     25 C5         -1.0607    4.0987    0.0476 C.ar      1 GTP         0.0648
     26 C6         -2.0310    5.0839    0.5029 C.ar      1 GTP         0.3597
     27 O6         -2.6779    5.7867   -0.2609 O.2       1 GTP        -0.2755
     28 N1         -2.1030    5.0975    1.8948 N.pl3     1 GTP        -0.1604
     29 C2         -1.3422    4.2721    2.7403 C.ar      1 GTP         0.4468
     30 N2         -1.5624    4.4419    4.0823 N.pl3     1 GTP        -0.5618
     31 N3         -0.4796    3.3981    2.2792 N.2       1 GTP        -0.4283
     32 C4         -0.3754    3.3496    0.9208 C.ar      1 GTP         0.2226
     33 HOA2        1.1606   -1.7612   -5.3104 H         1 GTP         0.2010
     34 H5'         2.5589    0.5217   -2.5976 H         1 GTP        -0.0393
     35 H5''        1.1982   -0.4388   -1.9617 H         1 GTP        -0.0393
     36 H4'         3.8044   -0.1397   -0.4040 H         1 GTP        -0.0393
     37 H3'         1.6764   -1.7639    0.2728 H         1 GTP        -0.0393
     38 HO3'        2.2232   -1.2979    2.3953 H         1 GTP         0.2010
     39 H2'        -0.0011    0.0027    0.0003 H         1 GTP        -0.0393
     40 HO2'       -0.6141    0.5574    2.1082 H         1 GTP         0.2010
     41 H1'         1.7826    1.9024    1.6451 H         1 GTP        -0.0393
     42 H8          0.7110    2.3472   -1.9295 H         1 GTP         0.0000
     43 HN1        -2.7504    5.7495    2.3282 H         1 GTP         0.0865
     44 HN21       -1.0467    3.8796    4.7190 H         1 GTP         0.2048
     45 HN22       -2.2294    5.1209    4.3680 H         1 GTP         0.2048
     46 H46        -1.0382    4.1687   -2.0954 H         1 GTP         0.2048
@<TRIPOS>BOND
     1    1    2 2
     2    1    3 1
     3    1    4 1
     4    1    5 1
     5    5    6 1
     6    6    7 2
     7    6    8 1
     8    6    9 1
     9    9   10 1
    10   10   11 2
    11   10   12 1
    12   10   13 1
    13   12   33 1
    14   13   14 1
    15   14   15 1
    16   14   34 1
    17   14   35 1
    18   15   16 1
    19   15   17 1
    20   15   36 1
    21   16   21 1
    22   17   18 1
    23   17   19 1
    24   17   37 1
    25   18   38 1
    26   19   20 1
    27   19   21 1
    28   19   39 1
    29   20   40 1
    30   21   22 1
    31   21   41 1
    32   22   23 ar
    33   22   32 ar
    34   23   24 ar
    35   23   42 1
    36   24   25 ar
    37   24   46 1
    38   25   26 ar
    39   25   32 ar
    40   26   27 2
    41   26   28 ar
    42   28   29 ar
    43   28   43 1
    44   29   30 1
    45   29   31 ar
    46   30   44 1
    47   30   45 1
    48   31   32 ar
@<TRIPOS>SUBSTRUCTURE
     1 GTP         1 GROUP 0 A     ****
@<TRIPOS>MOLECULE
[[[5-(2-amino-6-oxo-7,8-dihydro-1~{H}-purin-8-ylium-9-yl)-3,4-dihydroxy-tetrahydrofuran-2-yl]methoxy-hydroxy-phosphoryl]oxy-oxido-phosphoryl] phosphate
   46    48     1     0     0
SMALL
USER_CHARGES

@<TRIPOS>ATOM
      1 PG         -1.2350   -0.6483   -7.2791 P.3       1 GTP        -1.1921
      2 O1G        -2.0294    0.4486   -6.5781 O.co2     1 GTP         0.3195
      3 O2G        -0.6639   -0.2443   -8.6339 O.co2     1 GTP         0.3195
      4 O3G        -1.9158   -2.0133   -7.2730 O.co2     1 GTP         0.3195
      5 O3B         0.0901   -0.8682   -6.3243 O.3       1 GTP         0.4672
      6 PB          0.2408   -1.3048   -4.7582 P.3       1 GTP        -1.1062
      7 O1B        -0.3310   -0.2093   -3.8860 O.co2     1 GTP         0.3195
      8 O2B        -0.2299   -2.7356   -4.6173 O.co2     1 GTP         0.3195
      9 O3A         1.8677   -1.2790   -4.6333 O.3       1 GTP         0.4672
     10 PA          2.8586   -2.1486   -3.6952 P.3       1 GTP        -0.9715
     11 O1A         2.7720   -3.6303   -3.9207 O.2       1 GTP         0.2707
     12 O2A         4.3174   -1.5032   -3.9651 O.3       1 GTP         0.0326
     13 O5'         2.5245   -1.6648   -2.1878 O.3       1 GTP         0.1618
     14 C5'         2.2816   -0.2918   -1.9206 C.3       1 GTP         0.1504
     15 C4'         2.7248    0.0226   -0.4980 C.3       1 GTP         0.1111
     16 O4'         2.4697    1.4219   -0.2462 O.3       1 GTP        -0.1436
     17 C3'         1.9404   -0.7419    0.5596 C.3       1 GTP         0.1111
     18 O3'         2.7418   -0.8086    1.7389 O.3       1 GTP        -0.2728
     19 C2'         0.7477    0.1630    0.7858 C.3       1 GTP         0.1111
     20 O2'         0.1373   -0.0577    2.0407 O.3       1 GTP        -0.2728
     21 C1'         1.3733    1.5427    0.6747 C.3       1 GTP         0.2693
     22 N9          0.4520    2.5240    0.1767 N.pl3     1 GTP        -0.3222
     23 C8         -0.2009    2.4849   -0.9792 C.ar      1 GTP         0.1640
     24 N7         -0.9840    3.5454   -1.1481 N.pl3     1 GTP        -0.3688
     25 C5         -0.8090    4.3005   -0.0206 C.ar      1 GTP         0.0648
     26 C6         -1.4206    5.5724    0.3362 C.ar      1 GTP         0.3597
     27 O6         -2.2199    6.1544   -0.3836 O.2       1 GTP        -0.2755
     28 N1         -0.9680    6.0043    1.5817 N.pl3     1 GTP        -0.1604
     29 C2         -0.0474    5.3055    2.3814 C.ar      1 GTP         0.4468
     30 N2          0.2680    5.9024    3.5740 N.pl3     1 GTP        -0.5618
     31 N3          0.4755    4.1601    2.0138 N.2       1 GTP        -0.4283
     32 C4          0.0611    3.6981    0.8001 C.ar      1 GTP         0.2226
     33 HOA2        5.0814   -1.8204   -3.4381 H         1 GTP         0.2010
     34 H5'         2.8432    0.3119   -2.6398 H         1 GTP        -0.0393
     35 H5''        1.2128   -0.0927   -2.0428 H         1 GTP        -0.0393
     36 H4'         3.8044   -0.1397   -0.4040 H         1 GTP        -0.0393
     37 H3'         1.6764   -1.7639    0.2728 H         1 GTP        -0.0393
     38 HO3'        2.2232   -1.2979    2.3953 H         1 GTP         0.2010
     39 H2'        -0.0011    0.0027    0.0003 H         1 GTP        -0.0393
     40 HO2'       -0.1563   -0.9855    2.0596 H         1 GTP         0.2010
     41 H1'         1.7826    1.9024    1.6451 H         1 GTP        -0.0393
     42 H8         -0.1126    1.6906   -1.6997 H         1 GTP         0.0000
     43 HN1        -1.3285    6.8855    1.9361 H         1 GTP         0.0865
     44 HN21        0.9153    5.4446    4.1732 H         1 GTP         0.2048
     45 HN22       -0.1624    6.7706    3.7948 H         1 GTP         0.2048
     46 H46        -1.5768    3.7405   -1.9429 H         1 GTP         0.2048
@<TRIPOS>BOND
     1    1    2 2
     2    1    3 1
     3    1    4 1
     4    1    5 1
     5    5    6 1
     6    6    7 2
     7    6    8 1
     8    6    9 1
     9    9   10 1
    10   10   11 2
    11   10   12 1
    12   10   13 1
    13   12   33 1
    14   13   14 1
    15   14   15 1
    16   14   34 1
    17   14   35 1
    18   15   16 1
    19   15   17 1
    20   15   36 1
    21   16   21 1
    22   17   18 1
    23   17   19 1
    24   17   37 1
    25   18   38 1
    26   19   20 1
    27   19   21 1
    28   19   39 1
    29   20   40 1
    30   21   22 1
    31   21   41 1
    32   22   23 ar
    33   22   32 ar
    34   23   24 ar
    35   23   42 1
    36   24   25 ar
    37   24   46 1
    38   25   26 ar
    39   25   32 ar
    40   26   27 2
    41   26   28 ar
    42   28   29 ar
    43   28   43 1
    44   29   30 1
    45   29   31 ar
    46   30   44 1
    47   30   45 1
    48   31   32 ar
@<TRIPOS>SUBSTRUCTURE
     1 GTP         1 GROUP 0 A     ****
@<TRIPOS>MOLECULE
[[[5-(2-amino-6-oxo-7,8-dihydro-1~{H}-purin-8-ylium-9-yl)-3,4-dihydroxy-tetrahydrofuran-2-yl]methoxy-hydroxy-phosphoryl]oxy-oxido-phosphoryl] phosphate
   46    48     1     0     0
SMALL
USER_CHARGES

@<TRIPOS>ATOM
      1 PG         -1.1494   -2.0754   -4.6480 P.3       1 GTP        -1.1921
      2 O1G        -1.1705   -0.5885   -4.3102 O.co2     1 GTP         0.3195
      3 O2G        -2.2433   -2.5174   -5.6139 O.co2     1 GTP         0.3195
      4 O3G        -0.9822   -2.9884   -3.4375 O.co2     1 GTP         0.3195
      5 O3B         0.2511   -2.2840   -5.4911 O.3       1 GTP         0.4672
      6 PB          1.8113   -2.0172   -5.0899 P.3       1 GTP        -1.1062
      7 O1B         2.1179   -2.7457   -3.8004 O.co2     1 GTP         0.3195
      8 O2B         2.6611   -2.2295   -6.3234 O.co2     1 GTP         0.3195
      9 O3A         1.7338   -0.4165   -4.7823 O.3       1 GTP         0.4672
     10 PA          2.8890    0.6159   -4.3157 P.3       1 GTP        -0.9715
     11 O1A         4.0363    0.7269   -5.2776 O.2       1 GTP         0.2707
     12 O2A         2.0915    1.9974   -4.0454 O.3       1 GTP         0.0326
     13 O5'         3.2903    0.1346   -2.8241 O.3       1 GTP         0.1618
     14 C5'         2.2816   -0.2918   -1.9206 C.3       1 GTP         0.1504
     15 C4'         2.7248    0.0226   -0.4980 C.3       1 GTP         0.1111
     16 O4'         2.4697    1.4219   -0.2462 O.3       1 GTP        -0.1436
     17 C3'         1.9404   -0.7419    0.5596 C.3       1 GTP         0.1111
     18 O3'         2.7418   -0.8086    1.7389 O.3       1 GTP        -0.2728
     19 C2'         0.7477    0.1630    0.7858 C.3       1 GTP         0.1111
     20 O2'         0.1373   -0.0577    2.0407 O.3       1 GTP        -0.2728
     21 C1'         1.3733    1.5427    0.6747 C.3       1 GTP         0.2693
     22 N9          0.4520    2.5240    0.1767 N.pl3     1 GTP        -0.3222
     23 C8          0.5671    3.2221   -0.9473 C.ar      1 GTP         0.1640
     24 N7         -0.4560    4.0508   -1.1290 N.pl3     1 GTP        -0.3688
     25 C5         -1.2671    3.8585   -0.0441 C.ar      1 GTP         0.0648
     26 C6         -2.5318    4.5014    0.2817 C.ar      1 GTP         0.3597
     27 O6         -3.0527    5.3493   -0.4293 O.2       1 GTP        -0.2755
     28 N1         -3.0357    4.0149    1.4868 N.pl3     1 GTP        -0.1604
     29 C2         -2.4069    3.0373    2.2768 C.ar      1 GTP         0.4468
     30 N2         -3.0679    2.6964    3.4278 N.pl3     1 GTP        -0.5618
     31 N3         -1.2653    2.4872    1.9379 N.2       1 GTP        -0.4283
     32 C4         -0.7342    2.9334    0.7643 C.ar      1 GTP         0.2226
     33 HOA2        2.5795    2.7616   -3.6715 H         1 GTP         0.2010
     34 H5'         1.3514    0.2330   -2.1577 H         1 GTP        -0.0393
     35 H5''        2.1280   -1.3678   -2.0460 H         1 GTP        -0.0393
     36 H4'         3.8044   -0.1397   -0.4040 H         1 GTP        -0.0393
     37 H3'         1.6764   -1.7639    0.2728 H         1 GTP        -0.0393
     38 HO3'        2.2232   -1.2979    2.3953 H         1 GTP         0.2010
     39 H2'        -0.0011    0.0027    0.0003 H         1 GTP        -0.0393
     40 HO2'       -0.1563   -0.9855    2.0596 H         1 GTP         0.2010
     41 H1'         1.7826    1.9024    1.6451 H         1 GTP        -0.0393
     42 H8          1.3888    3.1325   -1.6361 H         1 GTP         0.0000
     43 HN1        -3.9188    4.3932    1.8170 H         1 GTP         0.0865
     44 HN21       -2.6609    2.0087    4.0186 H         1 GTP         0.2048
     45 HN22       -3.9293    3.1496    3.6283 H         1 GTP         0.2048
     46 H46        -0.5938    4.6820   -1.9060 H         1 GTP         0.2048
@<TRIPOS>BOND
     1    1    2 2
     2    1    3 1
     3    1    4 1
     4    1    5 1
     5    5    6 1
     6    6    7 2
     7    6    8 1
     8    6    9 1
     9    9   10 1
    10   10   11 2
    11   10   12 1
    12   10   13 1
    13   12   33 1
    14   13   14 1
    15   14   15 1
    16   14   34 1
    17   14   35 1
    18   15   16 1
    19   15   17 1
    20   15   36 1
    21   16   21 1
    22   17   18 1
    23   17   19 1
    24   17   37 1
    25   18   38 1
    26   19   20 1
    27   19   21 1
    28   19   39 1
    29   20   40 1
    30   21   22 1
    31   21   41 1
    32   22   23 ar
    33   22   32 ar
    34   23   24 ar
    35   23   42 1
    36   24   25 ar
    37   24   46 1
    38   25   26 ar
    39   25   32 ar
    40   26   27 2
    41   26   28 ar
    42   28   29 ar
    43   28   43 1
    44   29   30 1
    45   29   31 ar
    46   30   44 1
    47   30   45 1
    48   31   32 ar
@<TRIPOS>SUBSTRUCTURE
     1 GTP         1 GROUP 0 A     ****
@<TRIPOS>MOLECULE
[[[5-(2-amino-6-oxo-7,8-dihydro-1~{H}-purin-8-ylium-9-yl)-3,4-dihydroxy-tetrahydrofuran-2-yl]methoxy-hydroxy-phosphoryl]oxy-oxido-phosphoryl] phosphate
   46    48     1     0     0
SMALL
USER_CHARGES

@<TRIPOS>ATOM
      1 PG          4.9804   -1.7118   -6.9119 P.3       1 GTP        -1.1921
      2 O1G         5.1822   -3.2230   -6.8749 O.co2     1 GTP         0.3195
      3 O2G         5.5255   -1.0342   -8.1644 O.co2     1 GTP         0.3195
      4 O3G         5.3438   -1.0013   -5.6120 O.co2     1 GTP         0.3195
      5 O3B         3.3472   -1.5192   -7.0191 O.3       1 GTP         0.4672
      6 PB          2.1307   -1.9879   -6.0360 P.3       1 GTP        -1.1062
      7 O1B         0.8329   -1.4043   -6.5484 O.co2     1 GTP         0.3195
      8 O2B         2.2692   -3.4734   -5.7851 O.co2     1 GTP         0.3195
      9 O3A         2.5655   -1.1900   -4.6806 O.3       1 GTP         0.4672
     10 PA          2.7598    0.3945   -4.4166 P.3       1 GTP        -0.9715
     11 O1A         3.8049    1.0362   -5.2825 O.2       1 GTP         0.2707
     12 O2A         1.2702    1.0033   -4.5836 O.3       1 GTP         0.0326
     13 O5'         3.0213    0.5153   -2.8245 O.3       1 GTP         0.1618
     14 C5'         2.2816   -0.2918   -1.9206 C.3       1 GTP         0.1504
     15 C4'         2.7248    0.0226   -0.4980 C.3       1 GTP         0.1111
     16 O4'         2.4697    1.4219   -0.2462 O.3       1 GTP        -0.1436
     17 C3'         1.9404   -0.7419    0.5596 C.3       1 GTP         0.1111
     18 O3'         2.7418   -0.8086    1.7389 O.3       1 GTP        -0.2728
     19 C2'         0.7477    0.1630    0.7858 C.3       1 GTP         0.1111
     20 O2'         0.1373   -0.0577    2.0407 O.3       1 GTP        -0.2728
     21 C1'         1.3733    1.5427    0.6747 C.3       1 GTP         0.2693
     22 N9          0.4520    2.5240    0.1767 N.pl3     1 GTP        -0.3222
     23 C8          0.5671    3.2221   -0.9473 C.ar      1 GTP         0.1640
     24 N7         -0.4560    4.0508   -1.1290 N.pl3     1 GTP        -0.3688
     25 C5         -1.2671    3.8585   -0.0441 C.ar      1 GTP         0.0648
     26 C6         -2.5318    4.5014    0.2817 C.ar      1 GTP         0.3597
     27 O6         -3.0527    5.3493   -0.4293 O.2       1 GTP        -0.2755
     28 N1         -3.0357    4.0149    1.4868 N.pl3     1 GTP        -0.1604
     29 C2         -2.4069    3.0373    2.2768 C.ar      1 GTP         0.4468
     30 N2         -3.0679    2.6964    3.4278 N.pl3     1 GTP        -0.5618
     31 N3         -1.2653    2.4872    1.9379 N.2       1 GTP        -0.4283
     32 C4         -0.7342    2.9334    0.7643 C.ar      1 GTP         0.2226
     33 HOA2        0.8377    0.9648   -5.4631 H         1 GTP         0.2010
     34 H5'         1.2163   -0.0770   -2.0471 H         1 GTP        -0.0393
     35 H5''        2.4655   -1.3443   -2.1563 H         1 GTP        -0.0393
     36 H4'         3.8044   -0.1397   -0.4040 H         1 GTP        -0.0393
     37 H3'         1.6764   -1.7639    0.2728 H         1 GTP        -0.0393
     38 HO3'        2.2232   -1.2979    2.3953 H         1 GTP         0.2010
     39 H2'        -0.0011    0.0027    0.0003 H         1 GTP        -0.0393
     40 HO2'       -0.1563   -0.9855    2.0596 H         1 GTP         0.2010
     41 H1'         1.7826    1.9024    1.6451 H         1 GTP        -0.0393
     42 H8          1.3888    3.1325   -1.6361 H         1 GTP         0.0000
     43 HN1        -3.9188    4.3932    1.8170 H         1 GTP         0.0865
     44 HN21       -2.6609    2.0087    4.0186 H         1 GTP         0.2048
     45 HN22       -3.9293    3.1496    3.6283 H         1 GTP         0.2048
     46 H46        -0.5938    4.6820   -1.9060 H         1 GTP         0.2048
@<TRIPOS>BOND
     1    1    2 2
     2    1    3 1
     3    1    4 1
     4    1    5 1
     5    5    6 1
     6    6    7 2
     7    6    8 1
     8    6    9 1
     9    9   10 1
    10   10   11 2
    11   10   12 1
    12   10   13 1
    13   12   33 1
    14   13   14 1
    15   14   15 1
    16   14   34 1
    17   14   35 1
    18   15   16 1
    19   15   17 1
    20   15   36 1
    21   16   21 1
    22   17   18 1
    23   17   19 1
    24   17   37 1
    25   18   38 1
    26   19   20 1
    27   19   21 1
    28   19   39 1
    29   20   40 1
    30   21   22 1
    31   21   41 1
    32   22   23 ar
    33   22   32 ar
    34   23   24 ar
    35   23   42 1
    36   24   25 ar
    37   24   46 1
    38   25   26 ar
    39   25   32 ar
    40   26   27 2
    41   26   28 ar
    42   28   29 ar
    43   28   43 1
    44   29   30 1
    45   29   31 ar
    46   30   44 1
    47   30   45 1
    48   31   32 ar
@<TRIPOS>SUBSTRUCTURE
     1 GTP         1 GROUP 0 A     ****
@<TRIPOS>MOLECULE
[[[5-(2-amino-6-oxo-7,8-dihydro-1~{H}-purin-8-ylium-9-yl)-3,4-dihydroxy-tetrahydrofuran-2-yl]methoxy-hydroxy-phosphoryl]oxy-oxido-phosphoryl] phosphate
   46    48     1     0     0
SMALL
USER_CHARGES

@<TRIPOS>ATOM
      1 PG          4.7548   -4.5758   -3.3334 P.3       1 GTP        -1.1921
      2 O1G         3.5476   -4.2538   -4.2078 O.co2     1 GTP         0.3195
      3 O2G         5.6181   -5.7219   -3.8492 O.co2     1 GTP         0.3195
      4 O3G         4.4428   -4.6542   -1.8424 O.co2     1 GTP         0.3195
      5 O3B         5.7195   -3.2458   -3.4613 O.3       1 GTP         0.4672
      6 PB          5.4601   -1.6757   -3.0958 P.3       1 GTP        -1.1062
      7 O1B         4.9897   -1.5769   -1.6617 O.co2     1 GTP         0.3195
      8 O2B         6.6471   -0.8733   -3.5812 O.co2     1 GTP         0.3195
      9 O3A         4.1953   -1.3810   -4.0840 O.3       1 GTP         0.4672
     10 PA          3.3423   -0.0257   -4.3151 P.3       1 GTP        -0.9715
     11 O1A         4.0065    0.9689   -5.2226 O.2       1 GTP         0.2707
     12 O2A         1.9005   -0.5544   -4.8241 O.3       1 GTP         0.0326
     13 O5'         3.0213    0.5153   -2.8245 O.3       1 GTP         0.1618
     14 C5'         2.2816   -0.2918   -1.9206 C.3       1 GTP         0.1504
     15 C4'         2.7248    0.0226   -0.4980 C.3       1 GTP         0.1111
     16 O4'         2.4697    1.4219   -0.2462 O.3       1 GTP        -0.1436
     17 C3'         1.9404   -0.7419    0.5596 C.3       1 GTP         0.1111
     18 O3'         2.7418   -0.8086    1.7389 O.3       1 GTP        -0.2728
     19 C2'         0.7477    0.1630    0.7858 C.3       1 GTP         0.1111
     20 O2'         0.1373   -0.0577    2.0407 O.3       1 GTP        -0.2728
     21 C1'         1.3733    1.5427    0.6747 C.3       1 GTP         0.2693
     22 N9          0.4520    2.5240    0.1767 N.pl3     1 GTP        -0.3222
     23 C8         -0.2009    2.4849   -0.9792 C.ar      1 GTP         0.1640
     24 N7         -0.9840    3.5454   -1.1481 N.pl3     1 GTP        -0.3688
     25 C5         -0.8090    4.3005   -0.0206 C.ar      1 GTP         0.0648
     26 C6         -1.4206    5.5724    0.3362 C.ar      1 GTP         0.3597
     27 O6         -2.2199    6.1544   -0.3836 O.2       1 GTP        -0.2755
     28 N1         -0.9680    6.0043    1.5817 N.pl3     1 GTP        -0.1604
     29 C2         -0.0474    5.3055    2.3814 C.ar      1 GTP         0.4468
     30 N2          0.2680    5.9024    3.5740 N.pl3     1 GTP        -0.5618
     31 N3          0.4755    4.1601    2.0138 N.2       1 GTP        -0.4283
     32 C4          0.0611    3.6981    0.8001 C.ar      1 GTP         0.2226
     33 HOA2        1.8422   -1.0165   -5.6873 H         1 GTP         0.2010
     34 H5'         1.2163   -0.0770   -2.0471 H         1 GTP        -0.0393
     35 H5''        2.4655   -1.3443   -2.1563 H         1 GTP        -0.0393
     36 H4'         3.8044   -0.1397   -0.4040 H         1 GTP        -0.0393
     37 H3'         1.6764   -1.7639    0.2728 H         1 GTP        -0.0393
     38 HO3'        2.2232   -1.2979    2.3953 H         1 GTP         0.2010
     39 H2'        -0.0011    0.0027    0.0003 H         1 GTP        -0.0393
     40 HO2'       -0.1563   -0.9855    2.0596 H         1 GTP         0.2010
     41 H1'         1.7826    1.9024    1.6451 H         1 GTP        -0.0393
     42 H8         -0.1126    1.6906   -1.6997 H         1 GTP         0.0000
     43 HN1        -1.3285    6.8855    1.9361 H         1 GTP         0.0865
     44 HN21        0.9153    5.4446    4.1732 H         1 GTP         0.2048
     45 HN22       -0.1624    6.7706    3.7948 H         1 GTP         0.2048
     46 H46        -1.5768    3.7405   -1.9429 H         1 GTP         0.2048
@<TRIPOS>BOND
     1    1    2 2
     2    1    3 1
     3    1    4 1
     4    1    5 1
     5    5    6 1
     6    6    7 2
     7    6    8 1
     8    6    9 1
     9    9   10 1
    10   10   11 2
    11   10   12 1
    12   10   13 1
    13   12   33 1
    14   13   14 1
    15   14   15 1
    16   14   34 1
    17   14   35 1
    18   15   16 1
    19   15   17 1
    20   15   36 1
    21   16   21 1
    22   17   18 1
    23   17   19 1
    24   17   37 1
    25   18   38 1
    26   19   20 1
    27   19   21 1
    28   19   39 1
    29   20   40 1
    30   21   22 1
    31   21   41 1
    32   22   23 ar
    33   22   32 ar
    34   23   24 ar
    35   23   42 1
    36   24   25 ar
    37   24   46 1
    38   25   26 ar
    39   25   32 ar
    40   26   27 2
    41   26   28 ar
    42   28   29 ar
    43   28   43 1
    44   29   30 1
    45   29   31 ar
    46   30   44 1
    47   30   45 1
    48   31   32 ar
@<TRIPOS>SUBSTRUCTURE
     1 GTP         1 GROUP 0 A     ****
@<TRIPOS>MOLECULE
[[[5-(2-amino-6-oxo-7,8-dihydro-1~{H}-purin-8-ylium-9-yl)-3,4-dihydroxy-tetrahydrofuran-2-yl]methoxy-hydroxy-phosphoryl]oxy-oxido-phosphoryl] phosphate
   46    48     1     0     0
SMALL
USER_CHARGES

@<TRIPOS>ATOM
      1 PG         -0.2057   -2.5817   -6.9618 P.3       1 GTP        -1.1921
      2 O1G         0.7234   -3.2447   -7.9731 O.co2     1 GTP         0.3195
      3 O2G        -1.4273   -3.4145   -6.5887 O.co2     1 GTP         0.3195
      4 O3G        -0.5185   -1.1201   -7.2657 O.co2     1 GTP         0.3195
      5 O3B         0.6818   -2.5113   -5.5750 O.3       1 GTP         0.4672
      6 PB          2.1065   -1.7910   -5.2319 P.3       1 GTP        -1.1062
      7 O1B         2.7385   -2.4917   -4.0499 O.co2     1 GTP         0.3195
      8 O2B         2.8691   -1.6080   -6.5255 O.co2     1 GTP         0.3195
      9 O3A         1.5544   -0.3348   -4.7444 O.3       1 GTP         0.4672
     10 PA          2.3603    0.9703   -4.2294 P.3       1 GTP        -0.9715
     11 O1A         3.3255    1.5302   -5.2338 O.2       1 GTP         0.2707
     12 O2A         1.1939    1.9905   -3.7643 O.3       1 GTP         0.0326
     13 O5'         3.0213    0.5153   -2.8245 O.3       1 GTP         0.1618
     14 C5'         2.2816   -0.2918   -1.9206 C.3       1 GTP         0.1504
     15 C4'         2.7248    0.0226   -0.4980 C.3       1 GTP         0.1111
     16 O4'         2.4697    1.4219   -0.2462 O.3       1 GTP        -0.1436
     17 C3'         1.9404   -0.7419    0.5596 C.3       1 GTP         0.1111
     18 O3'         2.7418   -0.8086    1.7389 O.3       1 GTP        -0.2728
     19 C2'         0.7477    0.1630    0.7858 C.3       1 GTP         0.1111
     20 O2'         0.1373   -0.0577    2.0407 O.3       1 GTP        -0.2728
     21 C1'         1.3733    1.5427    0.6747 C.3       1 GTP         0.2693
     22 N9          0.4520    2.5240    0.1767 N.pl3     1 GTP        -0.3222
     23 C8         -0.2009    2.4849   -0.9792 C.ar      1 GTP         0.1640
     24 N7         -0.9840    3.5454   -1.1481 N.pl3     1 GTP        -0.3688
     25 C5         -0.8090    4.3005   -0.0206 C.ar      1 GTP         0.0648
     26 C6         -1.4206    5.5724    0.3362 C.ar      1 GTP         0.3597
     27 O6         -2.2199    6.1544   -0.3836 O.2       1 GTP        -0.2755
     28 N1         -0.9680    6.0043    1.5817 N.pl3     1 GTP        -0.1604
     29 C2         -0.0474    5.3055    2.3814 C.ar      1 GTP         0.4468
     30 N2          0.2680    5.9024    3.5740 N.pl3     1 GTP        -0.5618
     31 N3          0.4755    4.1601    2.0138 N.2       1 GTP        -0.4283
     32 C4          0.0611    3.6981    0.8001 C.ar      1 GTP         0.2226
     33 HOA2        0.5790    2.3478   -4.4398 H         1 GTP         0.2010
     34 H5'         1.2163   -0.0770   -2.0471 H         1 GTP        -0.0393
     35 H5''        2.4655   -1.3443   -2.1563 H         1 GTP        -0.0393
     36 H4'         3.8044   -0.1397   -0.4040 H         1 GTP        -0.0393
     37 H3'         1.6764   -1.7639    0.2728 H         1 GTP        -0.0393
     38 HO3'        2.2232   -1.2979    2.3953 H         1 GTP         0.2010
     39 H2'        -0.0011    0.0027    0.0003 H         1 GTP        -0.0393
     40 HO2'       -0.1563   -0.9855    2.0596 H         1 GTP         0.2010
     41 H1'         1.7826    1.9024    1.6451 H         1 GTP        -0.0393
     42 H8         -0.1126    1.6906   -1.6997 H         1 GTP         0.0000
     43 HN1        -1.3285    6.8855    1.9361 H         1 GTP         0.0865
     44 HN21        0.9153    5.4446    4.1732 H         1 GTP         0.2048
     45 HN22       -0.1624    6.7706    3.7948 H         1 GTP         0.2048
     46 H46        -1.5768    3.7405   -1.9429 H         1 GTP         0.2048
@<TRIPOS>BOND
     1    1    2 2
     2    1    3 1
     3    1    4 1
     4    1    5 1
     5    5    6 1
     6    6    7 2
     7    6    8 1
     8    6    9 1
     9    9   10 1
    10   10   11 2
    11   10   12 1
    12   10   13 1
    13   12   33 1
    14   13   14 1
    15   14   15 1
    16   14   34 1
    17   14   35 1
    18   15   16 1
    19   15   17 1
    20   15   36 1
    21   16   21 1
    22   17   18 1
    23   17   19 1
    24   17   37 1
    25   18   38 1
    26   19   20 1
    27   19   21 1
    28   19   39 1
    29   20   40 1
    30   21   22 1
    31   21   41 1
    32   22   23 ar
    33   22   32 ar
    34   23   24 ar
    35   23   42 1
    36   24   25 ar
    37   24   46 1
    38   25   26 ar
    39   25   32 ar
    40   26   27 2
    41   26   28 ar
    42   28   29 ar
    43   28   43 1
    44   29   30 1
    45   29   31 ar
    46   30   44 1
    47   30   45 1
    48   31   32 ar
@<TRIPOS>SUBSTRUCTURE
     1 GTP         1 GROUP 0 A     ****
@<TRIPOS>MOLECULE
[[[5-(2-amino-6-oxo-7,8-dihydro-1~{H}-purin-8-ylium-9-yl)-3,4-dihydroxy-tetrahydrofuran-2-yl]methoxy-hydroxy-phosphoryl]oxy-oxido-phosphoryl] phosphate
   46    48     1     0     0
SMALL
USER_CHARGES

@<TRIPOS>ATOM
      1 PG          1.8576   -4.4301    0.9875 P.3       1 GTP        -1.1921
      2 O1G         2.3560   -5.8231    0.6177 O.co2     1 GTP         0.3195
      3 O2G         2.9129   -3.5321    1.6237 O.co2     1 GTP         0.3195
      4 O3G         0.5141   -4.4190    1.7096 O.co2     1 GTP         0.3195
      5 O3B         1.5290   -3.7150   -0.4604 O.3       1 GTP         0.4672
      6 PB          0.5040   -4.1203   -1.6650 P.3       1 GTP        -1.1062
      7 O1B         0.9737   -5.4125   -2.2953 O.co2     1 GTP         0.3195
      8 O2B        -0.9118   -3.9757   -1.1518 O.co2     1 GTP         0.3195
      9 O3A         0.8103   -2.8926   -2.6954 O.3       1 GTP         0.4672
     10 PA          2.1894   -2.4541   -3.4192 P.3       1 GTP        -0.9715
     11 O1A         3.0202   -3.6067   -3.9039 O.2       1 GTP         0.2707
     12 O2A         1.7139   -1.4250   -4.5735 O.3       1 GTP         0.0326
     13 O5'         2.9216   -1.4836   -2.3516 O.3       1 GTP         0.1618
     14 C5'         2.2816   -0.2918   -1.9206 C.3       1 GTP         0.1504
     15 C4'         2.7248    0.0226   -0.4980 C.3       1 GTP         0.1111
     16 O4'         2.4697    1.4219   -0.2462 O.3       1 GTP        -0.1436
     17 C3'         1.9404   -0.7419    0.5596 C.3       1 GTP         0.1111
     18 O3'         2.7418   -0.8086    1.7389 O.3       1 GTP        -0.2728
     19 C2'         0.7477    0.1630    0.7858 C.3       1 GTP         0.1111
     20 O2'         0.1373   -0.0577    2.0407 O.3       1 GTP        -0.2728
     21 C1'         1.3733    1.5427    0.6747 C.3       1 GTP         0.2693
     22 N9          0.4520    2.5240    0.1767 N.pl3     1 GTP        -0.3222
     23 C8          0.2203    2.8205   -1.0970 C.ar      1 GTP         0.1640
     24 N7         -0.6947    3.7752   -1.2304 N.pl3     1 GTP        -0.3688
     25 C5         -1.0607    4.0987    0.0476 C.ar      1 GTP         0.0648
     26 C6         -2.0310    5.0839    0.5029 C.ar      1 GTP         0.3597
     27 O6         -2.6779    5.7867   -0.2609 O.2       1 GTP        -0.2755
     28 N1         -2.1030    5.0975    1.8948 N.pl3     1 GTP        -0.1604
     29 C2         -1.3422    4.2721    2.7403 C.ar      1 GTP         0.4468
     30 N2         -1.5624    4.4419    4.0823 N.pl3     1 GTP        -0.5618
     31 N3         -0.4796    3.3981    2.2792 N.2       1 GTP        -0.4283
     32 C4         -0.3754    3.3496    0.9208 C.ar      1 GTP         0.2226
     33 HOA2        1.1606   -1.7612   -5.3104 H         1 GTP         0.2010
     34 H5'         2.5589    0.5217   -2.5976 H         1 GTP        -0.0393
     35 H5''        1.1982   -0.4388   -1.9617 H         1 GTP        -0.0393
     36 H4'         3.8044   -0.1397   -0.4040 H         1 GTP        -0.0393
     37 H3'         1.6764   -1.7639    0.2728 H         1 GTP        -0.0393
     38 HO3'        2.2232   -1.2979    2.3953 H         1 GTP         0.2010
     39 H2'        -0.0011    0.0027    0.0003 H         1 GTP        -0.0393
     40 HO2'       -0.1563   -0.9855    2.0596 H         1 GTP         0.2010
     41 H1'         1.7826    1.9024    1.6451 H         1 GTP        -0.0393
     42 H8          0.7110    2.3472   -1.9295 H         1 GTP         0.0000
     43 HN1        -2.7504    5.7495    2.3282 H         1 GTP         0.0865
     44 HN21       -1.0467    3.8796    4.7190 H         1 GTP         0.2048
     45 HN22       -2.2294    5.1209    4.3680 H         1 GTP         0.2048
     46 H46        -1.0382    4.1687   -2.0954 H         1 GTP         0.2048
@<TRIPOS>BOND
     1    1    2 2
     2    1    3 1
     3    1    4 1
     4    1    5 1
     5    5    6 1
     6    6    7 2
     7    6    8 1
     8    6    9 1
     9    9   10 1
    10   10   11 2
    11   10   12 1
    12   10   13 1
    13   12   33 1
    14   13   14 1
    15   14   15 1
    16   14   34 1
    17   14   35 1
    18   15   16 1
    19   15   17 1
    20   15   36 1
    21   16   21 1
    22   17   18 1
    23   17   19 1
    24   17   37 1
    25   18   38 1
    26   19   20 1
    27   19   21 1
    28   19   39 1
    29   20   40 1
    30   21   22 1
    31   21   41 1
    32   22   23 ar
    33   22   32 ar
    34   23   24 ar
    35   23   42 1
    36   24   25 ar
    37   24   46 1
    38   25   26 ar
    39   25   32 ar
    40   26   27 2
    41   26   28 ar
    42   28   29 ar
    43   28   43 1
    44   29   30 1
    45   29   31 ar
    46   30   44 1
    47   30   45 1
    48   31   32 ar
@<TRIPOS>SUBSTRUCTURE
     1 GTP         1 GROUP 0 A     ****
@<TRIPOS>MOLECULE
[[[5-(2-amino-6-oxo-7,8-dihydro-1~{H}-purin-8-ylium-9-yl)-3,4-dihydroxy-tetrahydrofuran-2-yl]methoxy-hydroxy-phosphoryl]oxy-oxido-phosphoryl] phosphate
   46    48     1     0     0
SMALL
USER_CHARGES

@<TRIPOS>ATOM
      1 PG          8.7567   -2.1273   -1.7243 P.3       1 GTP        -1.1921
      2 O1G         8.5182   -2.2206   -0.2209 O.co2     1 GTP         0.3195
      3 O2G         9.1775   -3.4392   -2.3777 O.co2     1 GTP         0.3195
      4 O3G         9.5917   -0.9241   -2.1505 O.co2     1 GTP         0.3195
      5 O3B         7.2676   -1.8132   -2.3565 O.3       1 GTP         0.4672
      6 PB          6.2213   -0.5833   -2.1141 P.3       1 GTP        -1.1062
      7 O1B         5.7156   -0.6426   -0.6899 O.co2     1 GTP         0.3195
      8 O2B         6.8401    0.6816   -2.6670 O.co2     1 GTP         0.3195
      9 O3A         5.0231   -1.0558   -3.1161 O.3       1 GTP         0.4672
     10 PA          3.9517   -0.1778   -3.9522 P.3       1 GTP        -0.9715
     11 O1A         4.5722    0.7720   -4.9354 O.2       1 GTP         0.2707
     12 O2A         2.9652   -1.2826   -4.6031 O.3       1 GTP         0.0326
     13 O5'         3.0213    0.5153   -2.8245 O.3       1 GTP         0.1618
     14 C5'         2.2816   -0.2918   -1.9206 C.3       1 GTP         0.1504
     15 C4'         2.7248    0.0226   -0.4980 C.3       1 GTP         0.1111
     16 O4'         2.4697    1.4219   -0.2462 O.3       1 GTP        -0.1436
     17 C3'         1.9404   -0.7419    0.5596 C.3       1 GTP         0.1111
     18 O3'         2.7418   -0.8086    1.7389 O.3       1 GTP        -0.2728
     19 C2'         0.7477    0.1630    0.7858 C.3       1 GTP         0.1111
     20 O2'         0.1373   -0.0577    2.0407 O.3       1 GTP        -0.2728
     21 C1'         1.3733    1.5427    0.6747 C.3       1 GTP         0.2693
     22 N9          0.4520    2.5240    0.1767 N.pl3     1 GTP        -0.3222
     23 C8         -0.2009    2.4849   -0.9792 C.ar      1 GTP         0.1640
     24 N7         -0.9840    3.5454   -1.1481 N.pl3     1 GTP        -0.3688
     25 C5         -0.8090    4.3005   -0.0206 C.ar      1 GTP         0.0648
     26 C6         -1.4206    5.5724    0.3362 C.ar      1 GTP         0.3597
     27 O6         -2.2199    6.1544   -0.3836 O.2       1 GTP        -0.2755
     28 N1         -0.9680    6.0043    1.5817 N.pl3     1 GTP        -0.1604
     29 C2         -0.0474    5.3055    2.3814 C.ar      1 GTP         0.4468
     30 N2          0.2680    5.9024    3.5740 N.pl3     1 GTP        -0.5618
     31 N3          0.4755    4.1601    2.0138 N.2       1 GTP        -0.4283
     32 C4          0.0611    3.6981    0.8001 C.ar      1 GTP         0.2226
     33 HOA2        2.1750   -0.9797   -5.0990 H         1 GTP         0.2010
     34 H5'         1.2163   -0.0770   -2.0471 H         1 GTP        -0.0393
     35 H5''        2.4655   -1.3443   -2.1563 H         1 GTP        -0.0393
     36 H4'         3.8044   -0.1397   -0.4040 H         1 GTP        -0.0393
     37 H3'         1.6764   -1.7639    0.2728 H         1 GTP        -0.0393
     38 HO3'        2.2232   -1.2979    2.3953 H         1 GTP         0.2010
     39 H2'        -0.0011    0.0027    0.0003 H         1 GTP        -0.0393
     40 HO2'       -0.6141    0.5574    2.1082 H         1 GTP         0.2010
     41 H1'         1.7826    1.9024    1.6451 H         1 GTP        -0.0393
     42 H8         -0.1126    1.6906   -1.6997 H         1 GTP         0.0000
     43 HN1        -1.3285    6.8855    1.9361 H         1 GTP         0.0865
     44 HN21        0.9153    5.4446    4.1732 H         1 GTP         0.2048
     45 HN22       -0.1624    6.7706    3.7948 H         1 GTP         0.2048
     46 H46        -1.5768    3.7405   -1.9429 H         1 GTP         0.2048
@<TRIPOS>BOND
     1    1    2 2
     2    1    3 1
     3    1    4 1
     4    1    5 1
     5    5    6 1
     6    6    7 2
     7    6    8 1
     8    6    9 1
     9    9   10 1
    10   10   11 2
    11   10   12 1
    12   10   13 1
    13   12   33 1
    14   13   14 1
    15   14   15 1
    16   14   34 1
    17   14   35 1
    18   15   16 1
    19   15   17 1
    20   15   36 1
    21   16   21 1
    22   17   18 1
    23   17   19 1
    24   17   37 1
    25   18   38 1
    26   19   20 1
    27   19   21 1
    28   19   39 1
    29   20   40 1
    30   21   22 1
    31   21   41 1
    32   22   23 ar
    33   22   32 ar
    34   23   24 ar
    35   23   42 1
    36   24   25 ar
    37   24   46 1
    38   25   26 ar
    39   25   32 ar
    40   26   27 2
    41   26   28 ar
    42   28   29 ar
    43   28   43 1
    44   29   30 1
    45   29   31 ar
    46   30   44 1
    47   30   45 1
    48   31   32 ar
@<TRIPOS>SUBSTRUCTURE
     1 GTP         1 GROUP 0 A     ****
@<TRIPOS>MOLECULE
[[[5-(2-amino-6-oxo-7,8-dihydro-1~{H}-purin-8-ylium-9-yl)-3,4-dihydroxy-tetrahydrofuran-2-yl]methoxy-hydroxy-phosphoryl]oxy-oxido-phosphoryl] phosphate
   46    48     1     0     0
SMALL
USER_CHARGES

@<TRIPOS>ATOM
      1 PG          2.7594   -4.3374   -1.5480 P.3       1 GTP        -1.1921
      2 O1G         4.2724   -4.4931   -1.4364 O.co2     1 GTP         0.3195
      3 O2G         2.0863   -3.8061   -0.2872 O.co2     1 GTP         0.3195
      4 O3G         2.0528   -5.5363   -2.1723 O.co2     1 GTP         0.3195
      5 O3B         2.5520   -3.1389   -2.6600 O.3       1 GTP         0.4672
      6 PB          3.0101   -3.0148   -4.2223 P.3       1 GTP        -1.1062
      7 O1B         4.5199   -2.9526   -4.2877 O.co2     1 GTP         0.3195
      8 O2B         2.2390   -4.0390   -5.0254 O.co2     1 GTP         0.3195
      9 O3A         2.4093   -1.5346   -4.5557 O.3       1 GTP         0.4672
     10 PA          3.0905   -0.0736   -4.4161 P.3       1 GTP        -0.9715
     11 O1A         4.3323    0.1046   -5.2408 O.2       1 GTP         0.2707
     12 O2A         1.8889    0.9520   -4.7650 O.3       1 GTP         0.0326
     13 O5'         3.2903    0.1346   -2.8241 O.3       1 GTP         0.1618
     14 C5'         2.2816   -0.2918   -1.9206 C.3       1 GTP         0.1504
     15 C4'         2.7248    0.0226   -0.4980 C.3       1 GTP         0.1111
     16 O4'         2.4697    1.4219   -0.2462 O.3       1 GTP        -0.1436
     17 C3'         1.9404   -0.7419    0.5596 C.3       1 GTP         0.1111
     18 O3'         2.7418   -0.8086    1.7389 O.3       1 GTP        -0.2728
     19 C2'         0.7477    0.1630    0.7858 C.3       1 GTP         0.1111
     20 O2'         0.1373   -0.0577    2.0407 O.3       1 GTP        -0.2728
     21 C1'         1.3733    1.5427    0.6747 C.3       1 GTP         0.2693
     22 N9          0.4520    2.5240    0.1767 N.pl3     1 GTP        -0.3222
     23 C8         -0.2009    2.4849   -0.9792 C.ar      1 GTP         0.1640
     24 N7         -0.9840    3.5454   -1.1481 N.pl3     1 GTP        -0.3688
     25 C5         -0.8090    4.3005   -0.0206 C.ar      1 GTP         0.0648
     26 C6         -1.4206    5.5724    0.3362 C.ar      1 GTP         0.3597
     27 O6         -2.2199    6.1544   -0.3836 O.2       1 GTP        -0.2755
     28 N1         -0.9680    6.0043    1.5817 N.pl3     1 GTP        -0.1604
     29 C2         -0.0474    5.3055    2.3814 C.ar      1 GTP         0.4468
     30 N2          0.2680    5.9024    3.5740 N.pl3     1 GTP        -0.5618
     31 N3          0.4755    4.1601    2.0138 N.2       1 GTP        -0.4283
     32 C4          0.0611    3.6981    0.8001 C.ar      1 GTP         0.2226
     33 HOA2        2.0444    1.9156   -4.6681 H         1 GTP         0.2010
     34 H5'         1.3514    0.2330   -2.1577 H         1 GTP        -0.0393
     35 H5''        2.1280   -1.3678   -2.0460 H         1 GTP        -0.0393
     36 H4'         3.8044   -0.1397   -0.4040 H         1 GTP        -0.0393
     37 H3'         1.6764   -1.7639    0.2728 H         1 GTP        -0.0393
     38 HO3'        2.2232   -1.2979    2.3953 H         1 GTP         0.2010
     39 H2'        -0.0011    0.0027    0.0003 H         1 GTP        -0.0393
     40 HO2'       -0.6141    0.5574    2.1082 H         1 GTP         0.2010
     41 H1'         1.7826    1.9024    1.6451 H         1 GTP        -0.0393
     42 H8         -0.1126    1.6906   -1.6997 H         1 GTP         0.0000
     43 HN1        -1.3285    6.8855    1.9361 H         1 GTP         0.0865
     44 HN21        0.9153    5.4446    4.1732 H         1 GTP         0.2048
     45 HN22       -0.1624    6.7706    3.7948 H         1 GTP         0.2048
     46 H46        -1.5768    3.7405   -1.9429 H         1 GTP         0.2048
@<TRIPOS>BOND
     1    1    2 2
     2    1    3 1
     3    1    4 1
     4    1    5 1
     5    5    6 1
     6    6    7 2
     7    6    8 1
     8    6    9 1
     9    9   10 1
    10   10   11 2
    11   10   12 1
    12   10   13 1
    13   12   33 1
    14   13   14 1
    15   14   15 1
    16   14   34 1
    17   14   35 1
    18   15   16 1
    19   15   17 1
    20   15   36 1
    21   16   21 1
    22   17   18 1
    23   17   19 1
    24   17   37 1
    25   18   38 1
    26   19   20 1
    27   19   21 1
    28   19   39 1
    29   20   40 1
    30   21   22 1
    31   21   41 1
    32   22   23 ar
    33   22   32 ar
    34   23   24 ar
    35   23   42 1
    36   24   25 ar
    37   24   46 1
    38   25   26 ar
    39   25   32 ar
    40   26   27 2
    41   26   28 ar
    42   28   29 ar
    43   28   43 1
    44   29   30 1
    45   29   31 ar
    46   30   44 1
    47   30   45 1
    48   31   32 ar
@<TRIPOS>SUBSTRUCTURE
     1 GTP         1 GROUP 0 A     ****
@<TRIPOS>MOLECULE
[[[5-(2-amino-6-oxo-7,8-dihydro-1~{H}-purin-8-ylium-9-yl)-3,4-dihydroxy-tetrahydrofuran-2-yl]methoxy-hydroxy-phosphoryl]oxy-oxido-phosphoryl] phosphate
   46    48     1     0     0
SMALL
USER_CHARGES

@<TRIPOS>ATOM
      1 PG          7.6940    2.0074   -2.4033 P.3       1 GTP        -1.1921
      2 O1G         9.0339    1.2844   -2.4904 O.co2     1 GTP         0.3195
      3 O2G         7.4974    3.0975   -3.4511 O.co2     1 GTP         0.3195
      4 O3G         7.3004    2.4248   -0.9899 O.co2     1 GTP         0.3195
      5 O3B         6.5814    0.8565   -2.7949 O.3       1 GTP         0.4672
      6 PB          6.2213   -0.5833   -2.1141 P.3       1 GTP        -1.1062
      7 O1B         7.3981   -1.5171   -2.2894 O.co2     1 GTP         0.3195
      8 O2B         5.6305   -0.3262   -0.7453 O.co2     1 GTP         0.3195
      9 O3A         5.0231   -1.0558   -3.1161 O.3       1 GTP         0.4672
     10 PA          3.9517   -0.1778   -3.9522 P.3       1 GTP        -0.9715
     11 O1A         4.5722    0.7720   -4.9354 O.2       1 GTP         0.2707
     12 O2A         2.9652   -1.2826   -4.6031 O.3       1 GTP         0.0326
     13 O5'         3.0213    0.5153   -2.8245 O.3       1 GTP         0.1618
     14 C5'         2.2816   -0.2918   -1.9206 C.3       1 GTP         0.1504
     15 C4'         2.7248    0.0226   -0.4980 C.3       1 GTP         0.1111
     16 O4'         2.4697    1.4219   -0.2462 O.3       1 GTP        -0.1436
     17 C3'         1.9404   -0.7419    0.5596 C.3       1 GTP         0.1111
     18 O3'         2.7418   -0.8086    1.7389 O.3       1 GTP        -0.2728
     19 C2'         0.7477    0.1630    0.7858 C.3       1 GTP         0.1111
     20 O2'         0.1373   -0.0577    2.0407 O.3       1 GTP        -0.2728
     21 C1'         1.3733    1.5427    0.6747 C.3       1 GTP         0.2693
     22 N9          0.4520    2.5240    0.1767 N.pl3     1 GTP        -0.3222
     23 C8         -0.2009    2.4849   -0.9792 C.ar      1 GTP         0.1640
     24 N7         -0.9840    3.5454   -1.1481 N.pl3     1 GTP        -0.3688
     25 C5         -0.8090    4.3005   -0.0206 C.ar      1 GTP         0.0648
     26 C6         -1.4206    5.5724    0.3362 C.ar      1 GTP         0.3597
     27 O6         -2.2199    6.1544   -0.3836 O.2       1 GTP        -0.2755
     28 N1         -0.9680    6.0043    1.5817 N.pl3     1 GTP        -0.1604
     29 C2         -0.0474    5.3055    2.3814 C.ar      1 GTP         0.4468
     30 N2          0.2680    5.9024    3.5740 N.pl3     1 GTP        -0.5618
     31 N3          0.4755    4.1601    2.0138 N.2       1 GTP        -0.4283
     32 C4          0.0611    3.6981    0.8001 C.ar      1 GTP         0.2226
     33 HOA2        2.1750   -0.9797   -5.0990 H         1 GTP         0.2010
     34 H5'         1.2163   -0.0770   -2.0471 H         1 GTP        -0.0393
     35 H5''        2.4655   -1.3443   -2.1563 H         1 GTP        -0.0393
     36 H4'         3.8044   -0.1397   -0.4040 H         1 GTP        -0.0393
     37 H3'         1.6764   -1.7639    0.2728 H         1 GTP        -0.0393
     38 HO3'        2.2232   -1.2979    2.3953 H         1 GTP         0.2010
     39 H2'        -0.0011    0.0027    0.0003 H         1 GTP        -0.0393
     40 HO2'       -0.1563   -0.9855    2.0596 H         1 GTP         0.2010
     41 H1'         1.7826    1.9024    1.6451 H         1 GTP        -0.0393
     42 H8         -0.1126    1.6906   -1.6997 H         1 GTP         0.0000
     43 HN1        -1.3285    6.8855    1.9361 H         1 GTP         0.0865
     44 HN21        0.9153    5.4446    4.1732 H         1 GTP         0.2048
     45 HN22       -0.1624    6.7706    3.7948 H         1 GTP         0.2048
     46 H46        -1.5768    3.7405   -1.9429 H         1 GTP         0.2048
@<TRIPOS>BOND
     1    1    2 2
     2    1    3 1
     3    1    4 1
     4    1    5 1
     5    5    6 1
     6    6    7 2
     7    6    8 1
     8    6    9 1
     9    9   10 1
    10   10   11 2
    11   10   12 1
    12   10   13 1
    13   12   33 1
    14   13   14 1
    15   14   15 1
    16   14   34 1
    17   14   35 1
    18   15   16 1
    19   15   17 1
    20   15   36 1
    21   16   21 1
    22   17   18 1
    23   17   19 1
    24   17   37 1
    25   18   38 1
    26   19   20 1
    27   19   21 1
    28   19   39 1
    29   20   40 1
    30   21   22 1
    31   21   41 1
    32   22   23 ar
    33   22   32 ar
    34   23   24 ar
    35   23   42 1
    36   24   25 ar
    37   24   46 1
    38   25   26 ar
    39   25   32 ar
    40   26   27 2
    41   26   28 ar
    42   28   29 ar
    43   28   43 1
    44   29   30 1
    45   29   31 ar
    46   30   44 1
    47   30   45 1
    48   31   32 ar
@<TRIPOS>SUBSTRUCTURE
     1 GTP         1 GROUP 0 A     ****
