GTP
                    3D
 Structure written by MMmdl.
 45 47  0  0  1  0            999 V2000
    4.5660   31.3910   21.6350 P   0  0  0  0  0  0
    4.6130   31.9070   23.0690 O   0  0  0  0  0  0
    3.8920   32.3190   20.6310 O   0  5  0  0  0  0
    4.1430   30.0120   21.6130 O   0  0  0  0  0  0
    6.1600   31.3600   21.2280 O   0  0  0  0  0  0
    6.8770   31.2020   19.7450 P   0  0  0  0  0  0
    7.0790   29.7090   19.4730 O   0  0  0  0  0  0
    6.1250   31.9700   18.7490 O   0  5  0  0  0  0
    8.2510   31.8900   20.0030 O   0  0  0  0  0  0
    8.8460   33.2610   19.4110 P   0  0  0  0  0  0
    8.8880   33.2560   17.9570 O   0  0  0  0  0  0
    8.1050   34.3980   20.1290 O   0  5  0  0  0  0
   10.4300   33.1530   19.9000 O   0  0  0  0  0  0
   10.5490   33.0440   21.3780 C   0  0  0  0  0  0
   12.0460   33.6180   21.4740 C   0  0  1  0  0  0
   13.0520   32.8300   20.8180 O   0  0  0  0  0  0
   12.3070   34.9690   21.0570 C   0  0  1  0  0  0
   13.1090   35.6720   21.9710 O   0  0  0  0  0  0
   12.8390   34.9710   19.5930 C   0  0  1  0  0  0
   13.6720   35.9610   19.3550 O   0  0  0  0  0  0
   13.8460   33.6220   19.9270 C   0  0  2  0  0  0
   14.0010   32.8330   18.6490 N   0  0  0  0  0  0
   12.9340   32.4520   17.8480 C   0  0  0  0  0  0
   13.6400   31.7980   16.8990 N   0  0  0  0  0  0
   15.0290   31.8890   17.0010 C   0  0  0  0  0  0
   15.8990   31.3940   16.2380 C   0  0  0  0  0  0
   15.9820   30.6800   15.1910 O   0  0  0  0  0  0
   17.2740   31.6280   16.8000 N   0  0  0  0  0  0
   17.3040   32.2950   17.8960 C   0  0  0  0  0  0
   18.6770   32.4500   18.4750 N   0  0  0  0  0  0
   16.3840   32.7360   18.7390 N   0  0  0  0  0  0
   15.2180   32.5170   18.1350 C   0  0  0  0  0  0
    3.1013   29.7523   21.8527 H   0  0  0  0  0  0
    9.7718   33.6593   21.8548 H   0  0  0  0  0  0
   10.4216   31.9939   21.6797 H   0  0  0  0  0  0
   12.2583   33.6282   22.5533 H   0  0  0  0  0  0
   11.3699   35.5332   21.1732 H   0  0  0  0  0  0
   12.8165   35.7279   23.0299 H   0  0  0  0  0  0
   12.1431   35.1631   18.7630 H   0  0  0  0  0  0
   13.2830   36.9601   19.1092 H   0  0  0  0  0  0
   14.8453   33.7628   20.3647 H   0  0  0  0  0  0
   11.8730   32.6240   17.9510 H   0  0  0  0  0  0
   18.1572   31.2365   16.2739 H   0  0  0  0  0  0
   19.5568   32.1296   17.8977 H   0  0  0  0  0  0
   18.8054   32.8843   19.4775 H   0  0  0  0  0  0
  1  2  2  0  0  0
  1  3  1  0  0  0
  1  4  1  0  0  0
  1  5  1  0  0  0
  4 33  1  0  0  0
  5  6  1  0  0  0
  6  7  2  0  0  0
  6  8  1  0  0  0
  6  9  1  0  0  0
  9 10  1  0  0  0
 10 11  2  0  0  0
 10 12  1  0  0  0
 10 13  1  0  0  0
 13 14  1  0  0  0
 14 15  1  0  0  0
 14 34  1  0  0  0
 14 35  1  0  0  0
 15 16  1  0  0  0
 15 17  1  0  0  0
 15 36  1  0  0  0
 16 21  1  0  0  0
 17 18  1  0  0  0
 17 19  1  0  0  0
 17 37  1  0  0  0
 18 38  1  0  0  0
 19 20  1  0  0  0
 19 21  1  0  0  0
 19 39  1  0  0  0
 20 40  1  0  0  0
 21 22  1  0  0  0
 21 41  1  0  0  0
 22 23  1  0  0  0
 22 32  1  0  0  0
 23 24  2  0  0  0
 23 42  1  0  0  0
 24 25  1  0  0  0
 25 26  1  0  0  0
 25 32  2  0  0  0
 26 27  2  0  0  0
 26 28  1  0  0  0
 28 29  1  0  0  0
 28 43  1  0  0  0
 29 30  1  0  0  0
 29 31  2  0  0  0
 30 44  1  0  0  0
 30 45  1  0  0  0
 31 32  1  0  0  0
M  CHG  3   3  -1   8  -1  12  -1
M  END
> <s_m_source_file>
/cbio/jclab/home/rustenburg/PFK/Epik-Ligands/Results/InProgress/GUANOSINE-5'-TRIPHOSPHATE/pH_4.0/GUANOSINE-5'-TRIPHOSPHATE_pH_4.0-before_epik.mol2

> <i_m_source_file_index>
1

> <r_lp_tautomer_probability>
0.999940409345307

> <r_epik_Ionization_Penalty>
  0.4312

> <r_epik_Ionization_Penalty_Charging>
  0.3835

> <r_epik_Ionization_Penalty_Neutral>
  0.0476

> <r_epik_State_Penalty>
  0.4598

> <r_epik_Charging_Adjusted_Penalty>
0.843276722387391

> <i_epik_Tot_Q>
-3

> <i_epik_Tot_abs_Q>
3

> <s_epik_Chemistry_Notes>
This compound contains an acetal/aminal-like group ( X-CH(R)-Y where X, Y are N, S, or O) that may be acid/base labile, releasing an aldehyde.

$$$$
GTP
                    3D
 Structure written by MMmdl.
 46 48  0  0  1  0            999 V2000
    4.5660   31.3910   21.6350 P   0  0  0  0  0  0
    4.6130   31.9070   23.0690 O   0  0  0  0  0  0
    3.8920   32.3190   20.6310 O   0  5  0  0  0  0
    4.1430   30.0120   21.6130 O   0  0  0  0  0  0
    6.1600   31.3600   21.2280 O   0  0  0  0  0  0
    6.8770   31.2020   19.7450 P   0  0  0  0  0  0
    7.0790   29.7090   19.4730 O   0  0  0  0  0  0
    6.1250   31.9700   18.7490 O   0  5  0  0  0  0
    8.2510   31.8900   20.0030 O   0  0  0  0  0  0
    8.8460   33.2610   19.4110 P   0  0  0  0  0  0
    8.8880   33.2560   17.9570 O   0  0  0  0  0  0
    8.1050   34.3980   20.1290 O   0  5  0  0  0  0
   10.4300   33.1530   19.9000 O   0  0  0  0  0  0
   10.5490   33.0440   21.3780 C   0  0  0  0  0  0
   12.0460   33.6180   21.4740 C   0  0  1  0  0  0
   13.0520   32.8300   20.8180 O   0  0  0  0  0  0
   12.3070   34.9690   21.0570 C   0  0  1  0  0  0
   13.1090   35.6720   21.9710 O   0  0  0  0  0  0
   12.8390   34.9710   19.5930 C   0  0  1  0  0  0
   13.6720   35.9610   19.3550 O   0  0  0  0  0  0
   13.8460   33.6220   19.9270 C   0  0  2  0  0  0
   14.0010   32.8330   18.6490 N   0  0  0  0  0  0
   12.9340   32.4520   17.8480 C   0  0  0  0  0  0
   13.6400   31.7980   16.8990 N   0  3  0  0  0  0
   15.0290   31.8890   17.0010 C   0  0  0  0  0  0
   15.8990   31.3940   16.2380 C   0  0  0  0  0  0
   15.9820   30.6800   15.1910 O   0  0  0  0  0  0
   17.2740   31.6280   16.8000 N   0  0  0  0  0  0
   17.3040   32.2950   17.8960 C   0  0  0  0  0  0
   18.6770   32.4500   18.4750 N   0  0  0  0  0  0
   16.3840   32.7360   18.7390 N   0  0  0  0  0  0
   15.2180   32.5170   18.1350 C   0  0  0  0  0  0
    3.1013   29.7523   21.8527 H   0  0  0  0  0  0
    9.7718   33.6593   21.8548 H   0  0  0  0  0  0
   10.4216   31.9939   21.6797 H   0  0  0  0  0  0
   12.2583   33.6282   22.5533 H   0  0  0  0  0  0
   11.3699   35.5332   21.1732 H   0  0  0  0  0  0
   12.8165   35.7279   23.0299 H   0  0  0  0  0  0
   12.1431   35.1631   18.7630 H   0  0  0  0  0  0
   13.2830   36.9601   19.1092 H   0  0  0  0  0  0
   14.8453   33.7628   20.3647 H   0  0  0  0  0  0
   11.8730   32.6240   17.9510 H   0  0  0  0  0  0
   18.1572   31.2365   16.2739 H   0  0  0  0  0  0
   19.5568   32.1296   17.8977 H   0  0  0  0  0  0
   18.8054   32.8843   19.4775 H   0  0  0  0  0  0
   13.1150   31.2389   16.1105 H   0  0  0  0  0  0
  1  2  2  0  0  0
  1  3  1  0  0  0
  1  4  1  0  0  0
  1  5  1  0  0  0
  4 33  1  0  0  0
  5  6  1  0  0  0
  6  7  2  0  0  0
  6  8  1  0  0  0
  6  9  1  0  0  0
  9 10  1  0  0  0
 10 11  2  0  0  0
 10 12  1  0  0  0
 10 13  1  0  0  0
 13 14  1  0  0  0
 14 15  1  0  0  0
 14 34  1  0  0  0
 14 35  1  0  0  0
 15 16  1  0  0  0
 15 17  1  0  0  0
 15 36  1  0  0  0
 16 21  1  0  0  0
 17 18  1  0  0  0
 17 19  1  0  0  0
 17 37  1  0  0  0
 18 38  1  0  0  0
 19 20  1  0  0  0
 19 21  1  0  0  0
 19 39  1  0  0  0
 20 40  1  0  0  0
 21 22  1  0  0  0
 21 41  1  0  0  0
 22 23  1  0  0  0
 22 32  1  0  0  0
 23 24  2  0  0  0
 23 42  1  0  0  0
 24 25  1  0  0  0
 24 46  1  0  0  0
 25 26  1  0  0  0
 25 32  2  0  0  0
 26 27  2  0  0  0
 26 28  1  0  0  0
 28 29  1  0  0  0
 28 43  1  0  0  0
 29 30  1  0  0  0
 29 31  2  0  0  0
 30 44  1  0  0  0
 30 45  1  0  0  0
 31 32  1  0  0  0
M  CHG  4   3  -1   8  -1  12  -1  24   1
M  END
> <s_m_source_file>
/cbio/jclab/home/rustenburg/PFK/Epik-Ligands/Results/InProgress/GUANOSINE-5'-TRIPHOSPHATE/pH_4.0/GUANOSINE-5'-TRIPHOSPHATE_pH_4.0-before_epik.mol2

> <i_m_source_file_index>
1

> <r_epik_Ionization_Penalty>
  1.9977

> <r_epik_Ionization_Penalty_Charging>
  1.9936

> <r_epik_Ionization_Penalty_Neutral>
  0.0041

> <r_epik_State_Penalty>
  1.0954

> <r_epik_Charging_Adjusted_Penalty>
3.08901965670681

> <i_epik_Tot_Q>
-2

> <i_epik_Tot_abs_Q>
4

> <s_epik_Chemistry_Notes>
This compound contains an acetal/aminal-like group ( X-CH(R)-Y where X, Y are N, S, or O) that may be acid/base labile, releasing an aldehyde.

$$$$
GTP
                    3D
 Structure written by MMmdl.
 46 48  0  0  1  0            999 V2000
    4.5660   31.3910   21.6350 P   0  0  0  0  0  0
    4.6130   31.9070   23.0690 O   0  0  0  0  0  0
    3.8920   32.3190   20.6310 O   0  5  0  0  0  0
    4.1430   30.0120   21.6130 O   0  0  0  0  0  0
    6.1600   31.3600   21.2280 O   0  0  0  0  0  0
    6.8770   31.2020   19.7450 P   0  0  1  0  0  0
    7.0790   29.7090   19.4730 O   0  0  0  0  0  0
    6.1250   31.9700   18.7490 O   0  0  0  0  0  0
    8.2510   31.8900   20.0030 O   0  0  0  0  0  0
    8.8460   33.2610   19.4110 P   0  0  0  0  0  0
    8.8880   33.2560   17.9570 O   0  0  0  0  0  0
    8.1050   34.3980   20.1290 O   0  5  0  0  0  0
   10.4300   33.1530   19.9000 O   0  0  0  0  0  0
   10.5490   33.0440   21.3780 C   0  0  0  0  0  0
   12.0460   33.6180   21.4740 C   0  0  1  0  0  0
   13.0520   32.8300   20.8180 O   0  0  0  0  0  0
   12.3070   34.9690   21.0570 C   0  0  1  0  0  0
   13.1090   35.6720   21.9710 O   0  0  0  0  0  0
   12.8390   34.9710   19.5930 C   0  0  1  0  0  0
   13.6720   35.9610   19.3550 O   0  0  0  0  0  0
   13.8460   33.6220   19.9270 C   0  0  2  0  0  0
   14.0010   32.8330   18.6490 N   0  0  0  0  0  0
   12.9340   32.4520   17.8480 C   0  0  0  0  0  0
   13.6400   31.7980   16.8990 N   0  0  0  0  0  0
   15.0290   31.8890   17.0010 C   0  0  0  0  0  0
   15.8990   31.3940   16.2380 C   0  0  0  0  0  0
   15.9820   30.6800   15.1910 O   0  0  0  0  0  0
   17.2740   31.6280   16.8000 N   0  0  0  0  0  0
   17.3040   32.2950   17.8960 C   0  0  0  0  0  0
   18.6770   32.4500   18.4750 N   0  0  0  0  0  0
   16.3840   32.7360   18.7390 N   0  0  0  0  0  0
   15.2180   32.5170   18.1350 C   0  0  0  0  0  0
    3.1013   29.7523   21.8527 H   0  0  0  0  0  0
    5.1247   31.6353   18.4370 H   0  0  0  0  0  0
    9.7718   33.6593   21.8548 H   0  0  0  0  0  0
   10.4216   31.9939   21.6797 H   0  0  0  0  0  0
   12.2583   33.6282   22.5533 H   0  0  0  0  0  0
   11.3699   35.5332   21.1732 H   0  0  0  0  0  0
   12.8165   35.7279   23.0299 H   0  0  0  0  0  0
   12.1431   35.1631   18.7630 H   0  0  0  0  0  0
   13.2830   36.9601   19.1092 H   0  0  0  0  0  0
   14.8453   33.7628   20.3647 H   0  0  0  0  0  0
   11.8730   32.6240   17.9510 H   0  0  0  0  0  0
   18.1572   31.2365   16.2739 H   0  0  0  0  0  0
   19.5568   32.1296   17.8977 H   0  0  0  0  0  0
   18.8054   32.8843   19.4775 H   0  0  0  0  0  0
  1  2  2  0  0  0
  1  3  1  0  0  0
  1  4  1  0  0  0
  1  5  1  0  0  0
  4 33  1  0  0  0
  5  6  1  0  0  0
  6  7  2  0  0  0
  6  8  1  0  0  0
  6  9  1  0  0  0
  8 34  1  0  0  0
  9 10  1  0  0  0
 10 11  2  0  0  0
 10 12  1  0  0  0
 10 13  1  0  0  0
 13 14  1  0  0  0
 14 15  1  0  0  0
 14 35  1  0  0  0
 14 36  1  0  0  0
 15 16  1  0  0  0
 15 17  1  0  0  0
 15 37  1  0  0  0
 16 21  1  0  0  0
 17 18  1  0  0  0
 17 19  1  0  0  0
 17 38  1  0  0  0
 18 39  1  0  0  0
 19 20  1  0  0  0
 19 21  1  0  0  0
 19 40  1  0  0  0
 20 41  1  0  0  0
 21 22  1  0  0  0
 21 42  1  0  0  0
 22 23  1  0  0  0
 22 32  1  0  0  0
 23 24  2  0  0  0
 23 43  1  0  0  0
 24 25  1  0  0  0
 25 26  1  0  0  0
 25 32  2  0  0  0
 26 27  2  0  0  0
 26 28  1  0  0  0
 28 29  1  0  0  0
 28 44  1  0  0  0
 29 30  1  0  0  0
 29 31  2  0  0  0
 30 45  1  0  0  0
 30 46  1  0  0  0
 31 32  1  0  0  0
M  CHG  2   3  -1  12  -1
M  END
> <s_m_source_file>
/cbio/jclab/home/rustenburg/PFK/Epik-Ligands/Results/InProgress/GUANOSINE-5'-TRIPHOSPHATE/pH_4.0/GUANOSINE-5'-TRIPHOSPHATE_pH_4.0-before_epik.mol2

> <i_m_source_file_index>
1

> <r_lp_tautomer_probability>
0.999940409345307

> <r_epik_Ionization_Penalty>
  1.1850

> <r_epik_Ionization_Penalty_Charging>
  0.1003

> <r_epik_Ionization_Penalty_Neutral>
  1.0847

> <r_epik_State_Penalty>
  1.3182

> <r_epik_Charging_Adjusted_Penalty>
1.41850787898528

> <i_epik_Tot_Q>
-2

> <i_epik_Tot_abs_Q>
2

> <s_epik_Chemistry_Notes>
This compound contains an acetal/aminal-like group ( X-CH(R)-Y where X, Y are N, S, or O) that may be acid/base labile, releasing an aldehyde.

$$$$
GTP
                    3D
 Structure written by MMmdl.
 46 48  0  0  1  0            999 V2000
    4.5660   31.3910   21.6350 P   0  0  0  0  0  0
    4.6130   31.9070   23.0690 O   0  0  0  0  0  0
    3.8920   32.3190   20.6310 O   0  5  0  0  0  0
    4.1430   30.0120   21.6130 O   0  0  0  0  0  0
    6.1600   31.3600   21.2280 O   0  0  0  0  0  0
    6.8770   31.2020   19.7450 P   0  0  0  0  0  0
    7.0790   29.7090   19.4730 O   0  0  0  0  0  0
    6.1250   31.9700   18.7490 O   0  5  0  0  0  0
    8.2510   31.8900   20.0030 O   0  0  0  0  0  0
    8.8460   33.2610   19.4110 P   0  0  1  0  0  0
    8.8880   33.2560   17.9570 O   0  0  0  0  0  0
    8.1050   34.3980   20.1290 O   0  0  0  0  0  0
   10.4300   33.1530   19.9000 O   0  0  0  0  0  0
   10.5490   33.0440   21.3780 C   0  0  0  0  0  0
   12.0460   33.6180   21.4740 C   0  0  1  0  0  0
   13.0520   32.8300   20.8180 O   0  0  0  0  0  0
   12.3070   34.9690   21.0570 C   0  0  1  0  0  0
   13.1090   35.6720   21.9710 O   0  0  0  0  0  0
   12.8390   34.9710   19.5930 C   0  0  1  0  0  0
   13.6720   35.9610   19.3550 O   0  0  0  0  0  0
   13.8460   33.6220   19.9270 C   0  0  2  0  0  0
   14.0010   32.8330   18.6490 N   0  0  0  0  0  0
   12.9340   32.4520   17.8480 C   0  0  0  0  0  0
   13.6400   31.7980   16.8990 N   0  0  0  0  0  0
   15.0290   31.8890   17.0010 C   0  0  0  0  0  0
   15.8990   31.3940   16.2380 C   0  0  0  0  0  0
   15.9820   30.6800   15.1910 O   0  0  0  0  0  0
   17.2740   31.6280   16.8000 N   0  0  0  0  0  0
   17.3040   32.2950   17.8960 C   0  0  0  0  0  0
   18.6770   32.4500   18.4750 N   0  0  0  0  0  0
   16.3840   32.7360   18.7390 N   0  0  0  0  0  0
   15.2180   32.5170   18.1350 C   0  0  0  0  0  0
    3.1013   29.7523   21.8527 H   0  0  0  0  0  0
    7.0451   34.5904   19.9065 H   0  0  0  0  0  0
    9.7718   33.6593   21.8548 H   0  0  0  0  0  0
   10.4216   31.9939   21.6797 H   0  0  0  0  0  0
   12.2583   33.6282   22.5533 H   0  0  0  0  0  0
   11.3699   35.5332   21.1732 H   0  0  0  0  0  0
   12.8165   35.7279   23.0299 H   0  0  0  0  0  0
   12.1431   35.1631   18.7630 H   0  0  0  0  0  0
   13.2830   36.9601   19.1092 H   0  0  0  0  0  0
   14.8453   33.7628   20.3647 H   0  0  0  0  0  0
   11.8730   32.6240   17.9510 H   0  0  0  0  0  0
   18.1572   31.2365   16.2739 H   0  0  0  0  0  0
   19.5568   32.1296   17.8977 H   0  0  0  0  0  0
   18.8054   32.8843   19.4775 H   0  0  0  0  0  0
  1  2  2  0  0  0
  1  3  1  0  0  0
  1  4  1  0  0  0
  1  5  1  0  0  0
  4 33  1  0  0  0
  5  6  1  0  0  0
  6  7  2  0  0  0
  6  8  1  0  0  0
  6  9  1  0  0  0
  9 10  1  0  0  0
 10 11  2  0  0  0
 10 12  1  0  0  0
 10 13  1  0  0  0
 12 34  1  0  0  0
 13 14  1  0  0  0
 14 15  1  0  0  0
 14 35  1  0  0  0
 14 36  1  0  0  0
 15 16  1  0  0  0
 15 17  1  0  0  0
 15 37  1  0  0  0
 16 21  1  0  0  0
 17 18  1  0  0  0
 17 19  1  0  0  0
 17 38  1  0  0  0
 18 39  1  0  0  0
 19 20  1  0  0  0
 19 21  1  0  0  0
 19 40  1  0  0  0
 20 41  1  0  0  0
 21 22  1  0  0  0
 21 42  1  0  0  0
 22 23  1  0  0  0
 22 32  1  0  0  0
 23 24  2  0  0  0
 23 43  1  0  0  0
 24 25  1  0  0  0
 25 26  1  0  0  0
 25 32  2  0  0  0
 26 27  2  0  0  0
 26 28  1  0  0  0
 28 29  1  0  0  0
 28 44  1  0  0  0
 29 30  1  0  0  0
 29 31  2  0  0  0
 30 45  1  0  0  0
 30 46  1  0  0  0
 31 32  1  0  0  0
M  CHG  2   3  -1   8  -1
M  END
> <s_m_source_file>
/cbio/jclab/home/rustenburg/PFK/Epik-Ligands/Results/InProgress/GUANOSINE-5'-TRIPHOSPHATE/pH_4.0/GUANOSINE-5'-TRIPHOSPHATE_pH_4.0-before_epik.mol2

> <i_m_source_file_index>
1

> <r_epik_Ionization_Penalty>
  0.9838

> <r_epik_Ionization_Penalty_Charging>
  0.1256

> <r_epik_Ionization_Penalty_Neutral>
  0.8582

> <r_epik_State_Penalty>
  1.4121

> <r_epik_Charging_Adjusted_Penalty>
1.53771458679089

> <i_epik_Tot_Q>
-2

> <i_epik_Tot_abs_Q>
2

> <s_epik_Chemistry_Notes>
This compound contains an acetal/aminal-like group ( X-CH(R)-Y where X, Y are N, S, or O) that may be acid/base labile, releasing an aldehyde.

$$$$
GTP
                    3D
 Structure written by MMmdl.
 47 49  0  0  1  0            999 V2000
    4.5660   31.3910   21.6350 P   0  0  0  0  0  0
    4.6130   31.9070   23.0690 O   0  0  0  0  0  0
    3.8920   32.3190   20.6310 O   0  5  0  0  0  0
    4.1430   30.0120   21.6130 O   0  0  0  0  0  0
    6.1600   31.3600   21.2280 O   0  0  0  0  0  0
    6.8770   31.2020   19.7450 P   0  0  0  0  0  0
    7.0790   29.7090   19.4730 O   0  0  0  0  0  0
    6.1250   31.9700   18.7490 O   0  5  0  0  0  0
    8.2510   31.8900   20.0030 O   0  0  0  0  0  0
    8.8460   33.2610   19.4110 P   0  0  1  0  0  0
    8.8880   33.2560   17.9570 O   0  0  0  0  0  0
    8.1050   34.3980   20.1290 O   0  0  0  0  0  0
   10.4300   33.1530   19.9000 O   0  0  0  0  0  0
   10.5490   33.0440   21.3780 C   0  0  0  0  0  0
   12.0460   33.6180   21.4740 C   0  0  1  0  0  0
   13.0520   32.8300   20.8180 O   0  0  0  0  0  0
   12.3070   34.9690   21.0570 C   0  0  1  0  0  0
   13.1090   35.6720   21.9710 O   0  0  0  0  0  0
   12.8390   34.9710   19.5930 C   0  0  1  0  0  0
   13.6720   35.9610   19.3550 O   0  0  0  0  0  0
   13.8460   33.6220   19.9270 C   0  0  2  0  0  0
   14.0010   32.8330   18.6490 N   0  0  0  0  0  0
   12.9340   32.4520   17.8480 C   0  0  0  0  0  0
   13.6400   31.7980   16.8990 N   0  3  0  0  0  0
   15.0290   31.8890   17.0010 C   0  0  0  0  0  0
   15.8990   31.3940   16.2380 C   0  0  0  0  0  0
   15.9820   30.6800   15.1910 O   0  0  0  0  0  0
   17.2740   31.6280   16.8000 N   0  0  0  0  0  0
   17.3040   32.2950   17.8960 C   0  0  0  0  0  0
   18.6770   32.4500   18.4750 N   0  0  0  0  0  0
   16.3840   32.7360   18.7390 N   0  0  0  0  0  0
   15.2180   32.5170   18.1350 C   0  0  0  0  0  0
    3.1013   29.7523   21.8527 H   0  0  0  0  0  0
    7.0451   34.5904   19.9065 H   0  0  0  0  0  0
    9.7718   33.6593   21.8548 H   0  0  0  0  0  0
   10.4216   31.9939   21.6797 H   0  0  0  0  0  0
   12.2583   33.6282   22.5533 H   0  0  0  0  0  0
   11.3699   35.5332   21.1732 H   0  0  0  0  0  0
   12.8165   35.7279   23.0299 H   0  0  0  0  0  0
   12.1431   35.1631   18.7630 H   0  0  0  0  0  0
   13.2830   36.9601   19.1092 H   0  0  0  0  0  0
   14.8453   33.7628   20.3647 H   0  0  0  0  0  0
   11.8730   32.6240   17.9510 H   0  0  0  0  0  0
   18.1572   31.2365   16.2739 H   0  0  0  0  0  0
   19.5568   32.1296   17.8977 H   0  0  0  0  0  0
   18.8054   32.8843   19.4775 H   0  0  0  0  0  0
   13.1150   31.2389   16.1105 H   0  0  0  0  0  0
  1  2  2  0  0  0
  1  3  1  0  0  0
  1  4  1  0  0  0
  1  5  1  0  0  0
  4 33  1  0  0  0
  5  6  1  0  0  0
  6  7  2  0  0  0
  6  8  1  0  0  0
  6  9  1  0  0  0
  9 10  1  0  0  0
 10 11  2  0  0  0
 10 12  1  0  0  0
 10 13  1  0  0  0
 12 34  1  0  0  0
 13 14  1  0  0  0
 14 15  1  0  0  0
 14 35  1  0  0  0
 14 36  1  0  0  0
 15 16  1  0  0  0
 15 17  1  0  0  0
 15 37  1  0  0  0
 16 21  1  0  0  0
 17 18  1  0  0  0
 17 19  1  0  0  0
 17 38  1  0  0  0
 18 39  1  0  0  0
 19 20  1  0  0  0
 19 21  1  0  0  0
 19 40  1  0  0  0
 20 41  1  0  0  0
 21 22  1  0  0  0
 21 42  1  0  0  0
 22 23  1  0  0  0
 22 32  1  0  0  0
 23 24  2  0  0  0
 23 43  1  0  0  0
 24 25  1  0  0  0
 24 47  1  0  0  0
 25 26  1  0  0  0
 25 32  2  0  0  0
 26 27  2  0  0  0
 26 28  1  0  0  0
 28 29  1  0  0  0
 28 44  1  0  0  0
 29 30  1  0  0  0
 29 31  2  0  0  0
 30 45  1  0  0  0
 30 46  1  0  0  0
 31 32  1  0  0  0
M  CHG  3   3  -1   8  -1  24   1
M  END
> <s_m_source_file>
/cbio/jclab/home/rustenburg/PFK/Epik-Ligands/Results/InProgress/GUANOSINE-5'-TRIPHOSPHATE/pH_4.0/GUANOSINE-5'-TRIPHOSPHATE_pH_4.0-before_epik.mol2

> <i_m_source_file_index>
1

> <r_epik_Ionization_Penalty>
  2.5566

> <r_epik_Ionization_Penalty_Charging>
  1.7373

> <r_epik_Ionization_Penalty_Neutral>
  0.8193

> <r_epik_State_Penalty>
  1.8422

> <r_epik_Charging_Adjusted_Penalty>
3.5794625568789

> <i_epik_Tot_Q>
-1

> <i_epik_Tot_abs_Q>
3

> <s_epik_Chemistry_Notes>
This compound contains an acetal/aminal-like group ( X-CH(R)-Y where X, Y are N, S, or O) that may be acid/base labile, releasing an aldehyde.

$$$$
GTP
                    3D
 Structure written by MMmdl.
 46 48  0  0  1  0            999 V2000
    4.5660   31.3910   21.6350 P   0  0  0  0  0  0
    4.6130   31.9070   23.0690 O   0  0  0  0  0  0
    3.8920   32.3190   20.6310 O   0  0  0  0  0  0
    4.1430   30.0120   21.6130 O   0  0  0  0  0  0
    6.1600   31.3600   21.2280 O   0  0  0  0  0  0
    6.8770   31.2020   19.7450 P   0  0  0  0  0  0
    7.0790   29.7090   19.4730 O   0  0  0  0  0  0
    6.1250   31.9700   18.7490 O   0  5  0  0  0  0
    8.2510   31.8900   20.0030 O   0  0  0  0  0  0
    8.8460   33.2610   19.4110 P   0  0  0  0  0  0
    8.8880   33.2560   17.9570 O   0  0  0  0  0  0
    8.1050   34.3980   20.1290 O   0  5  0  0  0  0
   10.4300   33.1530   19.9000 O   0  0  0  0  0  0
   10.5490   33.0440   21.3780 C   0  0  0  0  0  0
   12.0460   33.6180   21.4740 C   0  0  1  0  0  0
   13.0520   32.8300   20.8180 O   0  0  0  0  0  0
   12.3070   34.9690   21.0570 C   0  0  1  0  0  0
   13.1090   35.6720   21.9710 O   0  0  0  0  0  0
   12.8390   34.9710   19.5930 C   0  0  1  0  0  0
   13.6720   35.9610   19.3550 O   0  0  0  0  0  0
   13.8460   33.6220   19.9270 C   0  0  2  0  0  0
   14.0010   32.8330   18.6490 N   0  0  0  0  0  0
   12.9340   32.4520   17.8480 C   0  0  0  0  0  0
   13.6400   31.7980   16.8990 N   0  0  0  0  0  0
   15.0290   31.8890   17.0010 C   0  0  0  0  0  0
   15.8990   31.3940   16.2380 C   0  0  0  0  0  0
   15.9820   30.6800   15.1910 O   0  0  0  0  0  0
   17.2740   31.6280   16.8000 N   0  0  0  0  0  0
   17.3040   32.2950   17.8960 C   0  0  0  0  0  0
   18.6770   32.4500   18.4750 N   0  0  0  0  0  0
   16.3840   32.7360   18.7390 N   0  0  0  0  0  0
   15.2180   32.5170   18.1350 C   0  0  0  0  0  0
    2.8098   32.5054   20.6948 H   0  0  0  0  0  0
    3.1013   29.7523   21.8527 H   0  0  0  0  0  0
    9.7718   33.6593   21.8548 H   0  0  0  0  0  0
   10.4216   31.9939   21.6797 H   0  0  0  0  0  0
   12.2583   33.6282   22.5533 H   0  0  0  0  0  0
   11.3699   35.5332   21.1732 H   0  0  0  0  0  0
   12.8165   35.7279   23.0299 H   0  0  0  0  0  0
   12.1431   35.1631   18.7630 H   0  0  0  0  0  0
   13.2830   36.9601   19.1092 H   0  0  0  0  0  0
   14.8453   33.7628   20.3647 H   0  0  0  0  0  0
   11.8730   32.6240   17.9510 H   0  0  0  0  0  0
   18.1572   31.2365   16.2739 H   0  0  0  0  0  0
   19.5568   32.1296   17.8977 H   0  0  0  0  0  0
   18.8054   32.8843   19.4775 H   0  0  0  0  0  0
  1  2  2  0  0  0
  1  3  1  0  0  0
  1  4  1  0  0  0
  1  5  1  0  0  0
  3 33  1  0  0  0
  4 34  1  0  0  0
  5  6  1  0  0  0
  6  7  2  0  0  0
  6  8  1  0  0  0
  6  9  1  0  0  0
  9 10  1  0  0  0
 10 11  2  0  0  0
 10 12  1  0  0  0
 10 13  1  0  0  0
 13 14  1  0  0  0
 14 15  1  0  0  0
 14 35  1  0  0  0
 14 36  1  0  0  0
 15 16  1  0  0  0
 15 17  1  0  0  0
 15 37  1  0  0  0
 16 21  1  0  0  0
 17 18  1  0  0  0
 17 19  1  0  0  0
 17 38  1  0  0  0
 18 39  1  0  0  0
 19 20  1  0  0  0
 19 21  1  0  0  0
 19 40  1  0  0  0
 20 41  1  0  0  0
 21 22  1  0  0  0
 21 42  1  0  0  0
 22 23  1  0  0  0
 22 32  1  0  0  0
 23 24  2  0  0  0
 23 43  1  0  0  0
 24 25  1  0  0  0
 25 26  1  0  0  0
 25 32  2  0  0  0
 26 27  2  0  0  0
 26 28  1  0  0  0
 28 29  1  0  0  0
 28 44  1  0  0  0
 29 30  1  0  0  0
 29 31  2  0  0  0
 30 45  1  0  0  0
 30 46  1  0  0  0
 31 32  1  0  0  0
M  CHG  2   8  -1  12  -1
M  END
> <s_m_source_file>
/cbio/jclab/home/rustenburg/PFK/Epik-Ligands/Results/InProgress/GUANOSINE-5'-TRIPHOSPHATE/pH_4.0/GUANOSINE-5'-TRIPHOSPHATE_pH_4.0-before_epik.mol2

> <i_m_source_file_index>
1

> <r_epik_Ionization_Penalty>
  1.4162

> <r_epik_Ionization_Penalty_Charging>
  0.2341

> <r_epik_Ionization_Penalty_Neutral>
  1.1821

> <r_epik_State_Penalty>
  1.8889

> <r_epik_Charging_Adjusted_Penalty>
2.12296317337857

> <i_epik_Tot_Q>
-2

> <i_epik_Tot_abs_Q>
2

> <s_epik_Chemistry_Notes>
This compound contains an acetal/aminal-like group ( X-CH(R)-Y where X, Y are N, S, or O) that may be acid/base labile, releasing an aldehyde.

$$$$
GTP
                    3D
 Structure written by MMmdl.
 47 49  0  0  1  0            999 V2000
    4.5660   31.3910   21.6350 P   0  0  0  0  0  0
    4.6130   31.9070   23.0690 O   0  0  0  0  0  0
    3.8920   32.3190   20.6310 O   0  0  0  0  0  0
    4.1430   30.0120   21.6130 O   0  0  0  0  0  0
    6.1600   31.3600   21.2280 O   0  0  0  0  0  0
    6.8770   31.2020   19.7450 P   0  0  0  0  0  0
    7.0790   29.7090   19.4730 O   0  0  0  0  0  0
    6.1250   31.9700   18.7490 O   0  5  0  0  0  0
    8.2510   31.8900   20.0030 O   0  0  0  0  0  0
    8.8460   33.2610   19.4110 P   0  0  0  0  0  0
    8.8880   33.2560   17.9570 O   0  0  0  0  0  0
    8.1050   34.3980   20.1290 O   0  5  0  0  0  0
   10.4300   33.1530   19.9000 O   0  0  0  0  0  0
   10.5490   33.0440   21.3780 C   0  0  0  0  0  0
   12.0460   33.6180   21.4740 C   0  0  1  0  0  0
   13.0520   32.8300   20.8180 O   0  0  0  0  0  0
   12.3070   34.9690   21.0570 C   0  0  1  0  0  0
   13.1090   35.6720   21.9710 O   0  0  0  0  0  0
   12.8390   34.9710   19.5930 C   0  0  1  0  0  0
   13.6720   35.9610   19.3550 O   0  0  0  0  0  0
   13.8460   33.6220   19.9270 C   0  0  2  0  0  0
   14.0010   32.8330   18.6490 N   0  0  0  0  0  0
   12.9340   32.4520   17.8480 C   0  0  0  0  0  0
   13.6400   31.7980   16.8990 N   0  3  0  0  0  0
   15.0290   31.8890   17.0010 C   0  0  0  0  0  0
   15.8990   31.3940   16.2380 C   0  0  0  0  0  0
   15.9820   30.6800   15.1910 O   0  0  0  0  0  0
   17.2740   31.6280   16.8000 N   0  0  0  0  0  0
   17.3040   32.2950   17.8960 C   0  0  0  0  0  0
   18.6770   32.4500   18.4750 N   0  0  0  0  0  0
   16.3840   32.7360   18.7390 N   0  0  0  0  0  0
   15.2180   32.5170   18.1350 C   0  0  0  0  0  0
    2.8098   32.5054   20.6948 H   0  0  0  0  0  0
    3.1013   29.7523   21.8527 H   0  0  0  0  0  0
    9.7718   33.6593   21.8548 H   0  0  0  0  0  0
   10.4216   31.9939   21.6797 H   0  0  0  0  0  0
   12.2583   33.6282   22.5533 H   0  0  0  0  0  0
   11.3699   35.5332   21.1732 H   0  0  0  0  0  0
   12.8165   35.7279   23.0299 H   0  0  0  0  0  0
   12.1431   35.1631   18.7630 H   0  0  0  0  0  0
   13.2830   36.9601   19.1092 H   0  0  0  0  0  0
   14.8453   33.7628   20.3647 H   0  0  0  0  0  0
   11.8730   32.6240   17.9510 H   0  0  0  0  0  0
   18.1572   31.2365   16.2739 H   0  0  0  0  0  0
   19.5568   32.1296   17.8977 H   0  0  0  0  0  0
   18.8054   32.8843   19.4775 H   0  0  0  0  0  0
   13.1150   31.2389   16.1105 H   0  0  0  0  0  0
  1  2  2  0  0  0
  1  3  1  0  0  0
  1  4  1  0  0  0
  1  5  1  0  0  0
  3 33  1  0  0  0
  4 34  1  0  0  0
  5  6  1  0  0  0
  6  7  2  0  0  0
  6  8  1  0  0  0
  6  9  1  0  0  0
  9 10  1  0  0  0
 10 11  2  0  0  0
 10 12  1  0  0  0
 10 13  1  0  0  0
 13 14  1  0  0  0
 14 15  1  0  0  0
 14 35  1  0  0  0
 14 36  1  0  0  0
 15 16  1  0  0  0
 15 17  1  0  0  0
 15 37  1  0  0  0
 16 21  1  0  0  0
 17 18  1  0  0  0
 17 19  1  0  0  0
 17 38  1  0  0  0
 18 39  1  0  0  0
 19 20  1  0  0  0
 19 21  1  0  0  0
 19 40  1  0  0  0
 20 41  1  0  0  0
 21 22  1  0  0  0
 21 42  1  0  0  0
 22 23  1  0  0  0
 22 32  1  0  0  0
 23 24  2  0  0  0
 23 43  1  0  0  0
 24 25  1  0  0  0
 24 47  1  0  0  0
 25 26  1  0  0  0
 25 32  2  0  0  0
 26 27  2  0  0  0
 26 28  1  0  0  0
 28 29  1  0  0  0
 28 44  1  0  0  0
 29 30  1  0  0  0
 29 31  2  0  0  0
 30 45  1  0  0  0
 30 46  1  0  0  0
 31 32  1  0  0  0
M  CHG  3   8  -1  12  -1  24   1
M  END
> <s_m_source_file>
/cbio/jclab/home/rustenburg/PFK/Epik-Ligands/Results/InProgress/GUANOSINE-5'-TRIPHOSPHATE/pH_4.0/GUANOSINE-5'-TRIPHOSPHATE_pH_4.0-before_epik.mol2

> <i_m_source_file_index>
1

> <r_epik_Ionization_Penalty>
  2.9829

> <r_epik_Ionization_Penalty_Charging>
  1.8443

> <r_epik_Ionization_Penalty_Neutral>
  1.1386

> <r_epik_State_Penalty>
  2.0718

> <r_epik_Charging_Adjusted_Penalty>
3.91605102689233

> <i_epik_Tot_Q>
-1

> <i_epik_Tot_abs_Q>
3

> <s_epik_Chemistry_Notes>
This compound contains an acetal/aminal-like group ( X-CH(R)-Y where X, Y are N, S, or O) that may be acid/base labile, releasing an aldehyde.

$$$$
GTP
                    3D
 Structure written by MMmdl.
 47 49  0  0  1  0            999 V2000
    4.5660   31.3910   21.6350 P   0  0  0  0  0  0
    4.6130   31.9070   23.0690 O   0  0  0  0  0  0
    3.8920   32.3190   20.6310 O   0  5  0  0  0  0
    4.1430   30.0120   21.6130 O   0  0  0  0  0  0
    6.1600   31.3600   21.2280 O   0  0  0  0  0  0
    6.8770   31.2020   19.7450 P   0  0  1  0  0  0
    7.0790   29.7090   19.4730 O   0  0  0  0  0  0
    6.1250   31.9700   18.7490 O   0  0  0  0  0  0
    8.2510   31.8900   20.0030 O   0  0  0  0  0  0
    8.8460   33.2610   19.4110 P   0  0  0  0  0  0
    8.8880   33.2560   17.9570 O   0  0  0  0  0  0
    8.1050   34.3980   20.1290 O   0  5  0  0  0  0
   10.4300   33.1530   19.9000 O   0  0  0  0  0  0
   10.5490   33.0440   21.3780 C   0  0  0  0  0  0
   12.0460   33.6180   21.4740 C   0  0  1  0  0  0
   13.0520   32.8300   20.8180 O   0  0  0  0  0  0
   12.3070   34.9690   21.0570 C   0  0  1  0  0  0
   13.1090   35.6720   21.9710 O   0  0  0  0  0  0
   12.8390   34.9710   19.5930 C   0  0  1  0  0  0
   13.6720   35.9610   19.3550 O   0  0  0  0  0  0
   13.8460   33.6220   19.9270 C   0  0  2  0  0  0
   14.0010   32.8330   18.6490 N   0  0  0  0  0  0
   12.9340   32.4520   17.8480 C   0  0  0  0  0  0
   13.6400   31.7980   16.8990 N   0  3  0  0  0  0
   15.0290   31.8890   17.0010 C   0  0  0  0  0  0
   15.8990   31.3940   16.2380 C   0  0  0  0  0  0
   15.9820   30.6800   15.1910 O   0  0  0  0  0  0
   17.2740   31.6280   16.8000 N   0  0  0  0  0  0
   17.3040   32.2950   17.8960 C   0  0  0  0  0  0
   18.6770   32.4500   18.4750 N   0  0  0  0  0  0
   16.3840   32.7360   18.7390 N   0  0  0  0  0  0
   15.2180   32.5170   18.1350 C   0  0  0  0  0  0
    3.1013   29.7523   21.8527 H   0  0  0  0  0  0
    5.1247   31.6353   18.4370 H   0  0  0  0  0  0
    9.7718   33.6593   21.8548 H   0  0  0  0  0  0
   10.4216   31.9939   21.6797 H   0  0  0  0  0  0
   12.2583   33.6282   22.5533 H   0  0  0  0  0  0
   11.3699   35.5332   21.1732 H   0  0  0  0  0  0
   12.8165   35.7279   23.0299 H   0  0  0  0  0  0
   12.1431   35.1631   18.7630 H   0  0  0  0  0  0
   13.2830   36.9601   19.1092 H   0  0  0  0  0  0
   14.8453   33.7628   20.3647 H   0  0  0  0  0  0
   11.8730   32.6240   17.9510 H   0  0  0  0  0  0
   18.1572   31.2365   16.2739 H   0  0  0  0  0  0
   19.5568   32.1296   17.8977 H   0  0  0  0  0  0
   18.8054   32.8843   19.4775 H   0  0  0  0  0  0
   13.1150   31.2389   16.1105 H   0  0  0  0  0  0
  1  2  2  0  0  0
  1  3  1  0  0  0
  1  4  1  0  0  0
  1  5  1  0  0  0
  4 33  1  0  0  0
  5  6  1  0  0  0
  6  7  2  0  0  0
  6  8  1  0  0  0
  6  9  1  0  0  0
  8 34  1  0  0  0
  9 10  1  0  0  0
 10 11  2  0  0  0
 10 12  1  0  0  0
 10 13  1  0  0  0
 13 14  1  0  0  0
 14 15  1  0  0  0
 14 35  1  0  0  0
 14 36  1  0  0  0
 15 16  1  0  0  0
 15 17  1  0  0  0
 15 37  1  0  0  0
 16 21  1  0  0  0
 17 18  1  0  0  0
 17 19  1  0  0  0
 17 38  1  0  0  0
 18 39  1  0  0  0
 19 20  1  0  0  0
 19 21  1  0  0  0
 19 40  1  0  0  0
 20 41  1  0  0  0
 21 22  1  0  0  0
 21 42  1  0  0  0
 22 23  1  0  0  0
 22 32  1  0  0  0
 23 24  2  0  0  0
 23 43  1  0  0  0
 24 25  1  0  0  0
 24 47  1  0  0  0
 25 26  1  0  0  0
 25 32  2  0  0  0
 26 27  2  0  0  0
 26 28  1  0  0  0
 28 29  1  0  0  0
 28 44  1  0  0  0
 29 30  1  0  0  0
 29 31  2  0  0  0
 30 45  1  0  0  0
 30 46  1  0  0  0
 31 32  1  0  0  0
M  CHG  3   3  -1  12  -1  24   1
M  END
> <s_m_source_file>
/cbio/jclab/home/rustenburg/PFK/Epik-Ligands/Results/InProgress/GUANOSINE-5'-TRIPHOSPHATE/pH_4.0/GUANOSINE-5'-TRIPHOSPHATE_pH_4.0-before_epik.mol2

> <i_m_source_file_index>
1

> <r_epik_Ionization_Penalty>
  2.7527

> <r_epik_Ionization_Penalty_Charging>
  1.7114

> <r_epik_Ionization_Penalty_Neutral>
  1.0413

> <r_epik_State_Penalty>
  2.0978

> <r_epik_Charging_Adjusted_Penalty>
3.80914933516839

> <i_epik_Tot_Q>
-1

> <i_epik_Tot_abs_Q>
3

> <s_epik_Chemistry_Notes>
This compound contains an acetal/aminal-like group ( X-CH(R)-Y where X, Y are N, S, or O) that may be acid/base labile, releasing an aldehyde.

$$$$
GTP
                    3D
 Structure written by MMmdl.
 47 49  0  0  1  0            999 V2000
    4.5660   31.3910   21.6350 P   0  0  0  0  0  0
    4.6130   31.9070   23.0690 O   0  0  0  0  0  0
    3.8920   32.3190   20.6310 O   0  0  0  0  0  0
    4.1430   30.0120   21.6130 O   0  0  0  0  0  0
    6.1600   31.3600   21.2280 O   0  0  0  0  0  0
    6.8770   31.2020   19.7450 P   0  0  0  0  0  0
    7.0790   29.7090   19.4730 O   0  0  0  0  0  0
    6.1250   31.9700   18.7490 O   0  5  0  0  0  0
    8.2510   31.8900   20.0030 O   0  0  0  0  0  0
    8.8460   33.2610   19.4110 P   0  0  1  0  0  0
    8.8880   33.2560   17.9570 O   0  0  0  0  0  0
    8.1050   34.3980   20.1290 O   0  0  0  0  0  0
   10.4300   33.1530   19.9000 O   0  0  0  0  0  0
   10.5490   33.0440   21.3780 C   0  0  0  0  0  0
   12.0460   33.6180   21.4740 C   0  0  1  0  0  0
   13.0520   32.8300   20.8180 O   0  0  0  0  0  0
   12.3070   34.9690   21.0570 C   0  0  1  0  0  0
   13.1090   35.6720   21.9710 O   0  0  0  0  0  0
   12.8390   34.9710   19.5930 C   0  0  1  0  0  0
   13.6720   35.9610   19.3550 O   0  0  0  0  0  0
   13.8460   33.6220   19.9270 C   0  0  2  0  0  0
   14.0010   32.8330   18.6490 N   0  0  0  0  0  0
   12.9340   32.4520   17.8480 C   0  0  0  0  0  0
   13.6400   31.7980   16.8990 N   0  0  0  0  0  0
   15.0290   31.8890   17.0010 C   0  0  0  0  0  0
   15.8990   31.3940   16.2380 C   0  0  0  0  0  0
   15.9820   30.6800   15.1910 O   0  0  0  0  0  0
   17.2740   31.6280   16.8000 N   0  0  0  0  0  0
   17.3040   32.2950   17.8960 C   0  0  0  0  0  0
   18.6770   32.4500   18.4750 N   0  0  0  0  0  0
   16.3840   32.7360   18.7390 N   0  0  0  0  0  0
   15.2180   32.5170   18.1350 C   0  0  0  0  0  0
    2.8098   32.5054   20.6948 H   0  0  0  0  0  0
    3.1013   29.7523   21.8527 H   0  0  0  0  0  0
    7.0451   34.5904   19.9065 H   0  0  0  0  0  0
    9.7718   33.6593   21.8548 H   0  0  0  0  0  0
   10.4216   31.9939   21.6797 H   0  0  0  0  0  0
   12.2583   33.6282   22.5533 H   0  0  0  0  0  0
   11.3699   35.5332   21.1732 H   0  0  0  0  0  0
   12.8165   35.7279   23.0299 H   0  0  0  0  0  0
   12.1431   35.1631   18.7630 H   0  0  0  0  0  0
   13.2830   36.9601   19.1092 H   0  0  0  0  0  0
   14.8453   33.7628   20.3647 H   0  0  0  0  0  0
   11.8730   32.6240   17.9510 H   0  0  0  0  0  0
   18.1572   31.2365   16.2739 H   0  0  0  0  0  0
   19.5568   32.1296   17.8977 H   0  0  0  0  0  0
   18.8054   32.8843   19.4775 H   0  0  0  0  0  0
  1  2  2  0  0  0
  1  3  1  0  0  0
  1  4  1  0  0  0
  1  5  1  0  0  0
  3 33  1  0  0  0
  4 34  1  0  0  0
  5  6  1  0  0  0
  6  7  2  0  0  0
  6  8  1  0  0  0
  6  9  1  0  0  0
  9 10  1  0  0  0
 10 11  2  0  0  0
 10 12  1  0  0  0
 10 13  1  0  0  0
 12 35  1  0  0  0
 13 14  1  0  0  0
 14 15  1  0  0  0
 14 36  1  0  0  0
 14 37  1  0  0  0
 15 16  1  0  0  0
 15 17  1  0  0  0
 15 38  1  0  0  0
 16 21  1  0  0  0
 17 18  1  0  0  0
 17 19  1  0  0  0
 17 39  1  0  0  0
 18 40  1  0  0  0
 19 20  1  0  0  0
 19 21  1  0  0  0
 19 41  1  0  0  0
 20 42  1  0  0  0
 21 22  1  0  0  0
 21 43  1  0  0  0
 22 23  1  0  0  0
 22 32  1  0  0  0
 23 24  2  0  0  0
 23 44  1  0  0  0
 24 25  1  0  0  0
 25 26  1  0  0  0
 25 32  2  0  0  0
 26 27  2  0  0  0
 26 28  1  0  0  0
 28 29  1  0  0  0
 28 45  1  0  0  0
 29 30  1  0  0  0
 29 31  2  0  0  0
 30 46  1  0  0  0
 30 47  1  0  0  0
 31 32  1  0  0  0
M  CHG  1   8  -1
M  END
> <s_m_source_file>
/cbio/jclab/home/rustenburg/PFK/Epik-Ligands/Results/InProgress/GUANOSINE-5'-TRIPHOSPHATE/pH_4.0/GUANOSINE-5'-TRIPHOSPHATE_pH_4.0-before_epik.mol2

> <i_m_source_file_index>
1

> <r_lp_tautomer_probability>
0.999940409345307

> <r_epik_Ionization_Penalty>
  2.1131

> <r_epik_Ionization_Penalty_Charging>
  0.0250

> <r_epik_Ionization_Penalty_Neutral>
  2.0881

> <r_epik_State_Penalty>
  2.5303

> <r_epik_Charging_Adjusted_Penalty>
2.55527857161291

> <i_epik_Tot_Q>
-1

> <i_epik_Tot_abs_Q>
1

> <s_epik_Chemistry_Notes>
This compound contains an acetal/aminal-like group ( X-CH(R)-Y where X, Y are N, S, or O) that may be acid/base labile, releasing an aldehyde.

$$$$
GTP
                    3D
 Structure written by MMmdl.
 47 49  0  0  1  0            999 V2000
    4.5660   31.3910   21.6350 P   0  0  0  0  0  0
    4.6130   31.9070   23.0690 O   0  0  0  0  0  0
    3.8920   32.3190   20.6310 O   0  5  0  0  0  0
    4.1430   30.0120   21.6130 O   0  0  0  0  0  0
    6.1600   31.3600   21.2280 O   0  0  0  0  0  0
    6.8770   31.2020   19.7450 P   0  0  1  0  0  0
    7.0790   29.7090   19.4730 O   0  0  0  0  0  0
    6.1250   31.9700   18.7490 O   0  0  0  0  0  0
    8.2510   31.8900   20.0030 O   0  0  0  0  0  0
    8.8460   33.2610   19.4110 P   0  0  1  0  0  0
    8.8880   33.2560   17.9570 O   0  0  0  0  0  0
    8.1050   34.3980   20.1290 O   0  0  0  0  0  0
   10.4300   33.1530   19.9000 O   0  0  0  0  0  0
   10.5490   33.0440   21.3780 C   0  0  0  0  0  0
   12.0460   33.6180   21.4740 C   0  0  1  0  0  0
   13.0520   32.8300   20.8180 O   0  0  0  0  0  0
   12.3070   34.9690   21.0570 C   0  0  1  0  0  0
   13.1090   35.6720   21.9710 O   0  0  0  0  0  0
   12.8390   34.9710   19.5930 C   0  0  1  0  0  0
   13.6720   35.9610   19.3550 O   0  0  0  0  0  0
   13.8460   33.6220   19.9270 C   0  0  2  0  0  0
   14.0010   32.8330   18.6490 N   0  0  0  0  0  0
   12.9340   32.4520   17.8480 C   0  0  0  0  0  0
   13.6400   31.7980   16.8990 N   0  0  0  0  0  0
   15.0290   31.8890   17.0010 C   0  0  0  0  0  0
   15.8990   31.3940   16.2380 C   0  0  0  0  0  0
   15.9820   30.6800   15.1910 O   0  0  0  0  0  0
   17.2740   31.6280   16.8000 N   0  0  0  0  0  0
   17.3040   32.2950   17.8960 C   0  0  0  0  0  0
   18.6770   32.4500   18.4750 N   0  0  0  0  0  0
   16.3840   32.7360   18.7390 N   0  0  0  0  0  0
   15.2180   32.5170   18.1350 C   0  0  0  0  0  0
    3.1013   29.7523   21.8527 H   0  0  0  0  0  0
    5.1247   31.6353   18.4370 H   0  0  0  0  0  0
    7.0451   34.5904   19.9065 H   0  0  0  0  0  0
    9.7718   33.6593   21.8548 H   0  0  0  0  0  0
   10.4216   31.9939   21.6797 H   0  0  0  0  0  0
   12.2583   33.6282   22.5533 H   0  0  0  0  0  0
   11.3699   35.5332   21.1732 H   0  0  0  0  0  0
   12.8165   35.7279   23.0299 H   0  0  0  0  0  0
   12.1431   35.1631   18.7630 H   0  0  0  0  0  0
   13.2830   36.9601   19.1092 H   0  0  0  0  0  0
   14.8453   33.7628   20.3647 H   0  0  0  0  0  0
   11.8730   32.6240   17.9510 H   0  0  0  0  0  0
   18.1572   31.2365   16.2739 H   0  0  0  0  0  0
   19.5568   32.1296   17.8977 H   0  0  0  0  0  0
   18.8054   32.8843   19.4775 H   0  0  0  0  0  0
  1  2  2  0  0  0
  1  3  1  0  0  0
  1  4  1  0  0  0
  1  5  1  0  0  0
  4 33  1  0  0  0
  5  6  1  0  0  0
  6  7  2  0  0  0
  6  8  1  0  0  0
  6  9  1  0  0  0
  8 34  1  0  0  0
  9 10  1  0  0  0
 10 11  2  0  0  0
 10 12  1  0  0  0
 10 13  1  0  0  0
 12 35  1  0  0  0
 13 14  1  0  0  0
 14 15  1  0  0  0
 14 36  1  0  0  0
 14 37  1  0  0  0
 15 16  1  0  0  0
 15 17  1  0  0  0
 15 38  1  0  0  0
 16 21  1  0  0  0
 17 18  1  0  0  0
 17 19  1  0  0  0
 17 39  1  0  0  0
 18 40  1  0  0  0
 19 20  1  0  0  0
 19 21  1  0  0  0
 19 41  1  0  0  0
 20 42  1  0  0  0
 21 22  1  0  0  0
 21 43  1  0  0  0
 22 23  1  0  0  0
 22 32  1  0  0  0
 23 24  2  0  0  0
 23 44  1  0  0  0
 24 25  1  0  0  0
 25 26  1  0  0  0
 25 32  2  0  0  0
 26 27  2  0  0  0
 26 28  1  0  0  0
 28 29  1  0  0  0
 28 45  1  0  0  0
 29 30  1  0  0  0
 29 31  2  0  0  0
 30 46  1  0  0  0
 30 47  1  0  0  0
 31 32  1  0  0  0
M  CHG  1   3  -1
M  END
> <s_m_source_file>
/cbio/jclab/home/rustenburg/PFK/Epik-Ligands/Results/InProgress/GUANOSINE-5'-TRIPHOSPHATE/pH_4.0/GUANOSINE-5'-TRIPHOSPHATE_pH_4.0-before_epik.mol2

> <i_m_source_file_index>
1

> <r_epik_Ionization_Penalty>
  3.0053

> <r_epik_Ionization_Penalty_Charging>
  0.0301

> <r_epik_Ionization_Penalty_Neutral>
  2.9752

> <r_epik_State_Penalty>
  2.9087

> <r_epik_Charging_Adjusted_Penalty>
2.93870385703221

> <i_epik_Tot_Q>
-1

> <i_epik_Tot_abs_Q>
1

> <s_epik_Chemistry_Notes>
This compound contains an acetal/aminal-like group ( X-CH(R)-Y where X, Y are N, S, or O) that may be acid/base labile, releasing an aldehyde.

$$$$
GTP
                    3D
 Structure written by MMmdl.
 48 50  0  0  1  0            999 V2000
    4.5660   31.3910   21.6350 P   0  0  0  0  0  0
    4.6130   31.9070   23.0690 O   0  0  0  0  0  0
    3.8920   32.3190   20.6310 O   0  0  0  0  0  0
    4.1430   30.0120   21.6130 O   0  0  0  0  0  0
    6.1600   31.3600   21.2280 O   0  0  0  0  0  0
    6.8770   31.2020   19.7450 P   0  0  0  0  0  0
    7.0790   29.7090   19.4730 O   0  0  0  0  0  0
    6.1250   31.9700   18.7490 O   0  5  0  0  0  0
    8.2510   31.8900   20.0030 O   0  0  0  0  0  0
    8.8460   33.2610   19.4110 P   0  0  1  0  0  0
    8.8880   33.2560   17.9570 O   0  0  0  0  0  0
    8.1050   34.3980   20.1290 O   0  0  0  0  0  0
   10.4300   33.1530   19.9000 O   0  0  0  0  0  0
   10.5490   33.0440   21.3780 C   0  0  0  0  0  0
   12.0460   33.6180   21.4740 C   0  0  1  0  0  0
   13.0520   32.8300   20.8180 O   0  0  0  0  0  0
   12.3070   34.9690   21.0570 C   0  0  1  0  0  0
   13.1090   35.6720   21.9710 O   0  0  0  0  0  0
   12.8390   34.9710   19.5930 C   0  0  1  0  0  0
   13.6720   35.9610   19.3550 O   0  0  0  0  0  0
   13.8460   33.6220   19.9270 C   0  0  2  0  0  0
   14.0010   32.8330   18.6490 N   0  0  0  0  0  0
   12.9340   32.4520   17.8480 C   0  0  0  0  0  0
   13.6400   31.7980   16.8990 N   0  3  0  0  0  0
   15.0290   31.8890   17.0010 C   0  0  0  0  0  0
   15.8990   31.3940   16.2380 C   0  0  0  0  0  0
   15.9820   30.6800   15.1910 O   0  0  0  0  0  0
   17.2740   31.6280   16.8000 N   0  0  0  0  0  0
   17.3040   32.2950   17.8960 C   0  0  0  0  0  0
   18.6770   32.4500   18.4750 N   0  0  0  0  0  0
   16.3840   32.7360   18.7390 N   0  0  0  0  0  0
   15.2180   32.5170   18.1350 C   0  0  0  0  0  0
    2.8098   32.5054   20.6948 H   0  0  0  0  0  0
    3.1013   29.7523   21.8527 H   0  0  0  0  0  0
    7.0451   34.5904   19.9065 H   0  0  0  0  0  0
    9.7718   33.6593   21.8548 H   0  0  0  0  0  0
   10.4216   31.9939   21.6797 H   0  0  0  0  0  0
   12.2583   33.6282   22.5533 H   0  0  0  0  0  0
   11.3699   35.5332   21.1732 H   0  0  0  0  0  0
   12.8165   35.7279   23.0299 H   0  0  0  0  0  0
   12.1431   35.1631   18.7630 H   0  0  0  0  0  0
   13.2830   36.9601   19.1092 H   0  0  0  0  0  0
   14.8453   33.7628   20.3647 H   0  0  0  0  0  0
   11.8730   32.6240   17.9510 H   0  0  0  0  0  0
   18.1572   31.2365   16.2739 H   0  0  0  0  0  0
   19.5568   32.1296   17.8977 H   0  0  0  0  0  0
   18.8054   32.8843   19.4775 H   0  0  0  0  0  0
   13.1150   31.2389   16.1105 H   0  0  0  0  0  0
  1  2  2  0  0  0
  1  3  1  0  0  0
  1  4  1  0  0  0
  1  5  1  0  0  0
  3 33  1  0  0  0
  4 34  1  0  0  0
  5  6  1  0  0  0
  6  7  2  0  0  0
  6  8  1  0  0  0
  6  9  1  0  0  0
  9 10  1  0  0  0
 10 11  2  0  0  0
 10 12  1  0  0  0
 10 13  1  0  0  0
 12 35  1  0  0  0
 13 14  1  0  0  0
 14 15  1  0  0  0
 14 36  1  0  0  0
 14 37  1  0  0  0
 15 16  1  0  0  0
 15 17  1  0  0  0
 15 38  1  0  0  0
 16 21  1  0  0  0
 17 18  1  0  0  0
 17 19  1  0  0  0
 17 39  1  0  0  0
 18 40  1  0  0  0
 19 20  1  0  0  0
 19 21  1  0  0  0
 19 41  1  0  0  0
 20 42  1  0  0  0
 21 22  1  0  0  0
 21 43  1  0  0  0
 22 23  1  0  0  0
 22 32  1  0  0  0
 23 24  2  0  0  0
 23 44  1  0  0  0
 24 25  1  0  0  0
 24 48  1  0  0  0
 25 26  1  0  0  0
 25 32  2  0  0  0
 26 27  2  0  0  0
 26 28  1  0  0  0
 28 29  1  0  0  0
 28 45  1  0  0  0
 29 30  1  0  0  0
 29 31  2  0  0  0
 30 46  1  0  0  0
 30 47  1  0  0  0
 31 32  1  0  0  0
M  CHG  2   8  -1  24   1
M  END
> <s_m_source_file>
/cbio/jclab/home/rustenburg/PFK/Epik-Ligands/Results/InProgress/GUANOSINE-5'-TRIPHOSPHATE/pH_4.0/GUANOSINE-5'-TRIPHOSPHATE_pH_4.0-before_epik.mol2

> <i_m_source_file_index>
1

> <r_lp_tautomer_probability>
0.998603683126107

> <r_epik_Ionization_Penalty>
  3.6861

> <r_epik_Ionization_Penalty_Charging>
  1.6367

> <r_epik_Ionization_Penalty_Neutral>
  2.0493

> <r_epik_State_Penalty>
  3.2567

> <r_epik_Charging_Adjusted_Penalty>
4.8934073976062

> <i_epik_Tot_Q>
0

> <i_epik_Tot_abs_Q>
2

> <s_epik_Chemistry_Notes>
This compound contains an acetal/aminal-like group ( X-CH(R)-Y where X, Y are N, S, or O) that may be acid/base labile, releasing an aldehyde.

$$$$
GTP
                    3D
 Structure written by MMmdl.
 47 49  0  0  1  0            999 V2000
    4.5660   31.3910   21.6350 P   0  0  0  0  0  0
    4.6130   31.9070   23.0690 O   0  0  0  0  0  0
    3.8920   32.3190   20.6310 O   0  0  0  0  0  0
    4.1430   30.0120   21.6130 O   0  0  0  0  0  0
    6.1600   31.3600   21.2280 O   0  0  0  0  0  0
    6.8770   31.2020   19.7450 P   0  0  1  0  0  0
    7.0790   29.7090   19.4730 O   0  0  0  0  0  0
    6.1250   31.9700   18.7490 O   0  0  0  0  0  0
    8.2510   31.8900   20.0030 O   0  0  0  0  0  0
    8.8460   33.2610   19.4110 P   0  0  0  0  0  0
    8.8880   33.2560   17.9570 O   0  0  0  0  0  0
    8.1050   34.3980   20.1290 O   0  5  0  0  0  0
   10.4300   33.1530   19.9000 O   0  0  0  0  0  0
   10.5490   33.0440   21.3780 C   0  0  0  0  0  0
   12.0460   33.6180   21.4740 C   0  0  1  0  0  0
   13.0520   32.8300   20.8180 O   0  0  0  0  0  0
   12.3070   34.9690   21.0570 C   0  0  1  0  0  0
   13.1090   35.6720   21.9710 O   0  0  0  0  0  0
   12.8390   34.9710   19.5930 C   0  0  1  0  0  0
   13.6720   35.9610   19.3550 O   0  0  0  0  0  0
   13.8460   33.6220   19.9270 C   0  0  2  0  0  0
   14.0010   32.8330   18.6490 N   0  0  0  0  0  0
   12.9340   32.4520   17.8480 C   0  0  0  0  0  0
   13.6400   31.7980   16.8990 N   0  0  0  0  0  0
   15.0290   31.8890   17.0010 C   0  0  0  0  0  0
   15.8990   31.3940   16.2380 C   0  0  0  0  0  0
   15.9820   30.6800   15.1910 O   0  0  0  0  0  0
   17.2740   31.6280   16.8000 N   0  0  0  0  0  0
   17.3040   32.2950   17.8960 C   0  0  0  0  0  0
   18.6770   32.4500   18.4750 N   0  0  0  0  0  0
   16.3840   32.7360   18.7390 N   0  0  0  0  0  0
   15.2180   32.5170   18.1350 C   0  0  0  0  0  0
    2.8098   32.5054   20.6948 H   0  0  0  0  0  0
    3.1013   29.7523   21.8527 H   0  0  0  0  0  0
    5.1247   31.6353   18.4370 H   0  0  0  0  0  0
    9.7718   33.6593   21.8548 H   0  0  0  0  0  0
   10.4216   31.9939   21.6797 H   0  0  0  0  0  0
   12.2583   33.6282   22.5533 H   0  0  0  0  0  0
   11.3699   35.5332   21.1732 H   0  0  0  0  0  0
   12.8165   35.7279   23.0299 H   0  0  0  0  0  0
   12.1431   35.1631   18.7630 H   0  0  0  0  0  0
   13.2830   36.9601   19.1092 H   0  0  0  0  0  0
   14.8453   33.7628   20.3647 H   0  0  0  0  0  0
   11.8730   32.6240   17.9510 H   0  0  0  0  0  0
   18.1572   31.2365   16.2739 H   0  0  0  0  0  0
   19.5568   32.1296   17.8977 H   0  0  0  0  0  0
   18.8054   32.8843   19.4775 H   0  0  0  0  0  0
  1  2  2  0  0  0
  1  3  1  0  0  0
  1  4  1  0  0  0
  1  5  1  0  0  0
  3 33  1  0  0  0
  4 34  1  0  0  0
  5  6  1  0  0  0
  6  7  2  0  0  0
  6  8  1  0  0  0
  6  9  1  0  0  0
  8 35  1  0  0  0
  9 10  1  0  0  0
 10 11  2  0  0  0
 10 12  1  0  0  0
 10 13  1  0  0  0
 13 14  1  0  0  0
 14 15  1  0  0  0
 14 36  1  0  0  0
 14 37  1  0  0  0
 15 16  1  0  0  0
 15 17  1  0  0  0
 15 38  1  0  0  0
 16 21  1  0  0  0
 17 18  1  0  0  0
 17 19  1  0  0  0
 17 39  1  0  0  0
 18 40  1  0  0  0
 19 20  1  0  0  0
 19 21  1  0  0  0
 19 41  1  0  0  0
 20 42  1  0  0  0
 21 22  1  0  0  0
 21 43  1  0  0  0
 22 23  1  0  0  0
 22 32  1  0  0  0
 23 24  2  0  0  0
 23 44  1  0  0  0
 24 25  1  0  0  0
 25 26  1  0  0  0
 25 32  2  0  0  0
 26 27  2  0  0  0
 26 28  1  0  0  0
 28 29  1  0  0  0
 28 45  1  0  0  0
 29 30  1  0  0  0
 29 31  2  0  0  0
 30 46  1  0  0  0
 30 47  1  0  0  0
 31 32  1  0  0  0
M  CHG  1  12  -1
M  END
> <s_m_source_file>
/cbio/jclab/home/rustenburg/PFK/Epik-Ligands/Results/InProgress/GUANOSINE-5'-TRIPHOSPHATE/pH_4.0/GUANOSINE-5'-TRIPHOSPHATE_pH_4.0-before_epik.mol2

> <i_m_source_file_index>
1

> <r_epik_Ionization_Penalty>
  3.1172

> <r_epik_Ionization_Penalty_Charging>
  0.0621

> <r_epik_Ionization_Penalty_Neutral>
  3.0551

> <r_epik_State_Penalty>
  3.3027

> <r_epik_Charging_Adjusted_Penalty>
3.36482119046638

> <i_epik_Tot_Q>
-1

> <i_epik_Tot_abs_Q>
1

> <s_epik_Chemistry_Notes>
This compound contains an acetal/aminal-like group ( X-CH(R)-Y where X, Y are N, S, or O) that may be acid/base labile, releasing an aldehyde.

$$$$
GTP
                    3D
 Structure written by MMmdl.
 45 47  0  0  1  0            999 V2000
    4.5660   31.3910   21.6350 P   0  0  0  0  0  0
    4.6130   31.9070   23.0690 O   0  0  0  0  0  0
    3.8920   32.3190   20.6310 O   0  5  0  0  0  0
    4.1430   30.0120   21.6130 O   0  5  0  0  0  0
    6.1600   31.3600   21.2280 O   0  0  0  0  0  0
    6.8770   31.2020   19.7450 P   0  0  1  0  0  0
    7.0790   29.7090   19.4730 O   0  0  0  0  0  0
    6.1250   31.9700   18.7490 O   0  0  0  0  0  0
    8.2510   31.8900   20.0030 O   0  0  0  0  0  0
    8.8460   33.2610   19.4110 P   0  0  0  0  0  0
    8.8880   33.2560   17.9570 O   0  0  0  0  0  0
    8.1050   34.3980   20.1290 O   0  5  0  0  0  0
   10.4300   33.1530   19.9000 O   0  0  0  0  0  0
   10.5490   33.0440   21.3780 C   0  0  0  0  0  0
   12.0460   33.6180   21.4740 C   0  0  1  0  0  0
   13.0520   32.8300   20.8180 O   0  0  0  0  0  0
   12.3070   34.9690   21.0570 C   0  0  1  0  0  0
   13.1090   35.6720   21.9710 O   0  0  0  0  0  0
   12.8390   34.9710   19.5930 C   0  0  1  0  0  0
   13.6720   35.9610   19.3550 O   0  0  0  0  0  0
   13.8460   33.6220   19.9270 C   0  0  2  0  0  0
   14.0010   32.8330   18.6490 N   0  0  0  0  0  0
   12.9340   32.4520   17.8480 C   0  0  0  0  0  0
   13.6400   31.7980   16.8990 N   0  0  0  0  0  0
   15.0290   31.8890   17.0010 C   0  0  0  0  0  0
   15.8990   31.3940   16.2380 C   0  0  0  0  0  0
   15.9820   30.6800   15.1910 O   0  0  0  0  0  0
   17.2740   31.6280   16.8000 N   0  0  0  0  0  0
   17.3040   32.2950   17.8960 C   0  0  0  0  0  0
   18.6770   32.4500   18.4750 N   0  0  0  0  0  0
   16.3840   32.7360   18.7390 N   0  0  0  0  0  0
   15.2180   32.5170   18.1350 C   0  0  0  0  0  0
    5.1247   31.6353   18.4370 H   0  0  0  0  0  0
    9.7718   33.6593   21.8548 H   0  0  0  0  0  0
   10.4216   31.9939   21.6797 H   0  0  0  0  0  0
   12.2583   33.6282   22.5533 H   0  0  0  0  0  0
   11.3699   35.5332   21.1732 H   0  0  0  0  0  0
   12.8165   35.7279   23.0299 H   0  0  0  0  0  0
   12.1431   35.1631   18.7630 H   0  0  0  0  0  0
   13.2830   36.9601   19.1092 H   0  0  0  0  0  0
   14.8453   33.7628   20.3647 H   0  0  0  0  0  0
   11.8730   32.6240   17.9510 H   0  0  0  0  0  0
   18.1572   31.2365   16.2739 H   0  0  0  0  0  0
   19.5568   32.1296   17.8977 H   0  0  0  0  0  0
   18.8054   32.8843   19.4775 H   0  0  0  0  0  0
  1  2  2  0  0  0
  1  3  1  0  0  0
  1  4  1  0  0  0
  1  5  1  0  0  0
  5  6  1  0  0  0
  6  7  2  0  0  0
  6  8  1  0  0  0
  6  9  1  0  0  0
  8 33  1  0  0  0
  9 10  1  0  0  0
 10 11  2  0  0  0
 10 12  1  0  0  0
 10 13  1  0  0  0
 13 14  1  0  0  0
 14 15  1  0  0  0
 14 34  1  0  0  0
 14 35  1  0  0  0
 15 16  1  0  0  0
 15 17  1  0  0  0
 15 36  1  0  0  0
 16 21  1  0  0  0
 17 18  1  0  0  0
 17 19  1  0  0  0
 17 37  1  0  0  0
 18 38  1  0  0  0
 19 20  1  0  0  0
 19 21  1  0  0  0
 19 39  1  0  0  0
 20 40  1  0  0  0
 21 22  1  0  0  0
 21 41  1  0  0  0
 22 23  1  0  0  0
 22 32  1  0  0  0
 23 24  2  0  0  0
 23 42  1  0  0  0
 24 25  1  0  0  0
 25 26  1  0  0  0
 25 32  2  0  0  0
 26 27  2  0  0  0
 26 28  1  0  0  0
 28 29  1  0  0  0
 28 43  1  0  0  0
 29 30  1  0  0  0
 29 31  2  0  0  0
 30 44  1  0  0  0
 30 45  1  0  0  0
 31 32  1  0  0  0
M  CHG  3   3  -1   4  -1  12  -1
M  END
> <s_m_source_file>
/cbio/jclab/home/rustenburg/PFK/Epik-Ligands/Results/InProgress/GUANOSINE-5'-TRIPHOSPHATE/pH_4.0/GUANOSINE-5'-TRIPHOSPHATE_pH_4.0-before_epik.mol2

> <i_m_source_file_index>
1

> <r_epik_Ionization_Penalty>
  2.5611

> <r_epik_Ionization_Penalty_Charging>
  2.2599

> <r_epik_Ionization_Penalty_Neutral>
  0.3012

> <r_epik_State_Penalty>
  3.7445

> <r_epik_Charging_Adjusted_Penalty>
6.0043625478871

> <i_epik_Tot_Q>
-3

> <i_epik_Tot_abs_Q>
3

> <s_epik_Chemistry_Notes>
This compound contains an acetal/aminal-like group ( X-CH(R)-Y where X, Y are N, S, or O) that may be acid/base labile, releasing an aldehyde.

$$$$
GTP
                    3D
 Structure written by MMmdl.
 48 50  0  0  1  0            999 V2000
    4.5660   31.3910   21.6350 P   0  0  0  0  0  0
    4.6130   31.9070   23.0690 O   0  0  0  0  0  0
    3.8920   32.3190   20.6310 O   0  5  0  0  0  0
    4.1430   30.0120   21.6130 O   0  0  0  0  0  0
    6.1600   31.3600   21.2280 O   0  0  0  0  0  0
    6.8770   31.2020   19.7450 P   0  0  1  0  0  0
    7.0790   29.7090   19.4730 O   0  0  0  0  0  0
    6.1250   31.9700   18.7490 O   0  0  0  0  0  0
    8.2510   31.8900   20.0030 O   0  0  0  0  0  0
    8.8460   33.2610   19.4110 P   0  0  1  0  0  0
    8.8880   33.2560   17.9570 O   0  0  0  0  0  0
    8.1050   34.3980   20.1290 O   0  0  0  0  0  0
   10.4300   33.1530   19.9000 O   0  0  0  0  0  0
   10.5490   33.0440   21.3780 C   0  0  0  0  0  0
   12.0460   33.6180   21.4740 C   0  0  1  0  0  0
   13.0520   32.8300   20.8180 O   0  0  0  0  0  0
   12.3070   34.9690   21.0570 C   0  0  1  0  0  0
   13.1090   35.6720   21.9710 O   0  0  0  0  0  0
   12.8390   34.9710   19.5930 C   0  0  1  0  0  0
   13.6720   35.9610   19.3550 O   0  0  0  0  0  0
   13.8460   33.6220   19.9270 C   0  0  2  0  0  0
   14.0010   32.8330   18.6490 N   0  0  0  0  0  0
   12.9340   32.4520   17.8480 C   0  0  0  0  0  0
   13.6400   31.7980   16.8990 N   0  3  0  0  0  0
   15.0290   31.8890   17.0010 C   0  0  0  0  0  0
   15.8990   31.3940   16.2380 C   0  0  0  0  0  0
   15.9820   30.6800   15.1910 O   0  0  0  0  0  0
   17.2740   31.6280   16.8000 N   0  0  0  0  0  0
   17.3040   32.2950   17.8960 C   0  0  0  0  0  0
   18.6770   32.4500   18.4750 N   0  0  0  0  0  0
   16.3840   32.7360   18.7390 N   0  0  0  0  0  0
   15.2180   32.5170   18.1350 C   0  0  0  0  0  0
    3.1013   29.7523   21.8527 H   0  0  0  0  0  0
    5.1247   31.6353   18.4370 H   0  0  0  0  0  0
    7.0451   34.5904   19.9065 H   0  0  0  0  0  0
    9.7718   33.6593   21.8548 H   0  0  0  0  0  0
   10.4216   31.9939   21.6797 H   0  0  0  0  0  0
   12.2583   33.6282   22.5533 H   0  0  0  0  0  0
   11.3699   35.5332   21.1732 H   0  0  0  0  0  0
   12.8165   35.7279   23.0299 H   0  0  0  0  0  0
   12.1431   35.1631   18.7630 H   0  0  0  0  0  0
   13.2830   36.9601   19.1092 H   0  0  0  0  0  0
   14.8453   33.7628   20.3647 H   0  0  0  0  0  0
   11.8730   32.6240   17.9510 H   0  0  0  0  0  0
   18.1572   31.2365   16.2739 H   0  0  0  0  0  0
   19.5568   32.1296   17.8977 H   0  0  0  0  0  0
   18.8054   32.8843   19.4775 H   0  0  0  0  0  0
   13.1150   31.2389   16.1105 H   0  0  0  0  0  0
  1  2  2  0  0  0
  1  3  1  0  0  0
  1  4  1  0  0  0
  1  5  1  0  0  0
  4 33  1  0  0  0
  5  6  1  0  0  0
  6  7  2  0  0  0
  6  8  1  0  0  0
  6  9  1  0  0  0
  8 34  1  0  0  0
  9 10  1  0  0  0
 10 11  2  0  0  0
 10 12  1  0  0  0
 10 13  1  0  0  0
 12 35  1  0  0  0
 13 14  1  0  0  0
 14 15  1  0  0  0
 14 36  1  0  0  0
 14 37  1  0  0  0
 15 16  1  0  0  0
 15 17  1  0  0  0
 15 38  1  0  0  0
 16 21  1  0  0  0
 17 18  1  0  0  0
 17 19  1  0  0  0
 17 39  1  0  0  0
 18 40  1  0  0  0
 19 20  1  0  0  0
 19 21  1  0  0  0
 19 41  1  0  0  0
 20 42  1  0  0  0
 21 22  1  0  0  0
 21 43  1  0  0  0
 22 23  1  0  0  0
 22 32  1  0  0  0
 23 24  2  0  0  0
 23 44  1  0  0  0
 24 25  1  0  0  0
 24 48  1  0  0  0
 25 26  1  0  0  0
 25 32  2  0  0  0
 26 27  2  0  0  0
 26 28  1  0  0  0
 28 29  1  0  0  0
 28 45  1  0  0  0
 29 30  1  0  0  0
 29 31  2  0  0  0
 30 46  1  0  0  0
 30 47  1  0  0  0
 31 32  1  0  0  0
M  CHG  2   3  -1  24   1
M  END
> <s_m_source_file>
/cbio/jclab/home/rustenburg/PFK/Epik-Ligands/Results/InProgress/GUANOSINE-5'-TRIPHOSPHATE/pH_4.0/GUANOSINE-5'-TRIPHOSPHATE_pH_4.0-before_epik.mol2

> <i_m_source_file_index>
1

> <r_epik_Ionization_Penalty>
  4.5792

> <r_epik_Ionization_Penalty_Charging>
  1.6418

> <r_epik_Ionization_Penalty_Neutral>
  2.9375

> <r_epik_State_Penalty>
  3.8121

> <r_epik_Charging_Adjusted_Penalty>
5.45389630577589

> <i_epik_Tot_Q>
0

> <i_epik_Tot_abs_Q>
2

> <s_epik_Chemistry_Notes>
This compound contains an acetal/aminal-like group ( X-CH(R)-Y where X, Y are N, S, or O) that may be acid/base labile, releasing an aldehyde.

$$$$
GTP
                    3D
 Structure written by MMmdl.
 44 46  0  0  1  0            999 V2000
    4.5660   31.3910   21.6350 P   0  0  0  0  0  0
    4.6130   31.9070   23.0690 O   0  0  0  0  0  0
    3.8920   32.3190   20.6310 O   0  5  0  0  0  0
    4.1430   30.0120   21.6130 O   0  5  0  0  0  0
    6.1600   31.3600   21.2280 O   0  0  0  0  0  0
    6.8770   31.2020   19.7450 P   0  0  0  0  0  0
    7.0790   29.7090   19.4730 O   0  0  0  0  0  0
    6.1250   31.9700   18.7490 O   0  5  0  0  0  0
    8.2510   31.8900   20.0030 O   0  0  0  0  0  0
    8.8460   33.2610   19.4110 P   0  0  0  0  0  0
    8.8880   33.2560   17.9570 O   0  0  0  0  0  0
    8.1050   34.3980   20.1290 O   0  5  0  0  0  0
   10.4300   33.1530   19.9000 O   0  0  0  0  0  0
   10.5490   33.0440   21.3780 C   0  0  0  0  0  0
   12.0460   33.6180   21.4740 C   0  0  1  0  0  0
   13.0520   32.8300   20.8180 O   0  0  0  0  0  0
   12.3070   34.9690   21.0570 C   0  0  1  0  0  0
   13.1090   35.6720   21.9710 O   0  0  0  0  0  0
   12.8390   34.9710   19.5930 C   0  0  1  0  0  0
   13.6720   35.9610   19.3550 O   0  0  0  0  0  0
   13.8460   33.6220   19.9270 C   0  0  2  0  0  0
   14.0010   32.8330   18.6490 N   0  0  0  0  0  0
   12.9340   32.4520   17.8480 C   0  0  0  0  0  0
   13.6400   31.7980   16.8990 N   0  0  0  0  0  0
   15.0290   31.8890   17.0010 C   0  0  0  0  0  0
   15.8990   31.3940   16.2380 C   0  0  0  0  0  0
   15.9820   30.6800   15.1910 O   0  0  0  0  0  0
   17.2740   31.6280   16.8000 N   0  0  0  0  0  0
   17.3040   32.2950   17.8960 C   0  0  0  0  0  0
   18.6770   32.4500   18.4750 N   0  0  0  0  0  0
   16.3840   32.7360   18.7390 N   0  0  0  0  0  0
   15.2180   32.5170   18.1350 C   0  0  0  0  0  0
    9.7718   33.6593   21.8548 H   0  0  0  0  0  0
   10.4216   31.9939   21.6797 H   0  0  0  0  0  0
   12.2583   33.6282   22.5533 H   0  0  0  0  0  0
   11.3699   35.5332   21.1732 H   0  0  0  0  0  0
   12.8165   35.7279   23.0299 H   0  0  0  0  0  0
   12.1431   35.1631   18.7630 H   0  0  0  0  0  0
   13.2830   36.9601   19.1092 H   0  0  0  0  0  0
   14.8453   33.7628   20.3647 H   0  0  0  0  0  0
   11.8730   32.6240   17.9510 H   0  0  0  0  0  0
   18.1572   31.2365   16.2739 H   0  0  0  0  0  0
   19.5568   32.1296   17.8977 H   0  0  0  0  0  0
   18.8054   32.8843   19.4775 H   0  0  0  0  0  0
  1  2  2  0  0  0
  1  3  1  0  0  0
  1  4  1  0  0  0
  1  5  1  0  0  0
  5  6  1  0  0  0
  6  7  2  0  0  0
  6  8  1  0  0  0
  6  9  1  0  0  0
  9 10  1  0  0  0
 10 11  2  0  0  0
 10 12  1  0  0  0
 10 13  1  0  0  0
 13 14  1  0  0  0
 14 15  1  0  0  0
 14 33  1  0  0  0
 14 34  1  0  0  0
 15 16  1  0  0  0
 15 17  1  0  0  0
 15 35  1  0  0  0
 16 21  1  0  0  0
 17 18  1  0  0  0
 17 19  1  0  0  0
 17 36  1  0  0  0
 18 37  1  0  0  0
 19 20  1  0  0  0
 19 21  1  0  0  0
 19 38  1  0  0  0
 20 39  1  0  0  0
 21 22  1  0  0  0
 21 40  1  0  0  0
 22 23  1  0  0  0
 22 32  1  0  0  0
 23 24  2  0  0  0
 23 41  1  0  0  0
 24 25  1  0  0  0
 25 26  1  0  0  0
 25 32  2  0  0  0
 26 27  2  0  0  0
 26 28  1  0  0  0
 28 29  1  0  0  0
 28 42  1  0  0  0
 29 30  1  0  0  0
 29 31  2  0  0  0
 30 43  1  0  0  0
 30 44  1  0  0  0
 31 32  1  0  0  0
M  CHG  4   3  -1   4  -1   8  -1  12  -1
M  END
> <s_m_source_file>
/cbio/jclab/home/rustenburg/PFK/Epik-Ligands/Results/InProgress/GUANOSINE-5'-TRIPHOSPHATE/pH_4.0/GUANOSINE-5'-TRIPHOSPHATE_pH_4.0-before_epik.mol2

> <i_m_source_file_index>
1

> <r_lp_tautomer_probability>
0.999940409345307

> <r_epik_Ionization_Penalty>
  3.8301

> <r_epik_Ionization_Penalty_Charging>
  3.7865

> <r_epik_Ionization_Penalty_Neutral>
  0.0436

> <r_epik_State_Penalty>
  4.0198

> <r_epik_Charging_Adjusted_Penalty>
7.80634566849068

> <i_epik_Tot_Q>
-4

> <i_epik_Tot_abs_Q>
4

> <s_epik_Chemistry_Notes>
This compound contains an acetal/aminal-like group ( X-CH(R)-Y where X, Y are N, S, or O) that may be acid/base labile, releasing an aldehyde.

$$$$
GTP
                    3D
 Structure written by MMmdl.
 48 50  0  0  1  0            999 V2000
    4.5660   31.3910   21.6350 P   0  0  0  0  0  0
    4.6130   31.9070   23.0690 O   0  0  0  0  0  0
    3.8920   32.3190   20.6310 O   0  0  0  0  0  0
    4.1430   30.0120   21.6130 O   0  0  0  0  0  0
    6.1600   31.3600   21.2280 O   0  0  0  0  0  0
    6.8770   31.2020   19.7450 P   0  0  1  0  0  0
    7.0790   29.7090   19.4730 O   0  0  0  0  0  0
    6.1250   31.9700   18.7490 O   0  0  0  0  0  0
    8.2510   31.8900   20.0030 O   0  0  0  0  0  0
    8.8460   33.2610   19.4110 P   0  0  0  0  0  0
    8.8880   33.2560   17.9570 O   0  0  0  0  0  0
    8.1050   34.3980   20.1290 O   0  5  0  0  0  0
   10.4300   33.1530   19.9000 O   0  0  0  0  0  0
   10.5490   33.0440   21.3780 C   0  0  0  0  0  0
   12.0460   33.6180   21.4740 C   0  0  1  0  0  0
   13.0520   32.8300   20.8180 O   0  0  0  0  0  0
   12.3070   34.9690   21.0570 C   0  0  1  0  0  0
   13.1090   35.6720   21.9710 O   0  0  0  0  0  0
   12.8390   34.9710   19.5930 C   0  0  1  0  0  0
   13.6720   35.9610   19.3550 O   0  0  0  0  0  0
   13.8460   33.6220   19.9270 C   0  0  2  0  0  0
   14.0010   32.8330   18.6490 N   0  0  0  0  0  0
   12.9340   32.4520   17.8480 C   0  0  0  0  0  0
   13.6400   31.7980   16.8990 N   0  3  0  0  0  0
   15.0290   31.8890   17.0010 C   0  0  0  0  0  0
   15.8990   31.3940   16.2380 C   0  0  0  0  0  0
   15.9820   30.6800   15.1910 O   0  0  0  0  0  0
   17.2740   31.6280   16.8000 N   0  0  0  0  0  0
   17.3040   32.2950   17.8960 C   0  0  0  0  0  0
   18.6770   32.4500   18.4750 N   0  0  0  0  0  0
   16.3840   32.7360   18.7390 N   0  0  0  0  0  0
   15.2180   32.5170   18.1350 C   0  0  0  0  0  0
    2.8098   32.5054   20.6948 H   0  0  0  0  0  0
    3.1013   29.7523   21.8527 H   0  0  0  0  0  0
    5.1247   31.6353   18.4370 H   0  0  0  0  0  0
    9.7718   33.6593   21.8548 H   0  0  0  0  0  0
   10.4216   31.9939   21.6797 H   0  0  0  0  0  0
   12.2583   33.6282   22.5533 H   0  0  0  0  0  0
   11.3699   35.5332   21.1732 H   0  0  0  0  0  0
   12.8165   35.7279   23.0299 H   0  0  0  0  0  0
   12.1431   35.1631   18.7630 H   0  0  0  0  0  0
   13.2830   36.9601   19.1092 H   0  0  0  0  0  0
   14.8453   33.7628   20.3647 H   0  0  0  0  0  0
   11.8730   32.6240   17.9510 H   0  0  0  0  0  0
   18.1572   31.2365   16.2739 H   0  0  0  0  0  0
   19.5568   32.1296   17.8977 H   0  0  0  0  0  0
   18.8054   32.8843   19.4775 H   0  0  0  0  0  0
   13.1150   31.2389   16.1105 H   0  0  0  0  0  0
  1  2  2  0  0  0
  1  3  1  0  0  0
  1  4  1  0  0  0
  1  5  1  0  0  0
  3 33  1  0  0  0
  4 34  1  0  0  0
  5  6  1  0  0  0
  6  7  2  0  0  0
  6  8  1  0  0  0
  6  9  1  0  0  0
  8 35  1  0  0  0
  9 10  1  0  0  0
 10 11  2  0  0  0
 10 12  1  0  0  0
 10 13  1  0  0  0
 13 14  1  0  0  0
 14 15  1  0  0  0
 14 36  1  0  0  0
 14 37  1  0  0  0
 15 16  1  0  0  0
 15 17  1  0  0  0
 15 38  1  0  0  0
 16 21  1  0  0  0
 17 18  1  0  0  0
 17 19  1  0  0  0
 17 39  1  0  0  0
 18 40  1  0  0  0
 19 20  1  0  0  0
 19 21  1  0  0  0
 19 41  1  0  0  0
 20 42  1  0  0  0
 21 22  1  0  0  0
 21 43  1  0  0  0
 22 23  1  0  0  0
 22 32  1  0  0  0
 23 24  2  0  0  0
 23 44  1  0  0  0
 24 25  1  0  0  0
 24 48  1  0  0  0
 25 26  1  0  0  0
 25 32  2  0  0  0
 26 27  2  0  0  0
 26 28  1  0  0  0
 28 29  1  0  0  0
 28 45  1  0  0  0
 29 30  1  0  0  0
 29 31  2  0  0  0
 30 46  1  0  0  0
 30 47  1  0  0  0
 31 32  1  0  0  0
M  CHG  2  12  -1  24   1
M  END
> <s_m_source_file>
/cbio/jclab/home/rustenburg/PFK/Epik-Ligands/Results/InProgress/GUANOSINE-5'-TRIPHOSPHATE/pH_4.0/GUANOSINE-5'-TRIPHOSPHATE_pH_4.0-before_epik.mol2

> <i_m_source_file_index>
1

> <r_epik_Ionization_Penalty>
  4.6850

> <r_epik_Ionization_Penalty_Charging>
  1.6732

> <r_epik_Ionization_Penalty_Neutral>
  3.0118

> <r_epik_State_Penalty>
  4.0829

> <r_epik_Charging_Adjusted_Penalty>
5.75610259382244

> <i_epik_Tot_Q>
0

> <i_epik_Tot_abs_Q>
2

> <s_epik_Chemistry_Notes>
This compound contains an acetal/aminal-like group ( X-CH(R)-Y where X, Y are N, S, or O) that may be acid/base labile, releasing an aldehyde.

$$$$
GTP
                    3D
 Structure written by MMmdl.
 45 47  0  0  1  0            999 V2000
    4.5660   31.3910   21.6350 P   0  0  0  0  0  0
    4.6130   31.9070   23.0690 O   0  0  0  0  0  0
    3.8920   32.3190   20.6310 O   0  5  0  0  0  0
    4.1430   30.0120   21.6130 O   0  5  0  0  0  0
    6.1600   31.3600   21.2280 O   0  0  0  0  0  0
    6.8770   31.2020   19.7450 P   0  0  0  0  0  0
    7.0790   29.7090   19.4730 O   0  0  0  0  0  0
    6.1250   31.9700   18.7490 O   0  5  0  0  0  0
    8.2510   31.8900   20.0030 O   0  0  0  0  0  0
    8.8460   33.2610   19.4110 P   0  0  1  0  0  0
    8.8880   33.2560   17.9570 O   0  0  0  0  0  0
    8.1050   34.3980   20.1290 O   0  0  0  0  0  0
   10.4300   33.1530   19.9000 O   0  0  0  0  0  0
   10.5490   33.0440   21.3780 C   0  0  0  0  0  0
   12.0460   33.6180   21.4740 C   0  0  1  0  0  0
   13.0520   32.8300   20.8180 O   0  0  0  0  0  0
   12.3070   34.9690   21.0570 C   0  0  1  0  0  0
   13.1090   35.6720   21.9710 O   0  0  0  0  0  0
   12.8390   34.9710   19.5930 C   0  0  1  0  0  0
   13.6720   35.9610   19.3550 O   0  0  0  0  0  0
   13.8460   33.6220   19.9270 C   0  0  2  0  0  0
   14.0010   32.8330   18.6490 N   0  0  0  0  0  0
   12.9340   32.4520   17.8480 C   0  0  0  0  0  0
   13.6400   31.7980   16.8990 N   0  0  0  0  0  0
   15.0290   31.8890   17.0010 C   0  0  0  0  0  0
   15.8990   31.3940   16.2380 C   0  0  0  0  0  0
   15.9820   30.6800   15.1910 O   0  0  0  0  0  0
   17.2740   31.6280   16.8000 N   0  0  0  0  0  0
   17.3040   32.2950   17.8960 C   0  0  0  0  0  0
   18.6770   32.4500   18.4750 N   0  0  0  0  0  0
   16.3840   32.7360   18.7390 N   0  0  0  0  0  0
   15.2180   32.5170   18.1350 C   0  0  0  0  0  0
    7.0451   34.5904   19.9065 H   0  0  0  0  0  0
    9.7718   33.6593   21.8548 H   0  0  0  0  0  0
   10.4216   31.9939   21.6797 H   0  0  0  0  0  0
   12.2583   33.6282   22.5533 H   0  0  0  0  0  0
   11.3699   35.5332   21.1732 H   0  0  0  0  0  0
   12.8165   35.7279   23.0299 H   0  0  0  0  0  0
   12.1431   35.1631   18.7630 H   0  0  0  0  0  0
   13.2830   36.9601   19.1092 H   0  0  0  0  0  0
   14.8453   33.7628   20.3647 H   0  0  0  0  0  0
   11.8730   32.6240   17.9510 H   0  0  0  0  0  0
   18.1572   31.2365   16.2739 H   0  0  0  0  0  0
   19.5568   32.1296   17.8977 H   0  0  0  0  0  0
   18.8054   32.8843   19.4775 H   0  0  0  0  0  0
  1  2  2  0  0  0
  1  3  1  0  0  0
  1  4  1  0  0  0
  1  5  1  0  0  0
  5  6  1  0  0  0
  6  7  2  0  0  0
  6  8  1  0  0  0
  6  9  1  0  0  0
  9 10  1  0  0  0
 10 11  2  0  0  0
 10 12  1  0  0  0
 10 13  1  0  0  0
 12 33  1  0  0  0
 13 14  1  0  0  0
 14 15  1  0  0  0
 14 34  1  0  0  0
 14 35  1  0  0  0
 15 16  1  0  0  0
 15 17  1  0  0  0
 15 36  1  0  0  0
 16 21  1  0  0  0
 17 18  1  0  0  0
 17 19  1  0  0  0
 17 37  1  0  0  0
 18 38  1  0  0  0
 19 20  1  0  0  0
 19 21  1  0  0  0
 19 39  1  0  0  0
 20 40  1  0  0  0
 21 22  1  0  0  0
 21 41  1  0  0  0
 22 23  1  0  0  0
 22 32  1  0  0  0
 23 24  2  0  0  0
 23 42  1  0  0  0
 24 25  1  0  0  0
 25 26  1  0  0  0
 25 32  2  0  0  0
 26 27  2  0  0  0
 26 28  1  0  0  0
 28 29  1  0  0  0
 28 43  1  0  0  0
 29 30  1  0  0  0
 29 31  2  0  0  0
 30 44  1  0  0  0
 30 45  1  0  0  0
 31 32  1  0  0  0
M  CHG  3   3  -1   4  -1   8  -1
M  END
> <s_m_source_file>
/cbio/jclab/home/rustenburg/PFK/Epik-Ligands/Results/InProgress/GUANOSINE-5'-TRIPHOSPHATE/pH_4.0/GUANOSINE-5'-TRIPHOSPHATE_pH_4.0-before_epik.mol2

> <i_m_source_file_index>
1

> <r_epik_Ionization_Penalty>
  3.8878

> <r_epik_Ionization_Penalty_Charging>
  3.1463

> <r_epik_Ionization_Penalty_Neutral>
  0.7415

> <r_epik_State_Penalty>
  4.5717

> <r_epik_Charging_Adjusted_Penalty>
7.71799394269049

> <i_epik_Tot_Q>
-3

> <i_epik_Tot_abs_Q>
3

> <s_epik_Chemistry_Notes>
This compound contains an acetal/aminal-like group ( X-CH(R)-Y where X, Y are N, S, or O) that may be acid/base labile, releasing an aldehyde.

$$$$
GTP
                    3D
 Structure written by MMmdl.
 48 50  0  0  1  0            999 V2000
    4.5660   31.3910   21.6350 P   0  0  0  0  0  0
    4.6130   31.9070   23.0690 O   0  0  0  0  0  0
    3.8920   32.3190   20.6310 O   0  0  0  0  0  0
    4.1430   30.0120   21.6130 O   0  0  0  0  0  0
    6.1600   31.3600   21.2280 O   0  0  0  0  0  0
    6.8770   31.2020   19.7450 P   0  0  1  0  0  0
    7.0790   29.7090   19.4730 O   0  0  0  0  0  0
    6.1250   31.9700   18.7490 O   0  0  0  0  0  0
    8.2510   31.8900   20.0030 O   0  0  0  0  0  0
    8.8460   33.2610   19.4110 P   0  0  1  0  0  0
    8.8880   33.2560   17.9570 O   0  0  0  0  0  0
    8.1050   34.3980   20.1290 O   0  0  0  0  0  0
   10.4300   33.1530   19.9000 O   0  0  0  0  0  0
   10.5490   33.0440   21.3780 C   0  0  0  0  0  0
   12.0460   33.6180   21.4740 C   0  0  1  0  0  0
   13.0520   32.8300   20.8180 O   0  0  0  0  0  0
   12.3070   34.9690   21.0570 C   0  0  1  0  0  0
   13.1090   35.6720   21.9710 O   0  0  0  0  0  0
   12.8390   34.9710   19.5930 C   0  0  1  0  0  0
   13.6720   35.9610   19.3550 O   0  0  0  0  0  0
   13.8460   33.6220   19.9270 C   0  0  2  0  0  0
   14.0010   32.8330   18.6490 N   0  0  0  0  0  0
   12.9340   32.4520   17.8480 C   0  0  0  0  0  0
   13.6400   31.7980   16.8990 N   0  0  0  0  0  0
   15.0290   31.8890   17.0010 C   0  0  0  0  0  0
   15.8990   31.3940   16.2380 C   0  0  0  0  0  0
   15.9820   30.6800   15.1910 O   0  0  0  0  0  0
   17.2740   31.6280   16.8000 N   0  0  0  0  0  0
   17.3040   32.2950   17.8960 C   0  0  0  0  0  0
   18.6770   32.4500   18.4750 N   0  0  0  0  0  0
   16.3840   32.7360   18.7390 N   0  0  0  0  0  0
   15.2180   32.5170   18.1350 C   0  0  0  0  0  0
    2.8098   32.5054   20.6948 H   0  0  0  0  0  0
    3.1013   29.7523   21.8527 H   0  0  0  0  0  0
    5.1247   31.6353   18.4370 H   0  0  0  0  0  0
    7.0451   34.5904   19.9065 H   0  0  0  0  0  0
    9.7718   33.6593   21.8548 H   0  0  0  0  0  0
   10.4216   31.9939   21.6797 H   0  0  0  0  0  0
   12.2583   33.6282   22.5533 H   0  0  0  0  0  0
   11.3699   35.5332   21.1732 H   0  0  0  0  0  0
   12.8165   35.7279   23.0299 H   0  0  0  0  0  0
   12.1431   35.1631   18.7630 H   0  0  0  0  0  0
   13.2830   36.9601   19.1092 H   0  0  0  0  0  0
   14.8453   33.7628   20.3647 H   0  0  0  0  0  0
   11.8730   32.6240   17.9510 H   0  0  0  0  0  0
   18.1572   31.2365   16.2739 H   0  0  0  0  0  0
   19.5568   32.1296   17.8977 H   0  0  0  0  0  0
   18.8054   32.8843   19.4775 H   0  0  0  0  0  0
  1  2  2  0  0  0
  1  3  1  0  0  0
  1  4  1  0  0  0
  1  5  1  0  0  0
  3 33  1  0  0  0
  4 34  1  0  0  0
  5  6  1  0  0  0
  6  7  2  0  0  0
  6  8  1  0  0  0
  6  9  1  0  0  0
  8 35  1  0  0  0
  9 10  1  0  0  0
 10 11  2  0  0  0
 10 12  1  0  0  0
 10 13  1  0  0  0
 12 36  1  0  0  0
 13 14  1  0  0  0
 14 15  1  0  0  0
 14 37  1  0  0  0
 14 38  1  0  0  0
 15 16  1  0  0  0
 15 17  1  0  0  0
 15 39  1  0  0  0
 16 21  1  0  0  0
 17 18  1  0  0  0
 17 19  1  0  0  0
 17 40  1  0  0  0
 18 41  1  0  0  0
 19 20  1  0  0  0
 19 21  1  0  0  0
 19 42  1  0  0  0
 20 43  1  0  0  0
 21 22  1  0  0  0
 21 44  1  0  0  0
 22 23  1  0  0  0
 22 32  1  0  0  0
 23 24  2  0  0  0
 23 45  1  0  0  0
 24 25  1  0  0  0
 25 26  1  0  0  0
 25 32  2  0  0  0
 26 27  2  0  0  0
 26 28  1  0  0  0
 28 29  1  0  0  0
 28 46  1  0  0  0
 29 30  1  0  0  0
 29 31  2  0  0  0
 30 47  1  0  0  0
 30 48  1  0  0  0
 31 32  1  0  0  0
M  END
> <s_m_source_file>
/cbio/jclab/home/rustenburg/PFK/Epik-Ligands/Results/InProgress/GUANOSINE-5'-TRIPHOSPHATE/pH_4.0/GUANOSINE-5'-TRIPHOSPHATE_pH_4.0-before_epik.mol2

> <i_m_source_file_index>
1

> <r_epik_Ionization_Penalty>
  5.0798

> <r_epik_Ionization_Penalty_Charging>
  0.0000

> <r_epik_Ionization_Penalty_Neutral>
  5.0798

> <r_epik_State_Penalty>
  4.7126

> <r_epik_Charging_Adjusted_Penalty>
4.71263464145563

> <i_epik_Tot_Q>
0

> <i_epik_Tot_abs_Q>
0

> <s_epik_Chemistry_Notes>
This compound contains an acetal/aminal-like group ( X-CH(R)-Y where X, Y are N, S, or O) that may be acid/base labile, releasing an aldehyde.

$$$$
GTP
                    3D
 Structure written by MMmdl.
 46 48  0  0  1  0            999 V2000
    4.5660   31.3910   21.6350 P   0  0  0  0  0  0
    4.6130   31.9070   23.0690 O   0  0  0  0  0  0
    3.8920   32.3190   20.6310 O   0  5  0  0  0  0
    4.1430   30.0120   21.6130 O   0  5  0  0  0  0
    6.1600   31.3600   21.2280 O   0  0  0  0  0  0
    6.8770   31.2020   19.7450 P   0  0  1  0  0  0
    7.0790   29.7090   19.4730 O   0  0  0  0  0  0
    6.1250   31.9700   18.7490 O   0  0  0  0  0  0
    8.2510   31.8900   20.0030 O   0  0  0  0  0  0
    8.8460   33.2610   19.4110 P   0  0  1  0  0  0
    8.8880   33.2560   17.9570 O   0  0  0  0  0  0
    8.1050   34.3980   20.1290 O   0  0  0  0  0  0
   10.4300   33.1530   19.9000 O   0  0  0  0  0  0
   10.5490   33.0440   21.3780 C   0  0  0  0  0  0
   12.0460   33.6180   21.4740 C   0  0  1  0  0  0
   13.0520   32.8300   20.8180 O   0  0  0  0  0  0
   12.3070   34.9690   21.0570 C   0  0  1  0  0  0
   13.1090   35.6720   21.9710 O   0  0  0  0  0  0
   12.8390   34.9710   19.5930 C   0  0  1  0  0  0
   13.6720   35.9610   19.3550 O   0  0  0  0  0  0
   13.8460   33.6220   19.9270 C   0  0  2  0  0  0
   14.0010   32.8330   18.6490 N   0  0  0  0  0  0
   12.9340   32.4520   17.8480 C   0  0  0  0  0  0
   13.6400   31.7980   16.8990 N   0  0  0  0  0  0
   15.0290   31.8890   17.0010 C   0  0  0  0  0  0
   15.8990   31.3940   16.2380 C   0  0  0  0  0  0
   15.9820   30.6800   15.1910 O   0  0  0  0  0  0
   17.2740   31.6280   16.8000 N   0  0  0  0  0  0
   17.3040   32.2950   17.8960 C   0  0  0  0  0  0
   18.6770   32.4500   18.4750 N   0  0  0  0  0  0
   16.3840   32.7360   18.7390 N   0  0  0  0  0  0
   15.2180   32.5170   18.1350 C   0  0  0  0  0  0
    5.1247   31.6353   18.4370 H   0  0  0  0  0  0
    7.0451   34.5904   19.9065 H   0  0  0  0  0  0
    9.7718   33.6593   21.8548 H   0  0  0  0  0  0
   10.4216   31.9939   21.6797 H   0  0  0  0  0  0
   12.2583   33.6282   22.5533 H   0  0  0  0  0  0
   11.3699   35.5332   21.1732 H   0  0  0  0  0  0
   12.8165   35.7279   23.0299 H   0  0  0  0  0  0
   12.1431   35.1631   18.7630 H   0  0  0  0  0  0
   13.2830   36.9601   19.1092 H   0  0  0  0  0  0
   14.8453   33.7628   20.3647 H   0  0  0  0  0  0
   11.8730   32.6240   17.9510 H   0  0  0  0  0  0
   18.1572   31.2365   16.2739 H   0  0  0  0  0  0
   19.5568   32.1296   17.8977 H   0  0  0  0  0  0
   18.8054   32.8843   19.4775 H   0  0  0  0  0  0
  1  2  2  0  0  0
  1  3  1  0  0  0
  1  4  1  0  0  0
  1  5  1  0  0  0
  5  6  1  0  0  0
  6  7  2  0  0  0
  6  8  1  0  0  0
  6  9  1  0  0  0
  8 33  1  0  0  0
  9 10  1  0  0  0
 10 11  2  0  0  0
 10 12  1  0  0  0
 10 13  1  0  0  0
 12 34  1  0  0  0
 13 14  1  0  0  0
 14 15  1  0  0  0
 14 35  1  0  0  0
 14 36  1  0  0  0
 15 16  1  0  0  0
 15 17  1  0  0  0
 15 37  1  0  0  0
 16 21  1  0  0  0
 17 18  1  0  0  0
 17 19  1  0  0  0
 17 38  1  0  0  0
 18 39  1  0  0  0
 19 20  1  0  0  0
 19 21  1  0  0  0
 19 40  1  0  0  0
 20 41  1  0  0  0
 21 22  1  0  0  0
 21 42  1  0  0  0
 22 23  1  0  0  0
 22 32  1  0  0  0
 23 24  2  0  0  0
 23 43  1  0  0  0
 24 25  1  0  0  0
 25 26  1  0  0  0
 25 32  2  0  0  0
 26 27  2  0  0  0
 26 28  1  0  0  0
 28 29  1  0  0  0
 28 44  1  0  0  0
 29 30  1  0  0  0
 29 31  2  0  0  0
 30 45  1  0  0  0
 30 46  1  0  0  0
 31 32  1  0  0  0
M  CHG  2   3  -1   4  -1
M  END
> <s_m_source_file>
/cbio/jclab/home/rustenburg/PFK/Epik-Ligands/Results/InProgress/GUANOSINE-5'-TRIPHOSPHATE/pH_4.0/GUANOSINE-5'-TRIPHOSPHATE_pH_4.0-before_epik.mol2

> <i_m_source_file_index>
1

> <r_epik_Ionization_Penalty>
  3.8798

> <r_epik_Ionization_Penalty_Charging>
  2.0814

> <r_epik_Ionization_Penalty_Neutral>
  1.7984

> <r_epik_State_Penalty>
  4.8374

> <r_epik_Charging_Adjusted_Penalty>
6.91887944456381

> <i_epik_Tot_Q>
-2

> <i_epik_Tot_abs_Q>
2

> <s_epik_Chemistry_Notes>
This compound contains an acetal/aminal-like group ( X-CH(R)-Y where X, Y are N, S, or O) that may be acid/base labile, releasing an aldehyde.

$$$$
GTP
                    3D
 Structure written by MMmdl.
 46 48  0  0  1  0            999 V2000
    4.5660   31.3910   21.6350 P   0  0  0  0  0  0
    4.6130   31.9070   23.0690 O   0  0  0  0  0  0
    3.8920   32.3190   20.6310 O   0  5  0  0  0  0
    4.1430   30.0120   21.6130 O   0  5  0  0  0  0
    6.1600   31.3600   21.2280 O   0  0  0  0  0  0
    6.8770   31.2020   19.7450 P   0  0  1  0  0  0
    7.0790   29.7090   19.4730 O   0  0  0  0  0  0
    6.1250   31.9700   18.7490 O   0  0  0  0  0  0
    8.2510   31.8900   20.0030 O   0  0  0  0  0  0
    8.8460   33.2610   19.4110 P   0  0  0  0  0  0
    8.8880   33.2560   17.9570 O   0  0  0  0  0  0
    8.1050   34.3980   20.1290 O   0  5  0  0  0  0
   10.4300   33.1530   19.9000 O   0  0  0  0  0  0
   10.5490   33.0440   21.3780 C   0  0  0  0  0  0
   12.0460   33.6180   21.4740 C   0  0  1  0  0  0
   13.0520   32.8300   20.8180 O   0  0  0  0  0  0
   12.3070   34.9690   21.0570 C   0  0  1  0  0  0
   13.1090   35.6720   21.9710 O   0  0  0  0  0  0
   12.8390   34.9710   19.5930 C   0  0  1  0  0  0
   13.6720   35.9610   19.3550 O   0  0  0  0  0  0
   13.8460   33.6220   19.9270 C   0  0  2  0  0  0
   14.0010   32.8330   18.6490 N   0  0  0  0  0  0
   12.9340   32.4520   17.8480 C   0  0  0  0  0  0
   13.6400   31.7980   16.8990 N   0  3  0  0  0  0
   15.0290   31.8890   17.0010 C   0  0  0  0  0  0
   15.8990   31.3940   16.2380 C   0  0  0  0  0  0
   15.9820   30.6800   15.1910 O   0  0  0  0  0  0
   17.2740   31.6280   16.8000 N   0  0  0  0  0  0
   17.3040   32.2950   17.8960 C   0  0  0  0  0  0
   18.6770   32.4500   18.4750 N   0  0  0  0  0  0
   16.3840   32.7360   18.7390 N   0  0  0  0  0  0
   15.2180   32.5170   18.1350 C   0  0  0  0  0  0
    5.1247   31.6353   18.4370 H   0  0  0  0  0  0
    9.7718   33.6593   21.8548 H   0  0  0  0  0  0
   10.4216   31.9939   21.6797 H   0  0  0  0  0  0
   12.2583   33.6282   22.5533 H   0  0  0  0  0  0
   11.3699   35.5332   21.1732 H   0  0  0  0  0  0
   12.8165   35.7279   23.0299 H   0  0  0  0  0  0
   12.1431   35.1631   18.7630 H   0  0  0  0  0  0
   13.2830   36.9601   19.1092 H   0  0  0  0  0  0
   14.8453   33.7628   20.3647 H   0  0  0  0  0  0
   11.8730   32.6240   17.9510 H   0  0  0  0  0  0
   18.1572   31.2365   16.2739 H   0  0  0  0  0  0
   19.5568   32.1296   17.8977 H   0  0  0  0  0  0
   18.8054   32.8843   19.4775 H   0  0  0  0  0  0
   13.1150   31.2389   16.1105 H   0  0  0  0  0  0
  1  2  2  0  0  0
  1  3  1  0  0  0
  1  4  1  0  0  0
  1  5  1  0  0  0
  5  6  1  0  0  0
  6  7  2  0  0  0
  6  8  1  0  0  0
  6  9  1  0  0  0
  8 33  1  0  0  0
  9 10  1  0  0  0
 10 11  2  0  0  0
 10 12  1  0  0  0
 10 13  1  0  0  0
 13 14  1  0  0  0
 14 15  1  0  0  0
 14 34  1  0  0  0
 14 35  1  0  0  0
 15 16  1  0  0  0
 15 17  1  0  0  0
 15 36  1  0  0  0
 16 21  1  0  0  0
 17 18  1  0  0  0
 17 19  1  0  0  0
 17 37  1  0  0  0
 18 38  1  0  0  0
 19 20  1  0  0  0
 19 21  1  0  0  0
 19 39  1  0  0  0
 20 40  1  0  0  0
 21 22  1  0  0  0
 21 41  1  0  0  0
 22 23  1  0  0  0
 22 32  1  0  0  0
 23 24  2  0  0  0
 23 42  1  0  0  0
 24 25  1  0  0  0
 24 46  1  0  0  0
 25 26  1  0  0  0
 25 32  2  0  0  0
 26 27  2  0  0  0
 26 28  1  0  0  0
 28 29  1  0  0  0
 28 43  1  0  0  0
 29 30  1  0  0  0
 29 31  2  0  0  0
 30 44  1  0  0  0
 30 45  1  0  0  0
 31 32  1  0  0  0
M  CHG  4   3  -1   4  -1  12  -1  24   1
M  END
> <s_m_source_file>
/cbio/jclab/home/rustenburg/PFK/Epik-Ligands/Results/InProgress/GUANOSINE-5'-TRIPHOSPHATE/pH_4.0/GUANOSINE-5'-TRIPHOSPHATE_pH_4.0-before_epik.mol2

> <i_m_source_file_index>
1

> <r_epik_Ionization_Penalty>
  4.1285

> <r_epik_Ionization_Penalty_Charging>
  3.8708

> <r_epik_Ionization_Penalty_Neutral>
  0.2577

> <r_epik_State_Penalty>
  4.8633

> <r_epik_Charging_Adjusted_Penalty>
8.73405315925246

> <i_epik_Tot_Q>
-2

> <i_epik_Tot_abs_Q>
4

> <s_epik_Chemistry_Notes>
This compound contains an acetal/aminal-like group ( X-CH(R)-Y where X, Y are N, S, or O) that may be acid/base labile, releasing an aldehyde.

$$$$
GTP
                    3D
 Structure written by MMmdl.
 45 47  0  0  1  0            999 V2000
    4.5660   31.3910   21.6350 P   0  0  0  0  0  0
    4.6130   31.9070   23.0690 O   0  0  0  0  0  0
    3.8920   32.3190   20.6310 O   0  5  0  0  0  0
    4.1430   30.0120   21.6130 O   0  5  0  0  0  0
    6.1600   31.3600   21.2280 O   0  0  0  0  0  0
    6.8770   31.2020   19.7450 P   0  0  0  0  0  0
    7.0790   29.7090   19.4730 O   0  0  0  0  0  0
    6.1250   31.9700   18.7490 O   0  5  0  0  0  0
    8.2510   31.8900   20.0030 O   0  0  0  0  0  0
    8.8460   33.2610   19.4110 P   0  0  0  0  0  0
    8.8880   33.2560   17.9570 O   0  0  0  0  0  0
    8.1050   34.3980   20.1290 O   0  5  0  0  0  0
   10.4300   33.1530   19.9000 O   0  0  0  0  0  0
   10.5490   33.0440   21.3780 C   0  0  0  0  0  0
   12.0460   33.6180   21.4740 C   0  0  1  0  0  0
   13.0520   32.8300   20.8180 O   0  0  0  0  0  0
   12.3070   34.9690   21.0570 C   0  0  1  0  0  0
   13.1090   35.6720   21.9710 O   0  0  0  0  0  0
   12.8390   34.9710   19.5930 C   0  0  1  0  0  0
   13.6720   35.9610   19.3550 O   0  0  0  0  0  0
   13.8460   33.6220   19.9270 C   0  0  2  0  0  0
   14.0010   32.8330   18.6490 N   0  0  0  0  0  0
   12.9340   32.4520   17.8480 C   0  0  0  0  0  0
   13.6400   31.7980   16.8990 N   0  3  0  0  0  0
   15.0290   31.8890   17.0010 C   0  0  0  0  0  0
   15.8990   31.3940   16.2380 C   0  0  0  0  0  0
   15.9820   30.6800   15.1910 O   0  0  0  0  0  0
   17.2740   31.6280   16.8000 N   0  0  0  0  0  0
   17.3040   32.2950   17.8960 C   0  0  0  0  0  0
   18.6770   32.4500   18.4750 N   0  0  0  0  0  0
   16.3840   32.7360   18.7390 N   0  0  0  0  0  0
   15.2180   32.5170   18.1350 C   0  0  0  0  0  0
    9.7718   33.6593   21.8548 H   0  0  0  0  0  0
   10.4216   31.9939   21.6797 H   0  0  0  0  0  0
   12.2583   33.6282   22.5533 H   0  0  0  0  0  0
   11.3699   35.5332   21.1732 H   0  0  0  0  0  0
   12.8165   35.7279   23.0299 H   0  0  0  0  0  0
   12.1431   35.1631   18.7630 H   0  0  0  0  0  0
   13.2830   36.9601   19.1092 H   0  0  0  0  0  0
   14.8453   33.7628   20.3647 H   0  0  0  0  0  0
   11.8730   32.6240   17.9510 H   0  0  0  0  0  0
   18.1572   31.2365   16.2739 H   0  0  0  0  0  0
   19.5568   32.1296   17.8977 H   0  0  0  0  0  0
   18.8054   32.8843   19.4775 H   0  0  0  0  0  0
   13.1150   31.2389   16.1105 H   0  0  0  0  0  0
  1  2  2  0  0  0
  1  3  1  0  0  0
  1  4  1  0  0  0
  1  5  1  0  0  0
  5  6  1  0  0  0
  6  7  2  0  0  0
  6  8  1  0  0  0
  6  9  1  0  0  0
  9 10  1  0  0  0
 10 11  2  0  0  0
 10 12  1  0  0  0
 10 13  1  0  0  0
 13 14  1  0  0  0
 14 15  1  0  0  0
 14 33  1  0  0  0
 14 34  1  0  0  0
 15 16  1  0  0  0
 15 17  1  0  0  0
 15 35  1  0  0  0
 16 21  1  0  0  0
 17 18  1  0  0  0
 17 19  1  0  0  0
 17 36  1  0  0  0
 18 37  1  0  0  0
 19 20  1  0  0  0
 19 21  1  0  0  0
 19 38  1  0  0  0
 20 39  1  0  0  0
 21 22  1  0  0  0
 21 40  1  0  0  0
 22 23  1  0  0  0
 22 32  1  0  0  0
 23 24  2  0  0  0
 23 41  1  0  0  0
 24 25  1  0  0  0
 24 45  1  0  0  0
 25 26  1  0  0  0
 25 32  2  0  0  0
 26 27  2  0  0  0
 26 28  1  0  0  0
 28 29  1  0  0  0
 28 42  1  0  0  0
 29 30  1  0  0  0
 29 31  2  0  0  0
 30 43  1  0  0  0
 30 44  1  0  0  0
 31 32  1  0  0  0
M  CHG  5   3  -1   4  -1   8  -1  12  -1  24   1
M  END
> <s_m_source_file>
/cbio/jclab/home/rustenburg/PFK/Epik-Ligands/Results/InProgress/GUANOSINE-5'-TRIPHOSPHATE/pH_4.0/GUANOSINE-5'-TRIPHOSPHATE_pH_4.0-before_epik.mol2

> <i_m_source_file_index>
1

> <r_epik_Ionization_Penalty>
  5.3961

> <r_epik_Ionization_Penalty_Charging>
  5.3961

> <r_epik_Ionization_Penalty_Neutral>
  0.0000

> <r_epik_State_Penalty>
  5.0765

> <r_epik_Charging_Adjusted_Penalty>
10.4726119795031

> <i_epik_Tot_Q>
-3

> <i_epik_Tot_abs_Q>
5

> <s_epik_Chemistry_Notes>
This compound contains an acetal/aminal-like group ( X-CH(R)-Y where X, Y are N, S, or O) that may be acid/base labile, releasing an aldehyde.

$$$$
GTP
                    3D
 Structure written by MMmdl.
 46 48  0  0  1  0            999 V2000
    4.5660   31.3910   21.6350 P   0  0  0  0  0  0
    4.6130   31.9070   23.0690 O   0  0  0  0  0  0
    3.8920   32.3190   20.6310 O   0  5  0  0  0  0
    4.1430   30.0120   21.6130 O   0  0  0  0  0  0
    6.1600   31.3600   21.2280 O   0  0  0  0  0  0
    6.8770   31.2020   19.7450 P   0  0  0  0  0  0
    7.0790   29.7090   19.4730 O   0  0  0  0  0  0
    6.1250   31.9700   18.7490 O   0  5  0  0  0  0
    8.2510   31.8900   20.0030 O   0  0  0  0  0  0
    8.8460   33.2610   19.4110 P   0  0  0  0  0  0
    8.8880   33.2560   17.9570 O   0  0  0  0  0  0
    8.1050   34.3980   20.1290 O   0  5  0  0  0  0
   10.4300   33.1530   19.9000 O   0  0  0  0  0  0
   10.5490   33.0440   21.3780 C   0  0  0  0  0  0
   12.0460   33.6180   21.4740 C   0  0  1  0  0  0
   13.0520   32.8300   20.8180 O   0  0  0  0  0  0
   12.3070   34.9690   21.0570 C   0  0  1  0  0  0
   13.1090   35.6720   21.9710 O   0  0  0  0  0  0
   12.8390   34.9710   19.5930 C   0  0  1  0  0  0
   13.6720   35.9610   19.3550 O   0  0  0  0  0  0
   13.8460   33.6220   19.9270 C   0  0  2  0  0  0
   14.0010   32.8330   18.6490 N   0  0  0  0  0  0
   12.9340   32.4520   17.8480 C   0  0  0  0  0  0
   13.6400   31.7980   16.8990 N   0  3  0  0  0  0
   15.0290   31.8890   17.0010 C   0  0  0  0  0  0
   15.8990   31.3940   16.2380 C   0  0  0  0  0  0
   15.9820   30.6800   15.1910 O   0  0  0  0  0  0
   17.2740   31.6280   16.8000 N   0  0  0  0  0  0
   17.3040   32.2950   17.8960 C   0  0  0  0  0  0
   18.6770   32.4500   18.4750 N   0  0  0  0  0  0
   16.3840   32.7360   18.7390 N   0  0  0  0  0  0
   15.2180   32.5170   18.1350 C   0  0  0  0  0  0
    3.1013   29.7523   21.8527 H   0  0  0  0  0  0
    9.7718   33.6593   21.8548 H   0  0  0  0  0  0
   10.4216   31.9939   21.6797 H   0  0  0  0  0  0
   12.2583   33.6282   22.5533 H   0  0  0  0  0  0
   11.3699   35.5332   21.1732 H   0  0  0  0  0  0
   12.8165   35.7279   23.0299 H   0  0  0  0  0  0
   12.1431   35.1631   18.7630 H   0  0  0  0  0  0
   13.2830   36.9601   19.1092 H   0  0  0  0  0  0
   14.8453   33.7628   20.3647 H   0  0  0  0  0  0
   11.8730   32.6240   17.9510 H   0  0  0  0  0  0
   19.5568   32.1296   17.8977 H   0  0  0  0  0  0
   18.8054   32.8843   19.4775 H   0  0  0  0  0  0
   16.6849   33.1690   19.7044 H   0  0  0  0  0  0
   13.1150   31.2389   16.1105 H   0  0  0  0  0  0
  1  2  2  0  0  0
  1  3  1  0  0  0
  1  4  1  0  0  0
  1  5  1  0  0  0
  4 33  1  0  0  0
  5  6  1  0  0  0
  6  7  2  0  0  0
  6  8  1  0  0  0
  6  9  1  0  0  0
  9 10  1  0  0  0
 10 11  2  0  0  0
 10 12  1  0  0  0
 10 13  1  0  0  0
 13 14  1  0  0  0
 14 15  1  0  0  0
 14 34  1  0  0  0
 14 35  1  0  0  0
 15 16  1  0  0  0
 15 17  1  0  0  0
 15 36  1  0  0  0
 16 21  1  0  0  0
 17 18  1  0  0  0
 17 19  1  0  0  0
 17 37  1  0  0  0
 18 38  1  0  0  0
 19 20  1  0  0  0
 19 21  1  0  0  0
 19 39  1  0  0  0
 20 40  1  0  0  0
 21 22  1  0  0  0
 21 41  1  0  0  0
 22 23  1  0  0  0
 22 32  1  0  0  0
 23 24  2  0  0  0
 23 42  1  0  0  0
 24 25  1  0  0  0
 24 46  1  0  0  0
 25 26  1  0  0  0
 25 32  2  0  0  0
 26 27  2  0  0  0
 26 28  1  0  0  0
 28 29  2  0  0  0
 29 30  1  0  0  0
 29 31  1  0  0  0
 30 43  1  0  0  0
 30 44  1  0  0  0
 31 32  1  0  0  0
 31 45  1  0  0  0
M  CHG  4   3  -1   8  -1  12  -1  24   1
M  END
> <s_m_source_file>
/cbio/jclab/home/rustenburg/PFK/Epik-Ligands/Results/InProgress/GUANOSINE-5'-TRIPHOSPHATE/pH_4.0/GUANOSINE-5'-TRIPHOSPHATE_pH_4.0-before_epik.mol2

> <i_m_source_file_index>
1

> <r_epik_Ionization_Penalty>
  1.8126

> <r_epik_Ionization_Penalty_Charging>
  0.3824

> <r_epik_Ionization_Penalty_Neutral>
  1.4302

> <r_epik_State_Penalty>
  5.3507

> <r_epik_Charging_Adjusted_Penalty>
5.73307422449967

> <i_epik_Tot_Q>
-2

> <i_epik_Tot_abs_Q>
4

> <s_epik_Chemistry_Notes>
This compound contains an acetal/aminal-like group ( X-CH(R)-Y where X, Y are N, S, or O) that may be acid/base labile, releasing an aldehyde.

$$$$
GTP
                    3D
 Structure written by MMmdl.
 49 51  0  0  1  0            999 V2000
    4.5660   31.3910   21.6350 P   0  0  0  0  0  0
    4.6130   31.9070   23.0690 O   0  0  0  0  0  0
    3.8920   32.3190   20.6310 O   0  0  0  0  0  0
    4.1430   30.0120   21.6130 O   0  0  0  0  0  0
    6.1600   31.3600   21.2280 O   0  0  0  0  0  0
    6.8770   31.2020   19.7450 P   0  0  1  0  0  0
    7.0790   29.7090   19.4730 O   0  0  0  0  0  0
    6.1250   31.9700   18.7490 O   0  0  0  0  0  0
    8.2510   31.8900   20.0030 O   0  0  0  0  0  0
    8.8460   33.2610   19.4110 P   0  0  1  0  0  0
    8.8880   33.2560   17.9570 O   0  0  0  0  0  0
    8.1050   34.3980   20.1290 O   0  0  0  0  0  0
   10.4300   33.1530   19.9000 O   0  0  0  0  0  0
   10.5490   33.0440   21.3780 C   0  0  0  0  0  0
   12.0460   33.6180   21.4740 C   0  0  1  0  0  0
   13.0520   32.8300   20.8180 O   0  0  0  0  0  0
   12.3070   34.9690   21.0570 C   0  0  1  0  0  0
   13.1090   35.6720   21.9710 O   0  0  0  0  0  0
   12.8390   34.9710   19.5930 C   0  0  1  0  0  0
   13.6720   35.9610   19.3550 O   0  0  0  0  0  0
   13.8460   33.6220   19.9270 C   0  0  2  0  0  0
   14.0010   32.8330   18.6490 N   0  0  0  0  0  0
   12.9340   32.4520   17.8480 C   0  0  0  0  0  0
   13.6400   31.7980   16.8990 N   0  3  0  0  0  0
   15.0290   31.8890   17.0010 C   0  0  0  0  0  0
   15.8990   31.3940   16.2380 C   0  0  0  0  0  0
   15.9820   30.6800   15.1910 O   0  0  0  0  0  0
   17.2740   31.6280   16.8000 N   0  0  0  0  0  0
   17.3040   32.2950   17.8960 C   0  0  0  0  0  0
   18.6770   32.4500   18.4750 N   0  0  0  0  0  0
   16.3840   32.7360   18.7390 N   0  0  0  0  0  0
   15.2180   32.5170   18.1350 C   0  0  0  0  0  0
    2.8098   32.5054   20.6948 H   0  0  0  0  0  0
    3.1013   29.7523   21.8527 H   0  0  0  0  0  0
    5.1247   31.6353   18.4370 H   0  0  0  0  0  0
    7.0451   34.5904   19.9065 H   0  0  0  0  0  0
    9.7718   33.6593   21.8548 H   0  0  0  0  0  0
   10.4216   31.9939   21.6797 H   0  0  0  0  0  0
   12.2583   33.6282   22.5533 H   0  0  0  0  0  0
   11.3699   35.5332   21.1732 H   0  0  0  0  0  0
   12.8165   35.7279   23.0299 H   0  0  0  0  0  0
   12.1431   35.1631   18.7630 H   0  0  0  0  0  0
   13.2830   36.9601   19.1092 H   0  0  0  0  0  0
   14.8453   33.7628   20.3647 H   0  0  0  0  0  0
   11.8730   32.6240   17.9510 H   0  0  0  0  0  0
   18.1572   31.2365   16.2739 H   0  0  0  0  0  0
   19.5568   32.1296   17.8977 H   0  0  0  0  0  0
   18.8054   32.8843   19.4775 H   0  0  0  0  0  0
   13.1150   31.2389   16.1105 H   0  0  0  0  0  0
  1  2  2  0  0  0
  1  3  1  0  0  0
  1  4  1  0  0  0
  1  5  1  0  0  0
  3 33  1  0  0  0
  4 34  1  0  0  0
  5  6  1  0  0  0
  6  7  2  0  0  0
  6  8  1  0  0  0
  6  9  1  0  0  0
  8 35  1  0  0  0
  9 10  1  0  0  0
 10 11  2  0  0  0
 10 12  1  0  0  0
 10 13  1  0  0  0
 12 36  1  0  0  0
 13 14  1  0  0  0
 14 15  1  0  0  0
 14 37  1  0  0  0
 14 38  1  0  0  0
 15 16  1  0  0  0
 15 17  1  0  0  0
 15 39  1  0  0  0
 16 21  1  0  0  0
 17 18  1  0  0  0
 17 19  1  0  0  0
 17 40  1  0  0  0
 18 41  1  0  0  0
 19 20  1  0  0  0
 19 21  1  0  0  0
 19 42  1  0  0  0
 20 43  1  0  0  0
 21 22  1  0  0  0
 21 44  1  0  0  0
 22 23  1  0  0  0
 22 32  1  0  0  0
 23 24  2  0  0  0
 23 45  1  0  0  0
 24 25  1  0  0  0
 24 49  1  0  0  0
 25 26  1  0  0  0
 25 32  2  0  0  0
 26 27  2  0  0  0
 26 28  1  0  0  0
 28 29  1  0  0  0
 28 46  1  0  0  0
 29 30  1  0  0  0
 29 31  2  0  0  0
 30 47  1  0  0  0
 30 48  1  0  0  0
 31 32  1  0  0  0
M  CHG  1  24   1
M  END
> <s_m_source_file>
/cbio/jclab/home/rustenburg/PFK/Epik-Ligands/Results/InProgress/GUANOSINE-5'-TRIPHOSPHATE/pH_4.0/GUANOSINE-5'-TRIPHOSPHATE_pH_4.0-before_epik.mol2

> <i_m_source_file_index>
1

> <r_lp_tautomer_probability>
0.998603683126107

> <r_epik_Ionization_Penalty>
  6.6539

> <r_epik_Ionization_Penalty_Charging>
  1.6117

> <r_epik_Ionization_Penalty_Neutral>
  5.0421

> <r_epik_State_Penalty>
  5.4786

> <r_epik_Charging_Adjusted_Penalty>
7.09035640892706

> <i_epik_Tot_Q>
1

> <i_epik_Tot_abs_Q>
1

> <s_epik_Chemistry_Notes>
This compound contains an acetal/aminal-like group ( X-CH(R)-Y where X, Y are N, S, or O) that may be acid/base labile, releasing an aldehyde.

$$$$
GTP
                    3D
 Structure written by MMmdl.
 46 48  0  0  1  0            999 V2000
    4.5660   31.3910   21.6350 P   0  0  0  0  0  0
    4.6130   31.9070   23.0690 O   0  0  0  0  0  0
    3.8920   32.3190   20.6310 O   0  5  0  0  0  0
    4.1430   30.0120   21.6130 O   0  5  0  0  0  0
    6.1600   31.3600   21.2280 O   0  0  0  0  0  0
    6.8770   31.2020   19.7450 P   0  0  0  0  0  0
    7.0790   29.7090   19.4730 O   0  0  0  0  0  0
    6.1250   31.9700   18.7490 O   0  5  0  0  0  0
    8.2510   31.8900   20.0030 O   0  0  0  0  0  0
    8.8460   33.2610   19.4110 P   0  0  1  0  0  0
    8.8880   33.2560   17.9570 O   0  0  0  0  0  0
    8.1050   34.3980   20.1290 O   0  0  0  0  0  0
   10.4300   33.1530   19.9000 O   0  0  0  0  0  0
   10.5490   33.0440   21.3780 C   0  0  0  0  0  0
   12.0460   33.6180   21.4740 C   0  0  1  0  0  0
   13.0520   32.8300   20.8180 O   0  0  0  0  0  0
   12.3070   34.9690   21.0570 C   0  0  1  0  0  0
   13.1090   35.6720   21.9710 O   0  0  0  0  0  0
   12.8390   34.9710   19.5930 C   0  0  1  0  0  0
   13.6720   35.9610   19.3550 O   0  0  0  0  0  0
   13.8460   33.6220   19.9270 C   0  0  2  0  0  0
   14.0010   32.8330   18.6490 N   0  0  0  0  0  0
   12.9340   32.4520   17.8480 C   0  0  0  0  0  0
   13.6400   31.7980   16.8990 N   0  3  0  0  0  0
   15.0290   31.8890   17.0010 C   0  0  0  0  0  0
   15.8990   31.3940   16.2380 C   0  0  0  0  0  0
   15.9820   30.6800   15.1910 O   0  0  0  0  0  0
   17.2740   31.6280   16.8000 N   0  0  0  0  0  0
   17.3040   32.2950   17.8960 C   0  0  0  0  0  0
   18.6770   32.4500   18.4750 N   0  0  0  0  0  0
   16.3840   32.7360   18.7390 N   0  0  0  0  0  0
   15.2180   32.5170   18.1350 C   0  0  0  0  0  0
    7.0451   34.5904   19.9065 H   0  0  0  0  0  0
    9.7718   33.6593   21.8548 H   0  0  0  0  0  0
   10.4216   31.9939   21.6797 H   0  0  0  0  0  0
   12.2583   33.6282   22.5533 H   0  0  0  0  0  0
   11.3699   35.5332   21.1732 H   0  0  0  0  0  0
   12.8165   35.7279   23.0299 H   0  0  0  0  0  0
   12.1431   35.1631   18.7630 H   0  0  0  0  0  0
   13.2830   36.9601   19.1092 H   0  0  0  0  0  0
   14.8453   33.7628   20.3647 H   0  0  0  0  0  0
   11.8730   32.6240   17.9510 H   0  0  0  0  0  0
   18.1572   31.2365   16.2739 H   0  0  0  0  0  0
   19.5568   32.1296   17.8977 H   0  0  0  0  0  0
   18.8054   32.8843   19.4775 H   0  0  0  0  0  0
   13.1150   31.2389   16.1105 H   0  0  0  0  0  0
  1  2  2  0  0  0
  1  3  1  0  0  0
  1  4  1  0  0  0
  1  5  1  0  0  0
  5  6  1  0  0  0
  6  7  2  0  0  0
  6  8  1  0  0  0
  6  9  1  0  0  0
  9 10  1  0  0  0
 10 11  2  0  0  0
 10 12  1  0  0  0
 10 13  1  0  0  0
 12 33  1  0  0  0
 13 14  1  0  0  0
 14 15  1  0  0  0
 14 34  1  0  0  0
 14 35  1  0  0  0
 15 16  1  0  0  0
 15 17  1  0  0  0
 15 36  1  0  0  0
 16 21  1  0  0  0
 17 18  1  0  0  0
 17 19  1  0  0  0
 17 37  1  0  0  0
 18 38  1  0  0  0
 19 20  1  0  0  0
 19 21  1  0  0  0
 19 39  1  0  0  0
 20 40  1  0  0  0
 21 22  1  0  0  0
 21 41  1  0  0  0
 22 23  1  0  0  0
 22 32  1  0  0  0
 23 24  2  0  0  0
 23 42  1  0  0  0
 24 25  1  0  0  0
 24 46  1  0  0  0
 25 26  1  0  0  0
 25 32  2  0  0  0
 26 27  2  0  0  0
 26 28  1  0  0  0
 28 29  1  0  0  0
 28 43  1  0  0  0
 29 30  1  0  0  0
 29 31  2  0  0  0
 30 44  1  0  0  0
 30 45  1  0  0  0
 31 32  1  0  0  0
M  CHG  4   3  -1   4  -1   8  -1  24   1
M  END
> <s_m_source_file>
/cbio/jclab/home/rustenburg/PFK/Epik-Ligands/Results/InProgress/GUANOSINE-5'-TRIPHOSPHATE/pH_4.0/GUANOSINE-5'-TRIPHOSPHATE_pH_4.0-before_epik.mol2

> <i_m_source_file_index>
1

> <r_epik_Ionization_Penalty>
  5.4602

> <r_epik_Ionization_Penalty_Charging>
  4.7579

> <r_epik_Ionization_Penalty_Neutral>
  0.7023

> <r_epik_State_Penalty>
  5.6417

> <r_epik_Charging_Adjusted_Penalty>
10.399609839627

> <i_epik_Tot_Q>
-2

> <i_epik_Tot_abs_Q>
4

> <s_epik_Chemistry_Notes>
This compound contains an acetal/aminal-like group ( X-CH(R)-Y where X, Y are N, S, or O) that may be acid/base labile, releasing an aldehyde.

$$$$
GTP
                    3D
 Structure written by MMmdl.
 46 48  0  0  1  0            999 V2000
    4.5660   31.3910   21.6350 P   0  0  0  0  0  0
    4.6130   31.9070   23.0690 O   0  0  0  0  0  0
    3.8920   32.3190   20.6310 O   0  5  0  0  0  0
    4.1430   30.0120   21.6130 O   0  0  0  0  0  0
    6.1600   31.3600   21.2280 O   0  0  0  0  0  0
    6.8770   31.2020   19.7450 P   0  0  0  0  0  0
    7.0790   29.7090   19.4730 O   0  0  0  0  0  0
    6.1250   31.9700   18.7490 O   0  5  0  0  0  0
    8.2510   31.8900   20.0030 O   0  0  0  0  0  0
    8.8460   33.2610   19.4110 P   0  0  0  0  0  0
    8.8880   33.2560   17.9570 O   0  0  0  0  0  0
    8.1050   34.3980   20.1290 O   0  5  0  0  0  0
   10.4300   33.1530   19.9000 O   0  0  0  0  0  0
   10.5490   33.0440   21.3780 C   0  0  0  0  0  0
   12.0460   33.6180   21.4740 C   0  0  1  0  0  0
   13.0520   32.8300   20.8180 O   0  0  0  0  0  0
   12.3070   34.9690   21.0570 C   0  0  1  0  0  0
   13.1090   35.6720   21.9710 O   0  0  0  0  0  0
   12.8390   34.9710   19.5930 C   0  0  1  0  0  0
   13.6720   35.9610   19.3550 O   0  0  0  0  0  0
   13.8460   33.6220   19.9270 C   0  0  2  0  0  0
   14.0010   32.8330   18.6490 N   0  0  0  0  0  0
   12.9340   32.4520   17.8480 C   0  0  0  0  0  0
   13.6400   31.7980   16.8990 N   0  0  0  0  0  0
   15.0290   31.8890   17.0010 C   0  0  0  0  0  0
   15.8990   31.3940   16.2380 C   0  0  0  0  0  0
   15.9820   30.6800   15.1910 O   0  0  0  0  0  0
   17.2740   31.6280   16.8000 N   0  0  0  0  0  0
   17.3040   32.2950   17.8960 C   0  0  0  0  0  0
   18.6770   32.4500   18.4750 N   0  0  0  0  0  0
   16.3840   32.7360   18.7390 N   0  3  0  0  0  0
   15.2180   32.5170   18.1350 C   0  0  0  0  0  0
    3.1013   29.7523   21.8527 H   0  0  0  0  0  0
    9.7718   33.6593   21.8548 H   0  0  0  0  0  0
   10.4216   31.9939   21.6797 H   0  0  0  0  0  0
   12.2583   33.6282   22.5533 H   0  0  0  0  0  0
   11.3699   35.5332   21.1732 H   0  0  0  0  0  0
   12.8165   35.7279   23.0299 H   0  0  0  0  0  0
   12.1431   35.1631   18.7630 H   0  0  0  0  0  0
   13.2830   36.9601   19.1092 H   0  0  0  0  0  0
   14.8453   33.7628   20.3647 H   0  0  0  0  0  0
   11.8730   32.6240   17.9510 H   0  0  0  0  0  0
   18.1572   31.2365   16.2739 H   0  0  0  0  0  0
   19.5568   32.1296   17.8977 H   0  0  0  0  0  0
   18.8054   32.8843   19.4775 H   0  0  0  0  0  0
   16.6849   33.1690   19.7044 H   0  0  0  0  0  0
  1  2  2  0  0  0
  1  3  1  0  0  0
  1  4  1  0  0  0
  1  5  1  0  0  0
  4 33  1  0  0  0
  5  6  1  0  0  0
  6  7  2  0  0  0
  6  8  1  0  0  0
  6  9  1  0  0  0
  9 10  1  0  0  0
 10 11  2  0  0  0
 10 12  1  0  0  0
 10 13  1  0  0  0
 13 14  1  0  0  0
 14 15  1  0  0  0
 14 34  1  0  0  0
 14 35  1  0  0  0
 15 16  1  0  0  0
 15 17  1  0  0  0
 15 36  1  0  0  0
 16 21  1  0  0  0
 17 18  1  0  0  0
 17 19  1  0  0  0
 17 37  1  0  0  0
 18 38  1  0  0  0
 19 20  1  0  0  0
 19 21  1  0  0  0
 19 39  1  0  0  0
 20 40  1  0  0  0
 21 22  1  0  0  0
 21 41  1  0  0  0
 22 23  1  0  0  0
 22 32  1  0  0  0
 23 24  2  0  0  0
 23 42  1  0  0  0
 24 25  1  0  0  0
 25 26  1  0  0  0
 25 32  2  0  0  0
 26 27  2  0  0  0
 26 28  1  0  0  0
 28 29  1  0  0  0
 28 43  1  0  0  0
 29 30  1  0  0  0
 29 31  2  0  0  0
 30 44  1  0  0  0
 30 45  1  0  0  0
 31 32  1  0  0  0
 31 46  1  0  0  0
M  CHG  4   3  -1   8  -1  12  -1  31   1
M  END
> <s_m_source_file>
/cbio/jclab/home/rustenburg/PFK/Epik-Ligands/Results/InProgress/GUANOSINE-5'-TRIPHOSPHATE/pH_4.0/GUANOSINE-5'-TRIPHOSPHATE_pH_4.0-before_epik.mol2

> <i_m_source_file_index>
1

> <r_epik_Ionization_Penalty>
  3.5381

> <r_epik_Ionization_Penalty_Charging>
  3.5339

> <r_epik_Ionization_Penalty_Neutral>
  0.0042

> <r_epik_State_Penalty>
  5.9160

> <r_epik_Charging_Adjusted_Penalty>
9.44992531385599

> <i_epik_Tot_Q>
-2

> <i_epik_Tot_abs_Q>
4

> <s_epik_Chemistry_Notes>
This compound contains an acetal/aminal-like group ( X-CH(R)-Y where X, Y are N, S, or O) that may be acid/base labile, releasing an aldehyde.

$$$$
