@<TRIPOS>MOLECULE
[[[5-(2-amino-6-oxo-7,8-dihydro-1~{H}-purin-8-ylium-9-yl)-3,4-dihydroxy-tetrahydrofuran-2-yl]methoxy-oxido-phosphoryl]oxy-hydroxy-phosphoryl] phosphate
   46    48     1     0     0
SMALL
USER_CHARGES

@<TRIPOS>ATOM
      1 PG         -2.2389    0.5243   -3.7682 P.3       1 GTP        -1.1921
      2 O1G        -2.6924   -0.7301   -4.5080 O.co2     1 GTP         0.3195
      3 O2G        -3.3602    1.5136   -3.4675 O.co2     1 GTP         0.3195
      4 O3G        -1.3072    0.2576   -2.5906 O.co2     1 GTP         0.3195
      5 O3B        -1.2954    1.3190   -4.8617 O.3       1 GTP         0.4672
      6 PB          0.0639    0.8583   -5.6076 P.3       1 GTP        -0.9715
      7 O1B        -0.0674   -0.3735   -6.4539 O.2       1 GTP         0.2707
      8 O2B         0.5098    2.1910   -6.4071 O.3       1 GTP         0.0326
      9 O3A         1.1383    0.7623   -4.4051 O.3       1 GTP         0.4672
     10 PA          2.7180    0.3539   -4.4230 P.3       1 GTP        -1.1062
     11 O1A         2.8304   -1.1069   -4.8014 O.co2     1 GTP         0.3195
     12 O2A         3.4813    1.4193   -5.1793 O.co2     1 GTP         0.3195
     13 O5'         3.0213    0.5153   -2.8245 O.3       1 GTP         0.1618
     14 C5'         2.2816   -0.2918   -1.9206 C.3       1 GTP         0.1504
     15 C4'         2.7248    0.0226   -0.4980 C.3       1 GTP         0.1111
     16 O4'         2.4697    1.4219   -0.2462 O.3       1 GTP        -0.1436
     17 C3'         1.9404   -0.7419    0.5596 C.3       1 GTP         0.1111
     18 O3'         2.7418   -0.8086    1.7389 O.3       1 GTP        -0.2728
     19 C2'         0.7477    0.1630    0.7858 C.3       1 GTP         0.1111
     20 O2'         0.1373   -0.0577    2.0407 O.3       1 GTP        -0.2728
     21 C1'         1.3733    1.5427    0.6747 C.3       1 GTP         0.2693
     22 N9          0.4520    2.5240    0.1767 N.pl3     1 GTP        -0.3222
     23 C8          0.2203    2.8205   -1.0970 C.ar      1 GTP         0.1640
     24 N7         -0.6947    3.7752   -1.2304 N.pl3     1 GTP        -0.3688
     25 C5         -1.0607    4.0987    0.0476 C.ar      1 GTP         0.0648
     26 C6         -2.0310    5.0839    0.5029 C.ar      1 GTP         0.3597
     27 O6         -2.6779    5.7867   -0.2609 O.2       1 GTP        -0.2755
     28 N1         -2.1030    5.0975    1.8948 N.pl3     1 GTP        -0.1604
     29 C2         -1.3422    4.2721    2.7403 C.ar      1 GTP         0.4468
     30 N2         -1.5624    4.4419    4.0823 N.pl3     1 GTP        -0.5618
     31 N3         -0.4796    3.3981    2.2792 N.2       1 GTP        -0.4283
     32 C4         -0.3754    3.3496    0.9208 C.ar      1 GTP         0.2226
     33 HOB2        1.3687    2.1944   -6.8809 H         1 GTP         0.2010
     34 H5'         1.2163   -0.0770   -2.0471 H         1 GTP        -0.0393
     35 H5''        2.4655   -1.3443   -2.1563 H         1 GTP        -0.0393
     36 H4'         3.8044   -0.1397   -0.4040 H         1 GTP        -0.0393
     37 H3'         1.6764   -1.7639    0.2728 H         1 GTP        -0.0393
     38 HO3'        2.2232   -1.2979    2.3953 H         1 GTP         0.2010
     39 H2'        -0.0011    0.0027    0.0003 H         1 GTP        -0.0393
     40 HO2'       -0.6141    0.5574    2.1082 H         1 GTP         0.2010
     41 H1'         1.7826    1.9024    1.6451 H         1 GTP        -0.0393
     42 H8          0.7110    2.3472   -1.9295 H         1 GTP         0.0000
     43 HN1        -2.7504    5.7495    2.3282 H         1 GTP         0.0865
     44 HN21       -1.0467    3.8796    4.7190 H         1 GTP         0.2048
     45 HN22       -2.2294    5.1209    4.3680 H         1 GTP         0.2048
     46 H46        -1.0382    4.1687   -2.0954 H         1 GTP         0.2048
@<TRIPOS>BOND
     1    1    2 2
     2    1    3 1
     3    1    4 1
     4    1    5 1
     5    5    6 1
     6    6    7 2
     7    6    8 1
     8    6    9 1
     9    8   33 1
    10    9   10 1
    11   10   11 2
    12   10   12 1
    13   10   13 1
    14   13   14 1
    15   14   15 1
    16   14   34 1
    17   14   35 1
    18   15   16 1
    19   15   17 1
    20   15   36 1
    21   16   21 1
    22   17   18 1
    23   17   19 1
    24   17   37 1
    25   18   38 1
    26   19   20 1
    27   19   21 1
    28   19   39 1
    29   20   40 1
    30   21   22 1
    31   21   41 1
    32   22   23 ar
    33   22   32 ar
    34   23   24 ar
    35   23   42 1
    36   24   25 ar
    37   24   46 1
    38   25   26 ar
    39   25   32 ar
    40   26   27 2
    41   26   28 ar
    42   28   29 ar
    43   28   43 1
    44   29   30 1
    45   29   31 ar
    46   30   44 1
    47   30   45 1
    48   31   32 ar
@<TRIPOS>SUBSTRUCTURE
     1 GTP         1 GROUP 0 A     ****
@<TRIPOS>MOLECULE
[[[5-(2-amino-6-oxo-7,8-dihydro-1~{H}-purin-8-ylium-9-yl)-3,4-dihydroxy-tetrahydrofuran-2-yl]methoxy-oxido-phosphoryl]oxy-hydroxy-phosphoryl] phosphate
   46    48     1     0     0
SMALL
USER_CHARGES

@<TRIPOS>ATOM
      1 PG         -1.6255    1.6998   -4.2192 P.3       1 GTP        -1.1921
      2 O1G        -2.4191    0.5788   -4.8824 O.co2     1 GTP         0.3195
      3 O2G        -2.3815    3.0195   -4.1053 O.co2     1 GTP         0.3195
      4 O3G        -0.8952    1.2850   -2.9461 O.co2     1 GTP         0.3195
      5 O3B        -0.4179    2.0290   -5.2919 O.3       1 GTP         0.4672
      6 PB          0.7579    1.0825   -5.8734 P.3       1 GTP        -0.9715
      7 O1B         0.2818   -0.1307   -6.6163 O.2       1 GTP         0.2707
      8 O2B         1.6531    2.1086   -6.7451 O.3       1 GTP         0.0326
      9 O3A         1.6767    0.7864   -4.5782 O.3       1 GTP         0.4672
     10 PA          3.0383   -0.0994   -4.4226 P.3       1 GTP        -1.1062
     11 O1A         2.6929   -1.5534   -4.6599 O.co2     1 GTP         0.3195
     12 O2A         4.1447    0.5793   -5.2003 O.co2     1 GTP         0.3195
     13 O5'         3.2903    0.1346   -2.8241 O.3       1 GTP         0.1618
     14 C5'         2.2816   -0.2918   -1.9206 C.3       1 GTP         0.1504
     15 C4'         2.7248    0.0226   -0.4980 C.3       1 GTP         0.1111
     16 O4'         2.4697    1.4219   -0.2462 O.3       1 GTP        -0.1436
     17 C3'         1.9404   -0.7419    0.5596 C.3       1 GTP         0.1111
     18 O3'         2.7418   -0.8086    1.7389 O.3       1 GTP        -0.2728
     19 C2'         0.7477    0.1630    0.7858 C.3       1 GTP         0.1111
     20 O2'         0.1373   -0.0577    2.0407 O.3       1 GTP        -0.2728
     21 C1'         1.3733    1.5427    0.6747 C.3       1 GTP         0.2693
     22 N9          0.4520    2.5240    0.1767 N.pl3     1 GTP        -0.3222
     23 C8         -0.6818    2.9109    0.7501 C.ar      1 GTP         0.1640
     24 N7         -1.3103    3.8415    0.0391 N.pl3     1 GTP        -0.3688
     25 C5         -0.5155    4.0512   -1.0547 C.ar      1 GTP         0.0648
     26 C6         -0.7125    4.9651   -2.1705 C.ar      1 GTP         0.3597
     27 O6         -1.6819    5.7047   -2.2651 O.2       1 GTP        -0.2755
     28 N1          0.3401    4.8672   -3.0790 N.pl3     1 GTP        -0.1604
     29 C2          1.4396    4.0039   -2.9348 C.ar      1 GTP         0.4468
     30 N2          2.3679    4.0602   -3.9414 N.pl3     1 GTP        -0.5618
     31 N3          1.5708    3.1983   -1.9080 N.2       1 GTP        -0.4283
     32 C4          0.5630    3.2599   -0.9921 C.ar      1 GTP         0.2226
     33 HOB2        2.4914    1.7878   -7.1408 H         1 GTP         0.2010
     34 H5'         1.3514    0.2330   -2.1577 H         1 GTP        -0.0393
     35 H5''        2.1280   -1.3678   -2.0460 H         1 GTP        -0.0393
     36 H4'         3.8044   -0.1397   -0.4040 H         1 GTP        -0.0393
     37 H3'         1.6764   -1.7639    0.2728 H         1 GTP        -0.0393
     38 HO3'        2.2232   -1.2979    2.3953 H         1 GTP         0.2010
     39 H2'        -0.0011    0.0027    0.0003 H         1 GTP        -0.0393
     40 HO2'       -0.1563   -0.9855    2.0596 H         1 GTP         0.2010
     41 H1'         1.7826    1.9024    1.6451 H         1 GTP        -0.0393
     42 H8         -1.0545    2.5222    1.6816 H         1 GTP         0.0000
     43 HN1         0.3104    5.4612   -3.9026 H         1 GTP         0.0865
     44 HN21        3.1632    3.4672   -3.8824 H         1 GTP         0.2048
     45 HN22        2.2108    4.6918   -4.6924 H         1 GTP         0.2048
     46 H46        -2.1863    4.2902    0.2681 H         1 GTP         0.2048
@<TRIPOS>BOND
     1    1    2 2
     2    1    3 1
     3    1    4 1
     4    1    5 1
     5    5    6 1
     6    6    7 2
     7    6    8 1
     8    6    9 1
     9    8   33 1
    10    9   10 1
    11   10   11 2
    12   10   12 1
    13   10   13 1
    14   13   14 1
    15   14   15 1
    16   14   34 1
    17   14   35 1
    18   15   16 1
    19   15   17 1
    20   15   36 1
    21   16   21 1
    22   17   18 1
    23   17   19 1
    24   17   37 1
    25   18   38 1
    26   19   20 1
    27   19   21 1
    28   19   39 1
    29   20   40 1
    30   21   22 1
    31   21   41 1
    32   22   23 ar
    33   22   32 ar
    34   23   24 ar
    35   23   42 1
    36   24   25 ar
    37   24   46 1
    38   25   26 ar
    39   25   32 ar
    40   26   27 2
    41   26   28 ar
    42   28   29 ar
    43   28   43 1
    44   29   30 1
    45   29   31 ar
    46   30   44 1
    47   30   45 1
    48   31   32 ar
@<TRIPOS>SUBSTRUCTURE
     1 GTP         1 GROUP 0 A     ****
@<TRIPOS>MOLECULE
[[[5-(2-amino-6-oxo-7,8-dihydro-1~{H}-purin-8-ylium-9-yl)-3,4-dihydroxy-tetrahydrofuran-2-yl]methoxy-oxido-phosphoryl]oxy-hydroxy-phosphoryl] phosphate
   46    48     1     0     0
SMALL
USER_CHARGES

@<TRIPOS>ATOM
      1 PG          0.2202    5.4442   -4.2150 P.3       1 GTP        -1.1921
      2 O1G         0.1536    6.2555   -2.9251 O.co2     1 GTP         0.3195
      3 O2G        -1.0982    4.7871   -4.6102 O.co2     1 GTP         0.3195
      4 O3G         0.9384    6.1462   -5.3628 O.co2     1 GTP         0.3195
      5 O3B         1.1983    4.1711   -3.8411 O.3       1 GTP         0.4672
      6 PB          2.7370    4.1388   -3.3433 P.3       1 GTP        -0.9715
      7 O1B         3.7206    4.7547   -4.2939 O.2       1 GTP         0.2707
      8 O2B         2.6633    4.8402   -1.8883 O.3       1 GTP         0.0326
      9 O3A         2.9877    2.5806   -2.9988 O.3       1 GTP         0.4672
     10 PA          2.8924    1.2553   -3.9461 P.3       1 GTP        -1.1062
     11 O1A         1.4473    1.0583   -4.3493 O.co2     1 GTP         0.3195
     12 O2A         3.9918    1.3260   -4.9834 O.co2     1 GTP         0.3195
     13 O5'         3.2903    0.1346   -2.8241 O.3       1 GTP         0.1618
     14 C5'         2.2816   -0.2918   -1.9206 C.3       1 GTP         0.1504
     15 C4'         2.7248    0.0226   -0.4980 C.3       1 GTP         0.1111
     16 O4'         2.4697    1.4219   -0.2462 O.3       1 GTP        -0.1436
     17 C3'         1.9404   -0.7419    0.5596 C.3       1 GTP         0.1111
     18 O3'         2.7418   -0.8086    1.7389 O.3       1 GTP        -0.2728
     19 C2'         0.7477    0.1630    0.7858 C.3       1 GTP         0.1111
     20 O2'         0.1373   -0.0577    2.0407 O.3       1 GTP        -0.2728
     21 C1'         1.3733    1.5427    0.6747 C.3       1 GTP         0.2693
     22 N9          0.4520    2.5240    0.1767 N.pl3     1 GTP        -0.3222
     23 C8         -0.2009    2.4849   -0.9792 C.ar      1 GTP         0.1640
     24 N7         -0.9840    3.5454   -1.1481 N.pl3     1 GTP        -0.3688
     25 C5         -0.8090    4.3005   -0.0206 C.ar      1 GTP         0.0648
     26 C6         -1.4206    5.5724    0.3362 C.ar      1 GTP         0.3597
     27 O6         -2.2199    6.1544   -0.3836 O.2       1 GTP        -0.2755
     28 N1         -0.9680    6.0043    1.5817 N.pl3     1 GTP        -0.1604
     29 C2         -0.0474    5.3055    2.3814 C.ar      1 GTP         0.4468
     30 N2          0.2680    5.9024    3.5740 N.pl3     1 GTP        -0.5618
     31 N3          0.4755    4.1601    2.0138 N.2       1 GTP        -0.4283
     32 C4          0.0611    3.6981    0.8001 C.ar      1 GTP         0.2226
     33 HOB2        2.4146    5.7873   -1.8309 H         1 GTP         0.2010
     34 H5'         1.3514    0.2330   -2.1577 H         1 GTP        -0.0393
     35 H5''        2.1280   -1.3678   -2.0460 H         1 GTP        -0.0393
     36 H4'         3.8044   -0.1397   -0.4040 H         1 GTP        -0.0393
     37 H3'         1.6764   -1.7639    0.2728 H         1 GTP        -0.0393
     38 HO3'        2.2232   -1.2979    2.3953 H         1 GTP         0.2010
     39 H2'        -0.0011    0.0027    0.0003 H         1 GTP        -0.0393
     40 HO2'       -0.6141    0.5574    2.1082 H         1 GTP         0.2010
     41 H1'         1.7826    1.9024    1.6451 H         1 GTP        -0.0393
     42 H8         -0.1126    1.6906   -1.6997 H         1 GTP         0.0000
     43 HN1        -1.3285    6.8855    1.9361 H         1 GTP         0.0865
     44 HN21        0.9153    5.4446    4.1732 H         1 GTP         0.2048
     45 HN22       -0.1624    6.7706    3.7948 H         1 GTP         0.2048
     46 H46        -1.5768    3.7405   -1.9429 H         1 GTP         0.2048
@<TRIPOS>BOND
     1    1    2 2
     2    1    3 1
     3    1    4 1
     4    1    5 1
     5    5    6 1
     6    6    7 2
     7    6    8 1
     8    6    9 1
     9    8   33 1
    10    9   10 1
    11   10   11 2
    12   10   12 1
    13   10   13 1
    14   13   14 1
    15   14   15 1
    16   14   34 1
    17   14   35 1
    18   15   16 1
    19   15   17 1
    20   15   36 1
    21   16   21 1
    22   17   18 1
    23   17   19 1
    24   17   37 1
    25   18   38 1
    26   19   20 1
    27   19   21 1
    28   19   39 1
    29   20   40 1
    30   21   22 1
    31   21   41 1
    32   22   23 ar
    33   22   32 ar
    34   23   24 ar
    35   23   42 1
    36   24   25 ar
    37   24   46 1
    38   25   26 ar
    39   25   32 ar
    40   26   27 2
    41   26   28 ar
    42   28   29 ar
    43   28   43 1
    44   29   30 1
    45   29   31 ar
    46   30   44 1
    47   30   45 1
    48   31   32 ar
@<TRIPOS>SUBSTRUCTURE
     1 GTP         1 GROUP 0 A     ****
@<TRIPOS>MOLECULE
[[[5-(2-amino-6-oxo-7,8-dihydro-1~{H}-purin-8-ylium-9-yl)-3,4-dihydroxy-tetrahydrofuran-2-yl]methoxy-oxido-phosphoryl]oxy-hydroxy-phosphoryl] phosphate
   46    48     1     0     0
SMALL
USER_CHARGES

@<TRIPOS>ATOM
      1 PG         -0.9400   -1.3217   -7.3506 P.3       1 GTP        -1.1921
      2 O1G        -2.3465   -1.1786   -6.7783 O.co2     1 GTP         0.3195
      3 O2G        -0.4454   -2.7614   -7.4440 O.co2     1 GTP         0.3195
      4 O3G        -0.6829   -0.4893   -8.6025 O.co2     1 GTP         0.3195
      5 O3B         0.0330   -0.6446   -6.2051 O.3       1 GTP         0.4672
      6 PB          0.0639    0.8583   -5.6076 P.3       1 GTP        -0.9715
      7 O1B         0.3246    1.9343   -6.6199 O.2       1 GTP         0.2707
      8 O2B        -1.3540    0.9735   -4.8391 O.3       1 GTP         0.0326
      9 O3A         1.1383    0.7623   -4.4051 O.3       1 GTP         0.4672
     10 PA          2.7180    0.3539   -4.4230 P.3       1 GTP        -1.1062
     11 O1A         2.8304   -1.1069   -4.8014 O.co2     1 GTP         0.3195
     12 O2A         3.4813    1.4193   -5.1793 O.co2     1 GTP         0.3195
     13 O5'         3.0213    0.5153   -2.8245 O.3       1 GTP         0.1618
     14 C5'         2.2816   -0.2918   -1.9206 C.3       1 GTP         0.1504
     15 C4'         2.7248    0.0226   -0.4980 C.3       1 GTP         0.1111
     16 O4'         2.4697    1.4219   -0.2462 O.3       1 GTP        -0.1436
     17 C3'         1.9404   -0.7419    0.5596 C.3       1 GTP         0.1111
     18 O3'         2.7418   -0.8086    1.7389 O.3       1 GTP        -0.2728
     19 C2'         0.7477    0.1630    0.7858 C.3       1 GTP         0.1111
     20 O2'         0.1373   -0.0577    2.0407 O.3       1 GTP        -0.2728
     21 C1'         1.3733    1.5427    0.6747 C.3       1 GTP         0.2693
     22 N9          0.4520    2.5240    0.1767 N.pl3     1 GTP        -0.3222
     23 C8          0.2203    2.8205   -1.0970 C.ar      1 GTP         0.1640
     24 N7         -0.6947    3.7752   -1.2304 N.pl3     1 GTP        -0.3688
     25 C5         -1.0607    4.0987    0.0476 C.ar      1 GTP         0.0648
     26 C6         -2.0310    5.0839    0.5029 C.ar      1 GTP         0.3597
     27 O6         -2.6779    5.7867   -0.2609 O.2       1 GTP        -0.2755
     28 N1         -2.1030    5.0975    1.8948 N.pl3     1 GTP        -0.1604
     29 C2         -1.3422    4.2721    2.7403 C.ar      1 GTP         0.4468
     30 N2         -1.5624    4.4419    4.0823 N.pl3     1 GTP        -0.5618
     31 N3         -0.4796    3.3981    2.2792 N.2       1 GTP        -0.4283
     32 C4         -0.3754    3.3496    0.9208 C.ar      1 GTP         0.2226
     33 HOB2       -1.5434    1.7789   -4.3123 H         1 GTP         0.2010
     34 H5'         1.2163   -0.0770   -2.0471 H         1 GTP        -0.0393
     35 H5''        2.4655   -1.3443   -2.1563 H         1 GTP        -0.0393
     36 H4'         3.8044   -0.1397   -0.4040 H         1 GTP        -0.0393
     37 H3'         1.6764   -1.7639    0.2728 H         1 GTP        -0.0393
     38 HO3'        2.2232   -1.2979    2.3953 H         1 GTP         0.2010
     39 H2'        -0.0011    0.0027    0.0003 H         1 GTP        -0.0393
     40 HO2'       -0.6141    0.5574    2.1082 H         1 GTP         0.2010
     41 H1'         1.7826    1.9024    1.6451 H         1 GTP        -0.0393
     42 H8          0.7110    2.3472   -1.9295 H         1 GTP         0.0000
     43 HN1        -2.7504    5.7495    2.3282 H         1 GTP         0.0865
     44 HN21       -1.0467    3.8796    4.7190 H         1 GTP         0.2048
     45 HN22       -2.2294    5.1209    4.3680 H         1 GTP         0.2048
     46 H46        -1.0382    4.1687   -2.0954 H         1 GTP         0.2048
@<TRIPOS>BOND
     1    1    2 2
     2    1    3 1
     3    1    4 1
     4    1    5 1
     5    5    6 1
     6    6    7 2
     7    6    8 1
     8    6    9 1
     9    8   33 1
    10    9   10 1
    11   10   11 2
    12   10   12 1
    13   10   13 1
    14   13   14 1
    15   14   15 1
    16   14   34 1
    17   14   35 1
    18   15   16 1
    19   15   17 1
    20   15   36 1
    21   16   21 1
    22   17   18 1
    23   17   19 1
    24   17   37 1
    25   18   38 1
    26   19   20 1
    27   19   21 1
    28   19   39 1
    29   20   40 1
    30   21   22 1
    31   21   41 1
    32   22   23 ar
    33   22   32 ar
    34   23   24 ar
    35   23   42 1
    36   24   25 ar
    37   24   46 1
    38   25   26 ar
    39   25   32 ar
    40   26   27 2
    41   26   28 ar
    42   28   29 ar
    43   28   43 1
    44   29   30 1
    45   29   31 ar
    46   30   44 1
    47   30   45 1
    48   31   32 ar
@<TRIPOS>SUBSTRUCTURE
     1 GTP         1 GROUP 0 A     ****
@<TRIPOS>MOLECULE
[[[5-(2-amino-6-oxo-7,8-dihydro-1~{H}-purin-8-ylium-9-yl)-3,4-dihydroxy-tetrahydrofuran-2-yl]methoxy-oxido-phosphoryl]oxy-hydroxy-phosphoryl] phosphate
   46    48     1     0     0
SMALL
USER_CHARGES

@<TRIPOS>ATOM
      1 PG          3.1130   -4.6086   -3.9262 P.3       1 GTP        -1.1921
      2 O1G         3.6598   -4.7353   -2.5080 O.co2     1 GTP         0.3195
      3 O2G         3.2477   -5.8755   -4.7647 O.co2     1 GTP         0.3195
      4 O3G         1.7441   -3.9420   -4.0150 O.co2     1 GTP         0.3195
      5 O3B         4.1336   -3.5412   -4.6586 O.3       1 GTP         0.4672
      6 PB          4.4850   -2.0048   -4.2948 P.3       1 GTP        -0.9715
      7 O1B         5.0743   -1.7985   -2.9307 O.2       1 GTP         0.2707
      8 O2B         5.4315   -1.5474   -5.5232 O.3       1 GTP         0.0326
      9 O3A         3.0982   -1.2256   -4.5763 O.3       1 GTP         0.4672
     10 PA          2.7180    0.3539   -4.4230 P.3       1 GTP        -1.1062
     11 O1A         3.7292    1.1672   -5.2015 O.co2     1 GTP         0.3195
     12 O2A         1.2326    0.5160   -4.6616 O.co2     1 GTP         0.3195
     13 O5'         3.0213    0.5153   -2.8245 O.3       1 GTP         0.1618
     14 C5'         2.2816   -0.2918   -1.9206 C.3       1 GTP         0.1504
     15 C4'         2.7248    0.0226   -0.4980 C.3       1 GTP         0.1111
     16 O4'         2.4697    1.4219   -0.2462 O.3       1 GTP        -0.1436
     17 C3'         1.9404   -0.7419    0.5596 C.3       1 GTP         0.1111
     18 O3'         2.7418   -0.8086    1.7389 O.3       1 GTP        -0.2728
     19 C2'         0.7477    0.1630    0.7858 C.3       1 GTP         0.1111
     20 O2'         0.1373   -0.0577    2.0407 O.3       1 GTP        -0.2728
     21 C1'         1.3733    1.5427    0.6747 C.3       1 GTP         0.2693
     22 N9          0.4520    2.5240    0.1767 N.pl3     1 GTP        -0.3222
     23 C8          0.2203    2.8205   -1.0970 C.ar      1 GTP         0.1640
     24 N7         -0.6947    3.7752   -1.2304 N.pl3     1 GTP        -0.3688
     25 C5         -1.0607    4.0987    0.0476 C.ar      1 GTP         0.0648
     26 C6         -2.0310    5.0839    0.5029 C.ar      1 GTP         0.3597
     27 O6         -2.6779    5.7867   -0.2609 O.2       1 GTP        -0.2755
     28 N1         -2.1030    5.0975    1.8948 N.pl3     1 GTP        -0.1604
     29 C2         -1.3422    4.2721    2.7403 C.ar      1 GTP         0.4468
     30 N2         -1.5624    4.4419    4.0823 N.pl3     1 GTP        -0.5618
     31 N3         -0.4796    3.3981    2.2792 N.2       1 GTP        -0.4283
     32 C4         -0.3754    3.3496    0.9208 C.ar      1 GTP         0.2226
     33 HOB2        5.7152   -0.6101   -5.5793 H         1 GTP         0.2010
     34 H5'         1.2163   -0.0770   -2.0471 H         1 GTP        -0.0393
     35 H5''        2.4655   -1.3443   -2.1563 H         1 GTP        -0.0393
     36 H4'         3.8044   -0.1397   -0.4040 H         1 GTP        -0.0393
     37 H3'         1.6764   -1.7639    0.2728 H         1 GTP        -0.0393
     38 HO3'        2.2232   -1.2979    2.3953 H         1 GTP         0.2010
     39 H2'        -0.0011    0.0027    0.0003 H         1 GTP        -0.0393
     40 HO2'       -0.6141    0.5574    2.1082 H         1 GTP         0.2010
     41 H1'         1.7826    1.9024    1.6451 H         1 GTP        -0.0393
     42 H8          0.7110    2.3472   -1.9295 H         1 GTP         0.0000
     43 HN1        -2.7504    5.7495    2.3282 H         1 GTP         0.0865
     44 HN21       -1.0467    3.8796    4.7190 H         1 GTP         0.2048
     45 HN22       -2.2294    5.1209    4.3680 H         1 GTP         0.2048
     46 H46        -1.0382    4.1687   -2.0954 H         1 GTP         0.2048
@<TRIPOS>BOND
     1    1    2 2
     2    1    3 1
     3    1    4 1
     4    1    5 1
     5    5    6 1
     6    6    7 2
     7    6    8 1
     8    6    9 1
     9    8   33 1
    10    9   10 1
    11   10   11 2
    12   10   12 1
    13   10   13 1
    14   13   14 1
    15   14   15 1
    16   14   34 1
    17   14   35 1
    18   15   16 1
    19   15   17 1
    20   15   36 1
    21   16   21 1
    22   17   18 1
    23   17   19 1
    24   17   37 1
    25   18   38 1
    26   19   20 1
    27   19   21 1
    28   19   39 1
    29   20   40 1
    30   21   22 1
    31   21   41 1
    32   22   23 ar
    33   22   32 ar
    34   23   24 ar
    35   23   42 1
    36   24   25 ar
    37   24   46 1
    38   25   26 ar
    39   25   32 ar
    40   26   27 2
    41   26   28 ar
    42   28   29 ar
    43   28   43 1
    44   29   30 1
    45   29   31 ar
    46   30   44 1
    47   30   45 1
    48   31   32 ar
@<TRIPOS>SUBSTRUCTURE
     1 GTP         1 GROUP 0 A     ****
@<TRIPOS>MOLECULE
[[[5-(2-amino-6-oxo-7,8-dihydro-1~{H}-purin-8-ylium-9-yl)-3,4-dihydroxy-tetrahydrofuran-2-yl]methoxy-oxido-phosphoryl]oxy-hydroxy-phosphoryl] phosphate
   46    48     1     0     0
SMALL
USER_CHARGES

@<TRIPOS>ATOM
      1 PG          5.0352   -4.0724   -4.6842 P.3       1 GTP        -1.1921
      2 O1G         6.0017   -3.8481   -5.8426 O.co2     1 GTP         0.3195
      3 O2G         4.8350   -5.5375   -4.3105 O.co2     1 GTP         0.3195
      4 O3G         5.2569   -3.1471   -3.4922 O.co2     1 GTP         0.3195
      5 O3B         3.5702   -3.6159   -5.2866 O.3       1 GTP         0.4672
      6 PB          3.0715   -2.1922   -5.8703 P.3       1 GTP        -0.9715
      7 O1B         3.8369   -1.6956   -7.0611 O.2       1 GTP         0.2707
      8 O2B         1.4939   -2.4366   -6.1267 O.3       1 GTP         0.0326
      9 O3A         3.0982   -1.2256   -4.5763 O.3       1 GTP         0.4672
     10 PA          2.7180    0.3539   -4.4230 P.3       1 GTP        -1.1062
     11 O1A         3.7292    1.1672   -5.2015 O.co2     1 GTP         0.3195
     12 O2A         1.2326    0.5160   -4.6616 O.co2     1 GTP         0.3195
     13 O5'         3.0213    0.5153   -2.8245 O.3       1 GTP         0.1618
     14 C5'         2.2816   -0.2918   -1.9206 C.3       1 GTP         0.1504
     15 C4'         2.7248    0.0226   -0.4980 C.3       1 GTP         0.1111
     16 O4'         2.4697    1.4219   -0.2462 O.3       1 GTP        -0.1436
     17 C3'         1.9404   -0.7419    0.5596 C.3       1 GTP         0.1111
     18 O3'         2.7418   -0.8086    1.7389 O.3       1 GTP        -0.2728
     19 C2'         0.7477    0.1630    0.7858 C.3       1 GTP         0.1111
     20 O2'         0.1373   -0.0577    2.0407 O.3       1 GTP        -0.2728
     21 C1'         1.3733    1.5427    0.6747 C.3       1 GTP         0.2693
     22 N9          0.4520    2.5240    0.1767 N.pl3     1 GTP        -0.3222
     23 C8          0.2203    2.8205   -1.0970 C.ar      1 GTP         0.1640
     24 N7         -0.6947    3.7752   -1.2304 N.pl3     1 GTP        -0.3688
     25 C5         -1.0607    4.0987    0.0476 C.ar      1 GTP         0.0648
     26 C6         -2.0310    5.0839    0.5029 C.ar      1 GTP         0.3597
     27 O6         -2.6779    5.7867   -0.2609 O.2       1 GTP        -0.2755
     28 N1         -2.1030    5.0975    1.8948 N.pl3     1 GTP        -0.1604
     29 C2         -1.3422    4.2721    2.7403 C.ar      1 GTP         0.4468
     30 N2         -1.5624    4.4419    4.0823 N.pl3     1 GTP        -0.5618
     31 N3         -0.4796    3.3981    2.2792 N.2       1 GTP        -0.4283
     32 C4         -0.3754    3.3496    0.9208 C.ar      1 GTP         0.2226
     33 HOB2        0.9367   -1.6799   -6.4079 H         1 GTP         0.2010
     34 H5'         1.2163   -0.0770   -2.0471 H         1 GTP        -0.0393
     35 H5''        2.4655   -1.3443   -2.1563 H         1 GTP        -0.0393
     36 H4'         3.8044   -0.1397   -0.4040 H         1 GTP        -0.0393
     37 H3'         1.6764   -1.7639    0.2728 H         1 GTP        -0.0393
     38 HO3'        2.2232   -1.2979    2.3953 H         1 GTP         0.2010
     39 H2'        -0.0011    0.0027    0.0003 H         1 GTP        -0.0393
     40 HO2'       -0.6141    0.5574    2.1082 H         1 GTP         0.2010
     41 H1'         1.7826    1.9024    1.6451 H         1 GTP        -0.0393
     42 H8          0.7110    2.3472   -1.9295 H         1 GTP         0.0000
     43 HN1        -2.7504    5.7495    2.3282 H         1 GTP         0.0865
     44 HN21       -1.0467    3.8796    4.7190 H         1 GTP         0.2048
     45 HN22       -2.2294    5.1209    4.3680 H         1 GTP         0.2048
     46 H46        -1.0382    4.1687   -2.0954 H         1 GTP         0.2048
@<TRIPOS>BOND
     1    1    2 2
     2    1    3 1
     3    1    4 1
     4    1    5 1
     5    5    6 1
     6    6    7 2
     7    6    8 1
     8    6    9 1
     9    8   33 1
    10    9   10 1
    11   10   11 2
    12   10   12 1
    13   10   13 1
    14   13   14 1
    15   14   15 1
    16   14   34 1
    17   14   35 1
    18   15   16 1
    19   15   17 1
    20   15   36 1
    21   16   21 1
    22   17   18 1
    23   17   19 1
    24   17   37 1
    25   18   38 1
    26   19   20 1
    27   19   21 1
    28   19   39 1
    29   20   40 1
    30   21   22 1
    31   21   41 1
    32   22   23 ar
    33   22   32 ar
    34   23   24 ar
    35   23   42 1
    36   24   25 ar
    37   24   46 1
    38   25   26 ar
    39   25   32 ar
    40   26   27 2
    41   26   28 ar
    42   28   29 ar
    43   28   43 1
    44   29   30 1
    45   29   31 ar
    46   30   44 1
    47   30   45 1
    48   31   32 ar
@<TRIPOS>SUBSTRUCTURE
     1 GTP         1 GROUP 0 A     ****
@<TRIPOS>MOLECULE
[[[5-(2-amino-6-oxo-7,8-dihydro-1~{H}-purin-8-ylium-9-yl)-3,4-dihydroxy-tetrahydrofuran-2-yl]methoxy-oxido-phosphoryl]oxy-hydroxy-phosphoryl] phosphate
   46    48     1     0     0
SMALL
USER_CHARGES

@<TRIPOS>ATOM
      1 PG         -2.3690   -0.0929   -3.2166 P.3       1 GTP        -1.1921
      2 O1G        -2.3622    0.3370   -1.7532 O.co2     1 GTP         0.3195
      3 O2G        -3.7504   -0.0913   -3.8633 O.co2     1 GTP         0.3195
      4 O3G        -1.2794    0.5524   -4.0666 O.co2     1 GTP         0.3195
      5 O3B        -1.9576   -1.6885   -3.1706 O.3       1 GTP         0.4672
      6 PB         -0.6240   -2.4141   -2.6128 P.3       1 GTP        -0.9715
      7 O1B        -0.3459   -2.1893   -1.1559 O.2       1 GTP         0.2707
      8 O2B        -0.8470   -3.9590   -3.0344 O.3       1 GTP         0.0326
      9 O3A         0.5295   -1.9094   -3.6249 O.3       1 GTP         0.4672
     10 PA          2.1265   -2.2419   -3.6650 P.3       1 GTP        -1.1062
     11 O1A         2.3025   -3.7448   -3.6713 O.co2     1 GTP         0.3195
     12 O2A         2.7717   -1.3738   -4.7233 O.co2     1 GTP         0.3195
     13 O5'         2.5245   -1.6648   -2.1878 O.3       1 GTP         0.1618
     14 C5'         2.2816   -0.2918   -1.9206 C.3       1 GTP         0.1504
     15 C4'         2.7248    0.0226   -0.4980 C.3       1 GTP         0.1111
     16 O4'         2.4697    1.4219   -0.2462 O.3       1 GTP        -0.1436
     17 C3'         1.9404   -0.7419    0.5596 C.3       1 GTP         0.1111
     18 O3'         2.7418   -0.8086    1.7389 O.3       1 GTP        -0.2728
     19 C2'         0.7477    0.1630    0.7858 C.3       1 GTP         0.1111
     20 O2'         0.1373   -0.0577    2.0407 O.3       1 GTP        -0.2728
     21 C1'         1.3733    1.5427    0.6747 C.3       1 GTP         0.2693
     22 N9          0.4520    2.5240    0.1767 N.pl3     1 GTP        -0.3222
     23 C8          0.2203    2.8205   -1.0970 C.ar      1 GTP         0.1640
     24 N7         -0.6947    3.7752   -1.2304 N.pl3     1 GTP        -0.3688
     25 C5         -1.0607    4.0987    0.0476 C.ar      1 GTP         0.0648
     26 C6         -2.0310    5.0839    0.5029 C.ar      1 GTP         0.3597
     27 O6         -2.6779    5.7867   -0.2609 O.2       1 GTP        -0.2755
     28 N1         -2.1030    5.0975    1.8948 N.pl3     1 GTP        -0.1604
     29 C2         -1.3422    4.2721    2.7403 C.ar      1 GTP         0.4468
     30 N2         -1.5624    4.4419    4.0823 N.pl3     1 GTP        -0.5618
     31 N3         -0.4796    3.3981    2.2792 N.2       1 GTP        -0.4283
     32 C4         -0.3754    3.3496    0.9208 C.ar      1 GTP         0.2226
     33 HOB2       -0.1228   -4.6021   -2.8784 H         1 GTP         0.2010
     34 H5'         2.8432    0.3119   -2.6398 H         1 GTP        -0.0393
     35 H5''        1.2128   -0.0927   -2.0428 H         1 GTP        -0.0393
     36 H4'         3.8044   -0.1397   -0.4040 H         1 GTP        -0.0393
     37 H3'         1.6764   -1.7639    0.2728 H         1 GTP        -0.0393
     38 HO3'        2.2232   -1.2979    2.3953 H         1 GTP         0.2010
     39 H2'        -0.0011    0.0027    0.0003 H         1 GTP        -0.0393
     40 HO2'       -0.6141    0.5574    2.1082 H         1 GTP         0.2010
     41 H1'         1.7826    1.9024    1.6451 H         1 GTP        -0.0393
     42 H8          0.7110    2.3472   -1.9295 H         1 GTP         0.0000
     43 HN1        -2.7504    5.7495    2.3282 H         1 GTP         0.0865
     44 HN21       -1.0467    3.8796    4.7190 H         1 GTP         0.2048
     45 HN22       -2.2294    5.1209    4.3680 H         1 GTP         0.2048
     46 H46        -1.0382    4.1687   -2.0954 H         1 GTP         0.2048
@<TRIPOS>BOND
     1    1    2 2
     2    1    3 1
     3    1    4 1
     4    1    5 1
     5    5    6 1
     6    6    7 2
     7    6    8 1
     8    6    9 1
     9    8   33 1
    10    9   10 1
    11   10   11 2
    12   10   12 1
    13   10   13 1
    14   13   14 1
    15   14   15 1
    16   14   34 1
    17   14   35 1
    18   15   16 1
    19   15   17 1
    20   15   36 1
    21   16   21 1
    22   17   18 1
    23   17   19 1
    24   17   37 1
    25   18   38 1
    26   19   20 1
    27   19   21 1
    28   19   39 1
    29   20   40 1
    30   21   22 1
    31   21   41 1
    32   22   23 ar
    33   22   32 ar
    34   23   24 ar
    35   23   42 1
    36   24   25 ar
    37   24   46 1
    38   25   26 ar
    39   25   32 ar
    40   26   27 2
    41   26   28 ar
    42   28   29 ar
    43   28   43 1
    44   29   30 1
    45   29   31 ar
    46   30   44 1
    47   30   45 1
    48   31   32 ar
@<TRIPOS>SUBSTRUCTURE
     1 GTP         1 GROUP 0 A     ****
@<TRIPOS>MOLECULE
[[[5-(2-amino-6-oxo-7,8-dihydro-1~{H}-purin-8-ylium-9-yl)-3,4-dihydroxy-tetrahydrofuran-2-yl]methoxy-oxido-phosphoryl]oxy-hydroxy-phosphoryl] phosphate
   46    48     1     0     0
SMALL
USER_CHARGES

@<TRIPOS>ATOM
      1 PG         -1.5074   -4.0620    0.3730 P.3       1 GTP        -1.1921
      2 O1G        -1.5725   -5.5558    0.0718 O.co2     1 GTP         0.3195
      3 O2G        -2.5977   -3.5655    1.3170 O.co2     1 GTP         0.3195
      4 O3G        -0.1104   -3.5478    0.7050 O.co2     1 GTP         0.3195
      5 O3B        -1.8743   -3.3438   -1.0647 O.3       1 GTP         0.4672
      6 PB         -1.1355   -3.4301   -2.5010 P.3       1 GTP        -0.9715
      7 O1B        -1.0546   -4.8087   -3.0870 O.2       1 GTP         0.2707
      8 O2B        -1.9497   -2.3559   -3.3940 O.3       1 GTP         0.0326
      9 O3A         0.2833   -2.7039   -2.2379 O.3       1 GTP         0.4672
     10 PA          1.5375   -2.4279   -3.2447 P.3       1 GTP        -1.1062
     11 O1A         2.1515   -3.7589   -3.6203 O.co2     1 GTP         0.3195
     12 O2A         1.0949   -1.4430   -4.3048 O.co2     1 GTP         0.3195
     13 O5'         2.5245   -1.6648   -2.1878 O.3       1 GTP         0.1618
     14 C5'         2.2816   -0.2918   -1.9206 C.3       1 GTP         0.1504
     15 C4'         2.7248    0.0226   -0.4980 C.3       1 GTP         0.1111
     16 O4'         2.4697    1.4219   -0.2462 O.3       1 GTP        -0.1436
     17 C3'         1.9404   -0.7419    0.5596 C.3       1 GTP         0.1111
     18 O3'         2.7418   -0.8086    1.7389 O.3       1 GTP        -0.2728
     19 C2'         0.7477    0.1630    0.7858 C.3       1 GTP         0.1111
     20 O2'         0.1373   -0.0577    2.0407 O.3       1 GTP        -0.2728
     21 C1'         1.3733    1.5427    0.6747 C.3       1 GTP         0.2693
     22 N9          0.4520    2.5240    0.1767 N.pl3     1 GTP        -0.3222
     23 C8          0.2203    2.8205   -1.0970 C.ar      1 GTP         0.1640
     24 N7         -0.6947    3.7752   -1.2304 N.pl3     1 GTP        -0.3688
     25 C5         -1.0607    4.0987    0.0476 C.ar      1 GTP         0.0648
     26 C6         -2.0310    5.0839    0.5029 C.ar      1 GTP         0.3597
     27 O6         -2.6779    5.7867   -0.2609 O.2       1 GTP        -0.2755
     28 N1         -2.1030    5.0975    1.8948 N.pl3     1 GTP        -0.1604
     29 C2         -1.3422    4.2721    2.7403 C.ar      1 GTP         0.4468
     30 N2         -1.5624    4.4419    4.0823 N.pl3     1 GTP        -0.5618
     31 N3         -0.4796    3.3981    2.2792 N.2       1 GTP        -0.4283
     32 C4         -0.3754    3.3496    0.9208 C.ar      1 GTP         0.2226
     33 HOB2       -1.6342   -2.1577   -4.3014 H         1 GTP         0.2010
     34 H5'         2.8432    0.3119   -2.6398 H         1 GTP        -0.0393
     35 H5''        1.2128   -0.0927   -2.0428 H         1 GTP        -0.0393
     36 H4'         3.8044   -0.1397   -0.4040 H         1 GTP        -0.0393
     37 H3'         1.6764   -1.7639    0.2728 H         1 GTP        -0.0393
     38 HO3'        2.2232   -1.2979    2.3953 H         1 GTP         0.2010
     39 H2'        -0.0011    0.0027    0.0003 H         1 GTP        -0.0393
     40 HO2'       -0.1563   -0.9855    2.0596 H         1 GTP         0.2010
     41 H1'         1.7826    1.9024    1.6451 H         1 GTP        -0.0393
     42 H8          0.7110    2.3472   -1.9295 H         1 GTP         0.0000
     43 HN1        -2.7504    5.7495    2.3282 H         1 GTP         0.0865
     44 HN21       -1.0467    3.8796    4.7190 H         1 GTP         0.2048
     45 HN22       -2.2294    5.1209    4.3680 H         1 GTP         0.2048
     46 H46        -1.0382    4.1687   -2.0954 H         1 GTP         0.2048
@<TRIPOS>BOND
     1    1    2 2
     2    1    3 1
     3    1    4 1
     4    1    5 1
     5    5    6 1
     6    6    7 2
     7    6    8 1
     8    6    9 1
     9    8   33 1
    10    9   10 1
    11   10   11 2
    12   10   12 1
    13   10   13 1
    14   13   14 1
    15   14   15 1
    16   14   34 1
    17   14   35 1
    18   15   16 1
    19   15   17 1
    20   15   36 1
    21   16   21 1
    22   17   18 1
    23   17   19 1
    24   17   37 1
    25   18   38 1
    26   19   20 1
    27   19   21 1
    28   19   39 1
    29   20   40 1
    30   21   22 1
    31   21   41 1
    32   22   23 ar
    33   22   32 ar
    34   23   24 ar
    35   23   42 1
    36   24   25 ar
    37   24   46 1
    38   25   26 ar
    39   25   32 ar
    40   26   27 2
    41   26   28 ar
    42   28   29 ar
    43   28   43 1
    44   29   30 1
    45   29   31 ar
    46   30   44 1
    47   30   45 1
    48   31   32 ar
@<TRIPOS>SUBSTRUCTURE
     1 GTP         1 GROUP 0 A     ****
@<TRIPOS>MOLECULE
[[[5-(2-amino-6-oxo-7,8-dihydro-1~{H}-purin-8-ylium-9-yl)-3,4-dihydroxy-tetrahydrofuran-2-yl]methoxy-oxido-phosphoryl]oxy-hydroxy-phosphoryl] phosphate
   46    48     1     0     0
SMALL
USER_CHARGES

@<TRIPOS>ATOM
      1 PG          0.2295    2.4685   -8.0931 P.3       1 GTP        -1.1921
      2 O1G         0.2945    1.2067   -8.9475 O.co2     1 GTP         0.3195
      3 O2G         1.2594    3.5303   -8.4651 O.co2     1 GTP         0.3195
      4 O3G        -1.1797    3.0113   -7.8794 O.co2     1 GTP         0.3195
      5 O3B         0.7038    1.9673   -6.5960 O.3       1 GTP         0.4672
      6 PB          0.0639    0.8583   -5.6076 P.3       1 GTP        -0.9715
      7 O1B        -1.3506    1.1287   -5.1875 O.2       1 GTP         0.2707
      8 O2B         0.2822   -0.5224   -6.4203 O.3       1 GTP         0.0326
      9 O3A         1.1383    0.7623   -4.4051 O.3       1 GTP         0.4672
     10 PA          2.7180    0.3539   -4.4230 P.3       1 GTP        -1.1062
     11 O1A         2.8304   -1.1069   -4.8014 O.co2     1 GTP         0.3195
     12 O2A         3.4813    1.4193   -5.1793 O.co2     1 GTP         0.3195
     13 O5'         3.0213    0.5153   -2.8245 O.3       1 GTP         0.1618
     14 C5'         2.2816   -0.2918   -1.9206 C.3       1 GTP         0.1504
     15 C4'         2.7248    0.0226   -0.4980 C.3       1 GTP         0.1111
     16 O4'         2.4697    1.4219   -0.2462 O.3       1 GTP        -0.1436
     17 C3'         1.9404   -0.7419    0.5596 C.3       1 GTP         0.1111
     18 O3'         2.7418   -0.8086    1.7389 O.3       1 GTP        -0.2728
     19 C2'         0.7477    0.1630    0.7858 C.3       1 GTP         0.1111
     20 O2'         0.1373   -0.0577    2.0407 O.3       1 GTP        -0.2728
     21 C1'         1.3733    1.5427    0.6747 C.3       1 GTP         0.2693
     22 N9          0.4520    2.5240    0.1767 N.pl3     1 GTP        -0.3222
     23 C8          0.2203    2.8205   -1.0970 C.ar      1 GTP         0.1640
     24 N7         -0.6947    3.7752   -1.2304 N.pl3     1 GTP        -0.3688
     25 C5         -1.0607    4.0987    0.0476 C.ar      1 GTP         0.0648
     26 C6         -2.0310    5.0839    0.5029 C.ar      1 GTP         0.3597
     27 O6         -2.6779    5.7867   -0.2609 O.2       1 GTP        -0.2755
     28 N1         -2.1030    5.0975    1.8948 N.pl3     1 GTP        -0.1604
     29 C2         -1.3422    4.2721    2.7403 C.ar      1 GTP         0.4468
     30 N2         -1.5624    4.4419    4.0823 N.pl3     1 GTP        -0.5618
     31 N3         -0.4796    3.3981    2.2792 N.2       1 GTP        -0.4283
     32 C4         -0.3754    3.3496    0.9208 C.ar      1 GTP         0.2226
     33 HOB2        0.0483   -1.3701   -5.9857 H         1 GTP         0.2010
     34 H5'         1.2163   -0.0770   -2.0471 H         1 GTP        -0.0393
     35 H5''        2.4655   -1.3443   -2.1563 H         1 GTP        -0.0393
     36 H4'         3.8044   -0.1397   -0.4040 H         1 GTP        -0.0393
     37 H3'         1.6764   -1.7639    0.2728 H         1 GTP        -0.0393
     38 HO3'        2.2232   -1.2979    2.3953 H         1 GTP         0.2010
     39 H2'        -0.0011    0.0027    0.0003 H         1 GTP        -0.0393
     40 HO2'       -0.6141    0.5574    2.1082 H         1 GTP         0.2010
     41 H1'         1.7826    1.9024    1.6451 H         1 GTP        -0.0393
     42 H8          0.7110    2.3472   -1.9295 H         1 GTP         0.0000
     43 HN1        -2.7504    5.7495    2.3282 H         1 GTP         0.0865
     44 HN21       -1.0467    3.8796    4.7190 H         1 GTP         0.2048
     45 HN22       -2.2294    5.1209    4.3680 H         1 GTP         0.2048
     46 H46        -1.0382    4.1687   -2.0954 H         1 GTP         0.2048
@<TRIPOS>BOND
     1    1    2 2
     2    1    3 1
     3    1    4 1
     4    1    5 1
     5    5    6 1
     6    6    7 2
     7    6    8 1
     8    6    9 1
     9    8   33 1
    10    9   10 1
    11   10   11 2
    12   10   12 1
    13   10   13 1
    14   13   14 1
    15   14   15 1
    16   14   34 1
    17   14   35 1
    18   15   16 1
    19   15   17 1
    20   15   36 1
    21   16   21 1
    22   17   18 1
    23   17   19 1
    24   17   37 1
    25   18   38 1
    26   19   20 1
    27   19   21 1
    28   19   39 1
    29   20   40 1
    30   21   22 1
    31   21   41 1
    32   22   23 ar
    33   22   32 ar
    34   23   24 ar
    35   23   42 1
    36   24   25 ar
    37   24   46 1
    38   25   26 ar
    39   25   32 ar
    40   26   27 2
    41   26   28 ar
    42   28   29 ar
    43   28   43 1
    44   29   30 1
    45   29   31 ar
    46   30   44 1
    47   30   45 1
    48   31   32 ar
@<TRIPOS>SUBSTRUCTURE
     1 GTP         1 GROUP 0 A     ****
@<TRIPOS>MOLECULE
[[[5-(2-amino-6-oxo-7,8-dihydro-1~{H}-purin-8-ylium-9-yl)-3,4-dihydroxy-tetrahydrofuran-2-yl]methoxy-oxido-phosphoryl]oxy-hydroxy-phosphoryl] phosphate
   46    48     1     0     0
SMALL
USER_CHARGES

@<TRIPOS>ATOM
      1 PG         -1.6278    2.8340   -6.0700 P.3       1 GTP        -1.1921
      2 O1G        -0.8978    3.7805   -7.0174 O.co2     1 GTP         0.3195
      3 O2G        -2.3825    3.5338   -4.9444 O.co2     1 GTP         0.3195
      4 O3G        -2.4228    1.7354   -6.7679 O.co2     1 GTP         0.3195
      5 O3B        -0.4179    2.0290   -5.2919 O.3       1 GTP         0.4672
      6 PB          0.7579    1.0825   -5.8734 P.3       1 GTP        -0.9715
      7 O1B         0.2818   -0.1307   -6.6163 O.2       1 GTP         0.2707
      8 O2B         1.6531    2.1086   -6.7451 O.3       1 GTP         0.0326
      9 O3A         1.6767    0.7864   -4.5782 O.3       1 GTP         0.4672
     10 PA          3.0383   -0.0994   -4.4226 P.3       1 GTP        -1.1062
     11 O1A         2.6929   -1.5534   -4.6599 O.co2     1 GTP         0.3195
     12 O2A         4.1447    0.5793   -5.2003 O.co2     1 GTP         0.3195
     13 O5'         3.2903    0.1346   -2.8241 O.3       1 GTP         0.1618
     14 C5'         2.2816   -0.2918   -1.9206 C.3       1 GTP         0.1504
     15 C4'         2.7248    0.0226   -0.4980 C.3       1 GTP         0.1111
     16 O4'         2.4697    1.4219   -0.2462 O.3       1 GTP        -0.1436
     17 C3'         1.9404   -0.7419    0.5596 C.3       1 GTP         0.1111
     18 O3'         2.7418   -0.8086    1.7389 O.3       1 GTP        -0.2728
     19 C2'         0.7477    0.1630    0.7858 C.3       1 GTP         0.1111
     20 O2'         0.1373   -0.0577    2.0407 O.3       1 GTP        -0.2728
     21 C1'         1.3733    1.5427    0.6747 C.3       1 GTP         0.2693
     22 N9          0.4520    2.5240    0.1767 N.pl3     1 GTP        -0.3222
     23 C8          0.2203    2.8205   -1.0970 C.ar      1 GTP         0.1640
     24 N7         -0.6947    3.7752   -1.2304 N.pl3     1 GTP        -0.3688
     25 C5         -1.0607    4.0987    0.0476 C.ar      1 GTP         0.0648
     26 C6         -2.0310    5.0839    0.5029 C.ar      1 GTP         0.3597
     27 O6         -2.6779    5.7867   -0.2609 O.2       1 GTP        -0.2755
     28 N1         -2.1030    5.0975    1.8948 N.pl3     1 GTP        -0.1604
     29 C2         -1.3422    4.2721    2.7403 C.ar      1 GTP         0.4468
     30 N2         -1.5624    4.4419    4.0823 N.pl3     1 GTP        -0.5618
     31 N3         -0.4796    3.3981    2.2792 N.2       1 GTP        -0.4283
     32 C4         -0.3754    3.3496    0.9208 C.ar      1 GTP         0.2226
     33 HOB2        2.4914    1.7878   -7.1408 H         1 GTP         0.2010
     34 H5'         1.3514    0.2330   -2.1577 H         1 GTP        -0.0393
     35 H5''        2.1280   -1.3678   -2.0460 H         1 GTP        -0.0393
     36 H4'         3.8044   -0.1397   -0.4040 H         1 GTP        -0.0393
     37 H3'         1.6764   -1.7639    0.2728 H         1 GTP        -0.0393
     38 HO3'        2.2232   -1.2979    2.3953 H         1 GTP         0.2010
     39 H2'        -0.0011    0.0027    0.0003 H         1 GTP        -0.0393
     40 HO2'       -0.6141    0.5574    2.1082 H         1 GTP         0.2010
     41 H1'         1.7826    1.9024    1.6451 H         1 GTP        -0.0393
     42 H8          0.7110    2.3472   -1.9295 H         1 GTP         0.0000
     43 HN1        -2.7504    5.7495    2.3282 H         1 GTP         0.0865
     44 HN21       -1.0467    3.8796    4.7190 H         1 GTP         0.2048
     45 HN22       -2.2294    5.1209    4.3680 H         1 GTP         0.2048
     46 H46        -1.0382    4.1687   -2.0954 H         1 GTP         0.2048
@<TRIPOS>BOND
     1    1    2 2
     2    1    3 1
     3    1    4 1
     4    1    5 1
     5    5    6 1
     6    6    7 2
     7    6    8 1
     8    6    9 1
     9    8   33 1
    10    9   10 1
    11   10   11 2
    12   10   12 1
    13   10   13 1
    14   13   14 1
    15   14   15 1
    16   14   34 1
    17   14   35 1
    18   15   16 1
    19   15   17 1
    20   15   36 1
    21   16   21 1
    22   17   18 1
    23   17   19 1
    24   17   37 1
    25   18   38 1
    26   19   20 1
    27   19   21 1
    28   19   39 1
    29   20   40 1
    30   21   22 1
    31   21   41 1
    32   22   23 ar
    33   22   32 ar
    34   23   24 ar
    35   23   42 1
    36   24   25 ar
    37   24   46 1
    38   25   26 ar
    39   25   32 ar
    40   26   27 2
    41   26   28 ar
    42   28   29 ar
    43   28   43 1
    44   29   30 1
    45   29   31 ar
    46   30   44 1
    47   30   45 1
    48   31   32 ar
@<TRIPOS>SUBSTRUCTURE
     1 GTP         1 GROUP 0 A     ****
@<TRIPOS>MOLECULE
[[[5-(2-amino-6-oxo-7,8-dihydro-1~{H}-purin-8-ylium-9-yl)-3,4-dihydroxy-tetrahydrofuran-2-yl]methoxy-oxido-phosphoryl]oxy-hydroxy-phosphoryl] phosphate
   46    48     1     0     0
SMALL
USER_CHARGES

@<TRIPOS>ATOM
      1 PG         -0.8207    3.2739   -6.4014 P.3       1 GTP        -1.1921
      2 O1G        -1.3897    4.3883   -5.5292 O.co2     1 GTP         0.3195
      3 O2G        -1.7780    2.1094   -6.6329 O.co2     1 GTP         0.3195
      4 O3G        -0.1115    3.7610   -7.6607 O.co2     1 GTP         0.3195
      5 O3B         0.3825    2.6183   -5.4848 O.3       1 GTP         0.4672
      6 PB          1.7234    3.2877   -4.8765 P.3       1 GTP        -0.9715
      7 O1B         2.6638    3.8563   -5.8978 O.2       1 GTP         0.2707
      8 O2B         1.1449    4.3577   -3.8113 O.3       1 GTP         0.0326
      9 O3A         2.3362    2.1200   -3.9436 O.3       1 GTP         0.4672
     10 PA          2.8307    0.6109   -4.3192 P.3       1 GTP        -1.1062
     11 O1A         1.6235   -0.1962   -4.7447 O.co2     1 GTP         0.3195
     12 O2A         4.0553    0.7122   -5.2022 O.co2     1 GTP         0.3195
     13 O5'         3.2903    0.1346   -2.8241 O.3       1 GTP         0.1618
     14 C5'         2.2816   -0.2918   -1.9206 C.3       1 GTP         0.1504
     15 C4'         2.7248    0.0226   -0.4980 C.3       1 GTP         0.1111
     16 O4'         2.4697    1.4219   -0.2462 O.3       1 GTP        -0.1436
     17 C3'         1.9404   -0.7419    0.5596 C.3       1 GTP         0.1111
     18 O3'         2.7418   -0.8086    1.7389 O.3       1 GTP        -0.2728
     19 C2'         0.7477    0.1630    0.7858 C.3       1 GTP         0.1111
     20 O2'         0.1373   -0.0577    2.0407 O.3       1 GTP        -0.2728
     21 C1'         1.3733    1.5427    0.6747 C.3       1 GTP         0.2693
     22 N9          0.4520    2.5240    0.1767 N.pl3     1 GTP        -0.3222
     23 C8          0.2203    2.8205   -1.0970 C.ar      1 GTP         0.1640
     24 N7         -0.6947    3.7752   -1.2304 N.pl3     1 GTP        -0.3688
     25 C5         -1.0607    4.0987    0.0476 C.ar      1 GTP         0.0648
     26 C6         -2.0310    5.0839    0.5029 C.ar      1 GTP         0.3597
     27 O6         -2.6779    5.7867   -0.2609 O.2       1 GTP        -0.2755
     28 N1         -2.1030    5.0975    1.8948 N.pl3     1 GTP        -0.1604
     29 C2         -1.3422    4.2721    2.7403 C.ar      1 GTP         0.4468
     30 N2         -1.5624    4.4419    4.0823 N.pl3     1 GTP        -0.5618
     31 N3         -0.4796    3.3981    2.2792 N.2       1 GTP        -0.4283
     32 C4         -0.3754    3.3496    0.9208 C.ar      1 GTP         0.2226
     33 HOB2        0.6263    5.1220   -4.1414 H         1 GTP         0.2010
     34 H5'         1.3514    0.2330   -2.1577 H         1 GTP        -0.0393
     35 H5''        2.1280   -1.3678   -2.0460 H         1 GTP        -0.0393
     36 H4'         3.8044   -0.1397   -0.4040 H         1 GTP        -0.0393
     37 H3'         1.6764   -1.7639    0.2728 H         1 GTP        -0.0393
     38 HO3'        2.2232   -1.2979    2.3953 H         1 GTP         0.2010
     39 H2'        -0.0011    0.0027    0.0003 H         1 GTP        -0.0393
     40 HO2'       -0.6141    0.5574    2.1082 H         1 GTP         0.2010
     41 H1'         1.7826    1.9024    1.6451 H         1 GTP        -0.0393
     42 H8          0.7110    2.3472   -1.9295 H         1 GTP         0.0000
     43 HN1        -2.7504    5.7495    2.3282 H         1 GTP         0.0865
     44 HN21       -1.0467    3.8796    4.7190 H         1 GTP         0.2048
     45 HN22       -2.2294    5.1209    4.3680 H         1 GTP         0.2048
     46 H46        -1.0382    4.1687   -2.0954 H         1 GTP         0.2048
@<TRIPOS>BOND
     1    1    2 2
     2    1    3 1
     3    1    4 1
     4    1    5 1
     5    5    6 1
     6    6    7 2
     7    6    8 1
     8    6    9 1
     9    8   33 1
    10    9   10 1
    11   10   11 2
    12   10   12 1
    13   10   13 1
    14   13   14 1
    15   14   15 1
    16   14   34 1
    17   14   35 1
    18   15   16 1
    19   15   17 1
    20   15   36 1
    21   16   21 1
    22   17   18 1
    23   17   19 1
    24   17   37 1
    25   18   38 1
    26   19   20 1
    27   19   21 1
    28   19   39 1
    29   20   40 1
    30   21   22 1
    31   21   41 1
    32   22   23 ar
    33   22   32 ar
    34   23   24 ar
    35   23   42 1
    36   24   25 ar
    37   24   46 1
    38   25   26 ar
    39   25   32 ar
    40   26   27 2
    41   26   28 ar
    42   28   29 ar
    43   28   43 1
    44   29   30 1
    45   29   31 ar
    46   30   44 1
    47   30   45 1
    48   31   32 ar
@<TRIPOS>SUBSTRUCTURE
     1 GTP         1 GROUP 0 A     ****
@<TRIPOS>MOLECULE
[[[5-(2-amino-6-oxo-7,8-dihydro-1~{H}-purin-8-ylium-9-yl)-3,4-dihydroxy-tetrahydrofuran-2-yl]methoxy-oxido-phosphoryl]oxy-hydroxy-phosphoryl] phosphate
   46    48     1     0     0
SMALL
USER_CHARGES

@<TRIPOS>ATOM
      1 PG          4.6844   -1.9839   -8.3508 P.3       1 GTP        -1.1921
      2 O1G         5.4025   -3.2920   -8.0350 O.co2     1 GTP         0.3195
      3 O2G         5.6088   -0.8513   -8.7854 O.co2     1 GTP         0.3195
      4 O3G         3.4397   -2.1433   -9.2177 O.co2     1 GTP         0.3195
      5 O3B         4.1030   -1.4803   -6.8929 O.3       1 GTP         0.4672
      6 PB          3.0715   -2.1922   -5.8703 P.3       1 GTP        -0.9715
      7 O1B         1.7112   -2.4706   -6.4383 O.2       1 GTP         0.2707
      8 O2B         3.8876   -3.4998   -5.3820 O.3       1 GTP         0.0326
      9 O3A         3.0982   -1.2256   -4.5763 O.3       1 GTP         0.4672
     10 PA          2.7180    0.3539   -4.4230 P.3       1 GTP        -1.1062
     11 O1A         3.7292    1.1672   -5.2015 O.co2     1 GTP         0.3195
     12 O2A         1.2326    0.5160   -4.6616 O.co2     1 GTP         0.3195
     13 O5'         3.0213    0.5153   -2.8245 O.3       1 GTP         0.1618
     14 C5'         2.2816   -0.2918   -1.9206 C.3       1 GTP         0.1504
     15 C4'         2.7248    0.0226   -0.4980 C.3       1 GTP         0.1111
     16 O4'         2.4697    1.4219   -0.2462 O.3       1 GTP        -0.1436
     17 C3'         1.9404   -0.7419    0.5596 C.3       1 GTP         0.1111
     18 O3'         2.7418   -0.8086    1.7389 O.3       1 GTP        -0.2728
     19 C2'         0.7477    0.1630    0.7858 C.3       1 GTP         0.1111
     20 O2'         0.1373   -0.0577    2.0407 O.3       1 GTP        -0.2728
     21 C1'         1.3733    1.5427    0.6747 C.3       1 GTP         0.2693
     22 N9          0.4520    2.5240    0.1767 N.pl3     1 GTP        -0.3222
     23 C8          0.2203    2.8205   -1.0970 C.ar      1 GTP         0.1640
     24 N7         -0.6947    3.7752   -1.2304 N.pl3     1 GTP        -0.3688
     25 C5         -1.0607    4.0987    0.0476 C.ar      1 GTP         0.0648
     26 C6         -2.0310    5.0839    0.5029 C.ar      1 GTP         0.3597
     27 O6         -2.6779    5.7867   -0.2609 O.2       1 GTP        -0.2755
     28 N1         -2.1030    5.0975    1.8948 N.pl3     1 GTP        -0.1604
     29 C2         -1.3422    4.2721    2.7403 C.ar      1 GTP         0.4468
     30 N2         -1.5624    4.4419    4.0823 N.pl3     1 GTP        -0.5618
     31 N3         -0.4796    3.3981    2.2792 N.2       1 GTP        -0.4283
     32 C4         -0.3754    3.3496    0.9208 C.ar      1 GTP         0.2226
     33 HOB2        4.0954   -4.2004   -6.0363 H         1 GTP         0.2010
     34 H5'         1.2163   -0.0770   -2.0471 H         1 GTP        -0.0393
     35 H5''        2.4655   -1.3443   -2.1563 H         1 GTP        -0.0393
     36 H4'         3.8044   -0.1397   -0.4040 H         1 GTP        -0.0393
     37 H3'         1.6764   -1.7639    0.2728 H         1 GTP        -0.0393
     38 HO3'        2.2232   -1.2979    2.3953 H         1 GTP         0.2010
     39 H2'        -0.0011    0.0027    0.0003 H         1 GTP        -0.0393
     40 HO2'       -0.6141    0.5574    2.1082 H         1 GTP         0.2010
     41 H1'         1.7826    1.9024    1.6451 H         1 GTP        -0.0393
     42 H8          0.7110    2.3472   -1.9295 H         1 GTP         0.0000
     43 HN1        -2.7504    5.7495    2.3282 H         1 GTP         0.0865
     44 HN21       -1.0467    3.8796    4.7190 H         1 GTP         0.2048
     45 HN22       -2.2294    5.1209    4.3680 H         1 GTP         0.2048
     46 H46        -1.0382    4.1687   -2.0954 H         1 GTP         0.2048
@<TRIPOS>BOND
     1    1    2 2
     2    1    3 1
     3    1    4 1
     4    1    5 1
     5    5    6 1
     6    6    7 2
     7    6    8 1
     8    6    9 1
     9    8   33 1
    10    9   10 1
    11   10   11 2
    12   10   12 1
    13   10   13 1
    14   13   14 1
    15   14   15 1
    16   14   34 1
    17   14   35 1
    18   15   16 1
    19   15   17 1
    20   15   36 1
    21   16   21 1
    22   17   18 1
    23   17   19 1
    24   17   37 1
    25   18   38 1
    26   19   20 1
    27   19   21 1
    28   19   39 1
    29   20   40 1
    30   21   22 1
    31   21   41 1
    32   22   23 ar
    33   22   32 ar
    34   23   24 ar
    35   23   42 1
    36   24   25 ar
    37   24   46 1
    38   25   26 ar
    39   25   32 ar
    40   26   27 2
    41   26   28 ar
    42   28   29 ar
    43   28   43 1
    44   29   30 1
    45   29   31 ar
    46   30   44 1
    47   30   45 1
    48   31   32 ar
@<TRIPOS>SUBSTRUCTURE
     1 GTP         1 GROUP 0 A     ****
@<TRIPOS>MOLECULE
[[[5-(2-amino-6-oxo-7,8-dihydro-1~{H}-purin-8-ylium-9-yl)-3,4-dihydroxy-tetrahydrofuran-2-yl]methoxy-oxido-phosphoryl]oxy-hydroxy-phosphoryl] phosphate
   46    48     1     0     0
SMALL
USER_CHARGES

@<TRIPOS>ATOM
      1 PG          1.8260    1.2766   -6.5948 P.3       1 GTP        -1.1921
      2 O1G         0.3530    1.5636   -6.8668 O.co2     1 GTP         0.3195
      3 O2G         2.7802    1.8669   -7.6280 O.co2     1 GTP         0.3195
      4 O3G         2.2536    1.5007   -5.1481 O.co2     1 GTP         0.3195
      5 O3B         1.9672   -0.3512   -6.8132 O.3       1 GTP         0.4672
      6 PB          1.2391   -1.5802   -6.0544 P.3       1 GTP        -0.9715
      7 O1B        -0.2575   -1.5873   -6.1573 O.2       1 GTP         0.2707
      8 O2B         1.9720   -2.8790   -6.6792 O.3       1 GTP         0.0326
      9 O3A         1.8308   -1.4985   -4.5535 O.3       1 GTP         0.4672
     10 PA          1.5375   -2.4279   -3.2447 P.3       1 GTP        -1.1062
     11 O1A         0.1009   -2.2157   -2.8193 O.co2     1 GTP         0.3195
     12 O2A         2.0783   -3.8159   -3.5100 O.co2     1 GTP         0.3195
     13 O5'         2.5245   -1.6648   -2.1878 O.3       1 GTP         0.1618
     14 C5'         2.2816   -0.2918   -1.9206 C.3       1 GTP         0.1504
     15 C4'         2.7248    0.0226   -0.4980 C.3       1 GTP         0.1111
     16 O4'         2.4697    1.4219   -0.2462 O.3       1 GTP        -0.1436
     17 C3'         1.9404   -0.7419    0.5596 C.3       1 GTP         0.1111
     18 O3'         2.7418   -0.8086    1.7389 O.3       1 GTP        -0.2728
     19 C2'         0.7477    0.1630    0.7858 C.3       1 GTP         0.1111
     20 O2'         0.1373   -0.0577    2.0407 O.3       1 GTP        -0.2728
     21 C1'         1.3733    1.5427    0.6747 C.3       1 GTP         0.2693
     22 N9          0.4520    2.5240    0.1767 N.pl3     1 GTP        -0.3222
     23 C8          0.2203    2.8205   -1.0970 C.ar      1 GTP         0.1640
     24 N7         -0.6947    3.7752   -1.2304 N.pl3     1 GTP        -0.3688
     25 C5         -1.0607    4.0987    0.0476 C.ar      1 GTP         0.0648
     26 C6         -2.0310    5.0839    0.5029 C.ar      1 GTP         0.3597
     27 O6         -2.6779    5.7867   -0.2609 O.2       1 GTP        -0.2755
     28 N1         -2.1030    5.0975    1.8948 N.pl3     1 GTP        -0.1604
     29 C2         -1.3422    4.2721    2.7403 C.ar      1 GTP         0.4468
     30 N2         -1.5624    4.4419    4.0823 N.pl3     1 GTP        -0.5618
     31 N3         -0.4796    3.3981    2.2792 N.2       1 GTP        -0.4283
     32 C4         -0.3754    3.3496    0.9208 C.ar      1 GTP         0.2226
     33 HOB2        1.7612   -3.7641   -6.3128 H         1 GTP         0.2010
     34 H5'         2.8432    0.3119   -2.6398 H         1 GTP        -0.0393
     35 H5''        1.2128   -0.0927   -2.0428 H         1 GTP        -0.0393
     36 H4'         3.8044   -0.1397   -0.4040 H         1 GTP        -0.0393
     37 H3'         1.6764   -1.7639    0.2728 H         1 GTP        -0.0393
     38 HO3'        2.2232   -1.2979    2.3953 H         1 GTP         0.2010
     39 H2'        -0.0011    0.0027    0.0003 H         1 GTP        -0.0393
     40 HO2'       -0.6141    0.5574    2.1082 H         1 GTP         0.2010
     41 H1'         1.7826    1.9024    1.6451 H         1 GTP        -0.0393
     42 H8          0.7110    2.3472   -1.9295 H         1 GTP         0.0000
     43 HN1        -2.7504    5.7495    2.3282 H         1 GTP         0.0865
     44 HN21       -1.0467    3.8796    4.7190 H         1 GTP         0.2048
     45 HN22       -2.2294    5.1209    4.3680 H         1 GTP         0.2048
     46 H46        -1.0382    4.1687   -2.0954 H         1 GTP         0.2048
@<TRIPOS>BOND
     1    1    2 2
     2    1    3 1
     3    1    4 1
     4    1    5 1
     5    5    6 1
     6    6    7 2
     7    6    8 1
     8    6    9 1
     9    8   33 1
    10    9   10 1
    11   10   11 2
    12   10   12 1
    13   10   13 1
    14   13   14 1
    15   14   15 1
    16   14   34 1
    17   14   35 1
    18   15   16 1
    19   15   17 1
    20   15   36 1
    21   16   21 1
    22   17   18 1
    23   17   19 1
    24   17   37 1
    25   18   38 1
    26   19   20 1
    27   19   21 1
    28   19   39 1
    29   20   40 1
    30   21   22 1
    31   21   41 1
    32   22   23 ar
    33   22   32 ar
    34   23   24 ar
    35   23   42 1
    36   24   25 ar
    37   24   46 1
    38   25   26 ar
    39   25   32 ar
    40   26   27 2
    41   26   28 ar
    42   28   29 ar
    43   28   43 1
    44   29   30 1
    45   29   31 ar
    46   30   44 1
    47   30   45 1
    48   31   32 ar
@<TRIPOS>SUBSTRUCTURE
     1 GTP         1 GROUP 0 A     ****
@<TRIPOS>MOLECULE
[[[5-(2-amino-6-oxo-7,8-dihydro-1~{H}-purin-8-ylium-9-yl)-3,4-dihydroxy-tetrahydrofuran-2-yl]methoxy-oxido-phosphoryl]oxy-hydroxy-phosphoryl] phosphate
   46    48     1     0     0
SMALL
USER_CHARGES

@<TRIPOS>ATOM
      1 PG         -3.8917   -2.0891   -1.3735 P.3       1 GTP        -1.1921
      2 O1G        -4.4127   -1.2544   -2.5389 O.co2     1 GTP         0.3195
      3 O2G        -4.0650   -1.4338   -0.0072 O.co2     1 GTP         0.3195
      4 O3G        -4.3006   -3.5577   -1.4196 O.co2     1 GTP         0.3195
      5 O3B        -2.2582   -2.1146   -1.5936 O.3       1 GTP         0.4672
      6 PB         -1.3728   -2.6702   -2.8280 P.3       1 GTP        -0.9715
      7 O1B        -1.5435   -4.1320   -3.1190 O.2       1 GTP         0.2707
      8 O2B        -1.7786   -1.6812   -4.0409 O.3       1 GTP         0.0326
      9 O3A         0.1286   -2.2088   -2.4509 O.3       1 GTP         0.4672
     10 PA          1.5375   -2.4279   -3.2447 P.3       1 GTP        -1.1062
     11 O1A         1.8622   -3.9058   -3.2441 O.co2     1 GTP         0.3195
     12 O2A         1.4906   -1.6373   -4.5340 O.co2     1 GTP         0.3195
     13 O5'         2.5245   -1.6648   -2.1878 O.3       1 GTP         0.1618
     14 C5'         2.2816   -0.2918   -1.9206 C.3       1 GTP         0.1504
     15 C4'         2.7248    0.0226   -0.4980 C.3       1 GTP         0.1111
     16 O4'         2.4697    1.4219   -0.2462 O.3       1 GTP        -0.1436
     17 C3'         1.9404   -0.7419    0.5596 C.3       1 GTP         0.1111
     18 O3'         2.7418   -0.8086    1.7389 O.3       1 GTP        -0.2728
     19 C2'         0.7477    0.1630    0.7858 C.3       1 GTP         0.1111
     20 O2'         0.1373   -0.0577    2.0407 O.3       1 GTP        -0.2728
     21 C1'         1.3733    1.5427    0.6747 C.3       1 GTP         0.2693
     22 N9          0.4520    2.5240    0.1767 N.pl3     1 GTP        -0.3222
     23 C8          0.2203    2.8205   -1.0970 C.ar      1 GTP         0.1640
     24 N7         -0.6947    3.7752   -1.2304 N.pl3     1 GTP        -0.3688
     25 C5         -1.0607    4.0987    0.0476 C.ar      1 GTP         0.0648
     26 C6         -2.0310    5.0839    0.5029 C.ar      1 GTP         0.3597
     27 O6         -2.6779    5.7867   -0.2609 O.2       1 GTP        -0.2755
     28 N1         -2.1030    5.0975    1.8948 N.pl3     1 GTP        -0.1604
     29 C2         -1.3422    4.2721    2.7403 C.ar      1 GTP         0.4468
     30 N2         -1.5624    4.4419    4.0823 N.pl3     1 GTP        -0.5618
     31 N3         -0.4796    3.3981    2.2792 N.2       1 GTP        -0.4283
     32 C4         -0.3754    3.3496    0.9208 C.ar      1 GTP         0.2226
     33 HOB2       -1.3045   -1.7606   -4.8960 H         1 GTP         0.2010
     34 H5'         2.8432    0.3119   -2.6398 H         1 GTP        -0.0393
     35 H5''        1.2128   -0.0927   -2.0428 H         1 GTP        -0.0393
     36 H4'         3.8044   -0.1397   -0.4040 H         1 GTP        -0.0393
     37 H3'         1.6764   -1.7639    0.2728 H         1 GTP        -0.0393
     38 HO3'        2.2232   -1.2979    2.3953 H         1 GTP         0.2010
     39 H2'        -0.0011    0.0027    0.0003 H         1 GTP        -0.0393
     40 HO2'       -0.6141    0.5574    2.1082 H         1 GTP         0.2010
     41 H1'         1.7826    1.9024    1.6451 H         1 GTP        -0.0393
     42 H8          0.7110    2.3472   -1.9295 H         1 GTP         0.0000
     43 HN1        -2.7504    5.7495    2.3282 H         1 GTP         0.0865
     44 HN21       -1.0467    3.8796    4.7190 H         1 GTP         0.2048
     45 HN22       -2.2294    5.1209    4.3680 H         1 GTP         0.2048
     46 H46        -1.0382    4.1687   -2.0954 H         1 GTP         0.2048
@<TRIPOS>BOND
     1    1    2 2
     2    1    3 1
     3    1    4 1
     4    1    5 1
     5    5    6 1
     6    6    7 2
     7    6    8 1
     8    6    9 1
     9    8   33 1
    10    9   10 1
    11   10   11 2
    12   10   12 1
    13   10   13 1
    14   13   14 1
    15   14   15 1
    16   14   34 1
    17   14   35 1
    18   15   16 1
    19   15   17 1
    20   15   36 1
    21   16   21 1
    22   17   18 1
    23   17   19 1
    24   17   37 1
    25   18   38 1
    26   19   20 1
    27   19   21 1
    28   19   39 1
    29   20   40 1
    30   21   22 1
    31   21   41 1
    32   22   23 ar
    33   22   32 ar
    34   23   24 ar
    35   23   42 1
    36   24   25 ar
    37   24   46 1
    38   25   26 ar
    39   25   32 ar
    40   26   27 2
    41   26   28 ar
    42   28   29 ar
    43   28   43 1
    44   29   30 1
    45   29   31 ar
    46   30   44 1
    47   30   45 1
    48   31   32 ar
@<TRIPOS>SUBSTRUCTURE
     1 GTP         1 GROUP 0 A     ****
@<TRIPOS>MOLECULE
[[[5-(2-amino-6-oxo-7,8-dihydro-1~{H}-purin-8-ylium-9-yl)-3,4-dihydroxy-tetrahydrofuran-2-yl]methoxy-oxido-phosphoryl]oxy-hydroxy-phosphoryl] phosphate
   46    48     1     0     0
SMALL
USER_CHARGES

@<TRIPOS>ATOM
      1 PG          0.7896   -2.7895   -7.6686 P.3       1 GTP        -1.1921
      2 O1G         1.4887   -2.1067   -8.8396 O.co2     1 GTP         0.3195
      3 O2G        -0.6750   -2.3987   -7.4996 O.co2     1 GTP         0.3195
      4 O3G         1.0532   -4.2882   -7.5661 O.co2     1 GTP         0.3195
      5 O3B         1.5227   -2.1555   -6.3352 O.3       1 GTP         0.4672
      6 PB          3.0715   -2.1922   -5.8703 P.3       1 GTP        -0.9715
      7 O1B         3.6344   -3.5667   -5.6592 O.2       1 GTP         0.2707
      8 O2B         3.8142   -1.3183   -7.0100 O.3       1 GTP         0.0326
      9 O3A         3.0982   -1.2256   -4.5763 O.3       1 GTP         0.4672
     10 PA          2.7180    0.3539   -4.4230 P.3       1 GTP        -1.1062
     11 O1A         3.7292    1.1672   -5.2015 O.co2     1 GTP         0.3195
     12 O2A         1.2326    0.5160   -4.6616 O.co2     1 GTP         0.3195
     13 O5'         3.0213    0.5153   -2.8245 O.3       1 GTP         0.1618
     14 C5'         2.2816   -0.2918   -1.9206 C.3       1 GTP         0.1504
     15 C4'         2.7248    0.0226   -0.4980 C.3       1 GTP         0.1111
     16 O4'         2.4697    1.4219   -0.2462 O.3       1 GTP        -0.1436
     17 C3'         1.9404   -0.7419    0.5596 C.3       1 GTP         0.1111
     18 O3'         2.7418   -0.8086    1.7389 O.3       1 GTP        -0.2728
     19 C2'         0.7477    0.1630    0.7858 C.3       1 GTP         0.1111
     20 O2'         0.1373   -0.0577    2.0407 O.3       1 GTP        -0.2728
     21 C1'         1.3733    1.5427    0.6747 C.3       1 GTP         0.2693
     22 N9          0.4520    2.5240    0.1767 N.pl3     1 GTP        -0.3222
     23 C8          0.2203    2.8205   -1.0970 C.ar      1 GTP         0.1640
     24 N7         -0.6947    3.7752   -1.2304 N.pl3     1 GTP        -0.3688
     25 C5         -1.0607    4.0987    0.0476 C.ar      1 GTP         0.0648
     26 C6         -2.0310    5.0839    0.5029 C.ar      1 GTP         0.3597
     27 O6         -2.6779    5.7867   -0.2609 O.2       1 GTP        -0.2755
     28 N1         -2.1030    5.0975    1.8948 N.pl3     1 GTP        -0.1604
     29 C2         -1.3422    4.2721    2.7403 C.ar      1 GTP         0.4468
     30 N2         -1.5624    4.4419    4.0823 N.pl3     1 GTP        -0.5618
     31 N3         -0.4796    3.3981    2.2792 N.2       1 GTP        -0.4283
     32 C4         -0.3754    3.3496    0.9208 C.ar      1 GTP         0.2226
     33 HOB2        4.7689   -1.1182   -6.9067 H         1 GTP         0.2010
     34 H5'         1.2163   -0.0770   -2.0471 H         1 GTP        -0.0393
     35 H5''        2.4655   -1.3443   -2.1563 H         1 GTP        -0.0393
     36 H4'         3.8044   -0.1397   -0.4040 H         1 GTP        -0.0393
     37 H3'         1.6764   -1.7639    0.2728 H         1 GTP        -0.0393
     38 HO3'        2.2232   -1.2979    2.3953 H         1 GTP         0.2010
     39 H2'        -0.0011    0.0027    0.0003 H         1 GTP        -0.0393
     40 HO2'       -0.6141    0.5574    2.1082 H         1 GTP         0.2010
     41 H1'         1.7826    1.9024    1.6451 H         1 GTP        -0.0393
     42 H8          0.7110    2.3472   -1.9295 H         1 GTP         0.0000
     43 HN1        -2.7504    5.7495    2.3282 H         1 GTP         0.0865
     44 HN21       -1.0467    3.8796    4.7190 H         1 GTP         0.2048
     45 HN22       -2.2294    5.1209    4.3680 H         1 GTP         0.2048
     46 H46        -1.0382    4.1687   -2.0954 H         1 GTP         0.2048
@<TRIPOS>BOND
     1    1    2 2
     2    1    3 1
     3    1    4 1
     4    1    5 1
     5    5    6 1
     6    6    7 2
     7    6    8 1
     8    6    9 1
     9    8   33 1
    10    9   10 1
    11   10   11 2
    12   10   12 1
    13   10   13 1
    14   13   14 1
    15   14   15 1
    16   14   34 1
    17   14   35 1
    18   15   16 1
    19   15   17 1
    20   15   36 1
    21   16   21 1
    22   17   18 1
    23   17   19 1
    24   17   37 1
    25   18   38 1
    26   19   20 1
    27   19   21 1
    28   19   39 1
    29   20   40 1
    30   21   22 1
    31   21   41 1
    32   22   23 ar
    33   22   32 ar
    34   23   24 ar
    35   23   42 1
    36   24   25 ar
    37   24   46 1
    38   25   26 ar
    39   25   32 ar
    40   26   27 2
    41   26   28 ar
    42   28   29 ar
    43   28   43 1
    44   29   30 1
    45   29   31 ar
    46   30   44 1
    47   30   45 1
    48   31   32 ar
@<TRIPOS>SUBSTRUCTURE
     1 GTP         1 GROUP 0 A     ****
@<TRIPOS>MOLECULE
[[[5-(2-amino-6-oxo-7,8-dihydro-1~{H}-purin-8-ylium-9-yl)-3,4-dihydroxy-tetrahydrofuran-2-yl]methoxy-oxido-phosphoryl]oxy-hydroxy-phosphoryl] phosphate
   46    48     1     0     0
SMALL
USER_CHARGES

@<TRIPOS>ATOM
      1 PG         -2.4304   -5.4273   -3.1070 P.3       1 GTP        -1.1921
      2 O1G        -3.3489   -5.2338   -1.9048 O.co2     1 GTP         0.3195
      3 O2G        -1.6572   -6.7420   -3.0990 O.co2     1 GTP         0.3195
      4 O3G        -3.0703   -5.0858   -4.4486 O.co2     1 GTP         0.3195
      5 O3B        -1.2614   -4.2818   -2.9105 O.3       1 GTP         0.4672
      6 PB         -1.3728   -2.6702   -2.8280 P.3       1 GTP        -0.9715
      7 O1B        -1.9620   -2.0156   -4.0424 O.2       1 GTP         0.2707
      8 O2B        -2.1966   -2.4323   -1.4572 O.3       1 GTP         0.0326
      9 O3A         0.1286   -2.2088   -2.4509 O.3       1 GTP         0.4672
     10 PA          1.5375   -2.4279   -3.2447 P.3       1 GTP        -1.1062
     11 O1A         1.8622   -3.9058   -3.2441 O.co2     1 GTP         0.3195
     12 O2A         1.4906   -1.6373   -4.5340 O.co2     1 GTP         0.3195
     13 O5'         2.5245   -1.6648   -2.1878 O.3       1 GTP         0.1618
     14 C5'         2.2816   -0.2918   -1.9206 C.3       1 GTP         0.1504
     15 C4'         2.7248    0.0226   -0.4980 C.3       1 GTP         0.1111
     16 O4'         2.4697    1.4219   -0.2462 O.3       1 GTP        -0.1436
     17 C3'         1.9404   -0.7419    0.5596 C.3       1 GTP         0.1111
     18 O3'         2.7418   -0.8086    1.7389 O.3       1 GTP        -0.2728
     19 C2'         0.7477    0.1630    0.7858 C.3       1 GTP         0.1111
     20 O2'         0.1373   -0.0577    2.0407 O.3       1 GTP        -0.2728
     21 C1'         1.3733    1.5427    0.6747 C.3       1 GTP         0.2693
     22 N9          0.4520    2.5240    0.1767 N.pl3     1 GTP        -0.3222
     23 C8          0.2203    2.8205   -1.0970 C.ar      1 GTP         0.1640
     24 N7         -0.6947    3.7752   -1.2304 N.pl3     1 GTP        -0.3688
     25 C5         -1.0607    4.0987    0.0476 C.ar      1 GTP         0.0648
     26 C6         -2.0310    5.0839    0.5029 C.ar      1 GTP         0.3597
     27 O6         -2.6779    5.7867   -0.2609 O.2       1 GTP        -0.2755
     28 N1         -2.1030    5.0975    1.8948 N.pl3     1 GTP        -0.1604
     29 C2         -1.3422    4.2721    2.7403 C.ar      1 GTP         0.4468
     30 N2         -1.5624    4.4419    4.0823 N.pl3     1 GTP        -0.5618
     31 N3         -0.4796    3.3981    2.2792 N.2       1 GTP        -0.4283
     32 C4         -0.3754    3.3496    0.9208 C.ar      1 GTP         0.2226
     33 HOB2       -2.3247   -1.5149   -1.1345 H         1 GTP         0.2010
     34 H5'         2.8432    0.3119   -2.6398 H         1 GTP        -0.0393
     35 H5''        1.2128   -0.0927   -2.0428 H         1 GTP        -0.0393
     36 H4'         3.8044   -0.1397   -0.4040 H         1 GTP        -0.0393
     37 H3'         1.6764   -1.7639    0.2728 H         1 GTP        -0.0393
     38 HO3'        2.2232   -1.2979    2.3953 H         1 GTP         0.2010
     39 H2'        -0.0011    0.0027    0.0003 H         1 GTP        -0.0393
     40 HO2'       -0.6141    0.5574    2.1082 H         1 GTP         0.2010
     41 H1'         1.7826    1.9024    1.6451 H         1 GTP        -0.0393
     42 H8          0.7110    2.3472   -1.9295 H         1 GTP         0.0000
     43 HN1        -2.7504    5.7495    2.3282 H         1 GTP         0.0865
     44 HN21       -1.0467    3.8796    4.7190 H         1 GTP         0.2048
     45 HN22       -2.2294    5.1209    4.3680 H         1 GTP         0.2048
     46 H46        -1.0382    4.1687   -2.0954 H         1 GTP         0.2048
@<TRIPOS>BOND
     1    1    2 2
     2    1    3 1
     3    1    4 1
     4    1    5 1
     5    5    6 1
     6    6    7 2
     7    6    8 1
     8    6    9 1
     9    8   33 1
    10    9   10 1
    11   10   11 2
    12   10   12 1
    13   10   13 1
    14   13   14 1
    15   14   15 1
    16   14   34 1
    17   14   35 1
    18   15   16 1
    19   15   17 1
    20   15   36 1
    21   16   21 1
    22   17   18 1
    23   17   19 1
    24   17   37 1
    25   18   38 1
    26   19   20 1
    27   19   21 1
    28   19   39 1
    29   20   40 1
    30   21   22 1
    31   21   41 1
    32   22   23 ar
    33   22   32 ar
    34   23   24 ar
    35   23   42 1
    36   24   25 ar
    37   24   46 1
    38   25   26 ar
    39   25   32 ar
    40   26   27 2
    41   26   28 ar
    42   28   29 ar
    43   28   43 1
    44   29   30 1
    45   29   31 ar
    46   30   44 1
    47   30   45 1
    48   31   32 ar
@<TRIPOS>SUBSTRUCTURE
     1 GTP         1 GROUP 0 A     ****
@<TRIPOS>MOLECULE
[[[5-(2-amino-6-oxo-7,8-dihydro-1~{H}-purin-8-ylium-9-yl)-3,4-dihydroxy-tetrahydrofuran-2-yl]methoxy-oxido-phosphoryl]oxy-hydroxy-phosphoryl] phosphate
   46    48     1     0     0
SMALL
USER_CHARGES

@<TRIPOS>ATOM
      1 PG         -0.0623    4.6973   -6.3415 P.3       1 GTP        -1.1921
      2 O1G        -0.6603    3.7959   -7.4167 O.co2     1 GTP         0.3195
      3 O2G         1.1580    5.4908   -6.7973 O.co2     1 GTP         0.3195
      4 O3G        -1.0883    5.5175   -5.5666 O.co2     1 GTP         0.3195
      5 O3B         0.5453    3.6469   -5.2259 O.3       1 GTP         0.4672
      6 PB         -0.1921    2.5112   -4.3411 P.3       1 GTP        -0.9715
      7 O1B        -1.2710    3.0215   -3.4321 O.2       1 GTP         0.2707
      8 O2B        -0.6843    1.4461   -5.4534 O.3       1 GTP         0.0326
      9 O3A         1.0314    1.7530   -3.6079 O.3       1 GTP         0.4672
     10 PA          2.3065    0.9470   -4.2302 P.3       1 GTP        -1.1062
     11 O1A         1.7942   -0.2957   -4.9251 O.co2     1 GTP         0.3195
     12 O2A         3.1953    1.9368   -4.9513 O.co2     1 GTP         0.3195
     13 O5'         3.0213    0.5153   -2.8245 O.3       1 GTP         0.1618
     14 C5'         2.2816   -0.2918   -1.9206 C.3       1 GTP         0.1504
     15 C4'         2.7248    0.0226   -0.4980 C.3       1 GTP         0.1111
     16 O4'         2.4697    1.4219   -0.2462 O.3       1 GTP        -0.1436
     17 C3'         1.9404   -0.7419    0.5596 C.3       1 GTP         0.1111
     18 O3'         2.7418   -0.8086    1.7389 O.3       1 GTP        -0.2728
     19 C2'         0.7477    0.1630    0.7858 C.3       1 GTP         0.1111
     20 O2'         0.1373   -0.0577    2.0407 O.3       1 GTP        -0.2728
     21 C1'         1.3733    1.5427    0.6747 C.3       1 GTP         0.2693
     22 N9          0.4520    2.5240    0.1767 N.pl3     1 GTP        -0.3222
     23 C8         -0.8613    2.5511    0.3730 C.ar      1 GTP         0.1640
     24 N7         -1.4346    3.5939   -0.2188 N.pl3     1 GTP        -0.3688
     25 C5         -0.4099    4.2657   -0.8276 C.ar      1 GTP         0.0648
     26 C6         -0.4554    5.4854   -1.6209 C.ar      1 GTP         0.3597
     27 O6         -1.4907    6.0944   -1.8508 O.2       1 GTP        -0.2755
     28 N1          0.8205    5.8357   -2.0593 N.pl3     1 GTP        -0.1604
     29 C2          1.9890    5.1091   -1.7730 C.ar      1 GTP         0.4468
     30 N2          3.1452    5.6230   -2.2997 N.pl3     1 GTP        -0.5618
     31 N3          1.9765    4.0139   -1.0514 N.2       1 GTP        -0.4283
     32 C4          0.7480    3.6324   -0.6003 C.ar      1 GTP         0.2226
     33 HOB2       -1.0946    0.6060   -5.1563 H         1 GTP         0.2010
     34 H5'         1.2163   -0.0770   -2.0471 H         1 GTP        -0.0393
     35 H5''        2.4655   -1.3443   -2.1563 H         1 GTP        -0.0393
     36 H4'         3.8044   -0.1397   -0.4040 H         1 GTP        -0.0393
     37 H3'         1.6764   -1.7639    0.2728 H         1 GTP        -0.0393
     38 HO3'        2.2232   -1.2979    2.3953 H         1 GTP         0.2010
     39 H2'        -0.0011    0.0027    0.0003 H         1 GTP        -0.0393
     40 HO2'       -0.1563   -0.9855    2.0596 H         1 GTP         0.2010
     41 H1'         1.7826    1.9024    1.6451 H         1 GTP        -0.0393
     42 H8         -1.4050    1.8187    0.9438 H         1 GTP         0.0000
     43 HN1         0.9121    6.6744   -2.6251 H         1 GTP         0.0865
     44 HN21        3.9971    5.1427   -2.1235 H         1 GTP         0.2048
     45 HN22        3.0881    6.4564   -2.8380 H         1 GTP         0.2048
     46 H46        -2.4173    3.8294   -0.2127 H         1 GTP         0.2048
@<TRIPOS>BOND
     1    1    2 2
     2    1    3 1
     3    1    4 1
     4    1    5 1
     5    5    6 1
     6    6    7 2
     7    6    8 1
     8    6    9 1
     9    8   33 1
    10    9   10 1
    11   10   11 2
    12   10   12 1
    13   10   13 1
    14   13   14 1
    15   14   15 1
    16   14   34 1
    17   14   35 1
    18   15   16 1
    19   15   17 1
    20   15   36 1
    21   16   21 1
    22   17   18 1
    23   17   19 1
    24   17   37 1
    25   18   38 1
    26   19   20 1
    27   19   21 1
    28   19   39 1
    29   20   40 1
    30   21   22 1
    31   21   41 1
    32   22   23 ar
    33   22   32 ar
    34   23   24 ar
    35   23   42 1
    36   24   25 ar
    37   24   46 1
    38   25   26 ar
    39   25   32 ar
    40   26   27 2
    41   26   28 ar
    42   28   29 ar
    43   28   43 1
    44   29   30 1
    45   29   31 ar
    46   30   44 1
    47   30   45 1
    48   31   32 ar
@<TRIPOS>SUBSTRUCTURE
     1 GTP         1 GROUP 0 A     ****
@<TRIPOS>MOLECULE
[[[5-(2-amino-6-oxo-7,8-dihydro-1~{H}-purin-8-ylium-9-yl)-3,4-dihydroxy-tetrahydrofuran-2-yl]methoxy-oxido-phosphoryl]oxy-hydroxy-phosphoryl] phosphate
   46    48     1     0     0
SMALL
USER_CHARGES

@<TRIPOS>ATOM
      1 PG          7.7506   -1.9692   -2.9736 P.3       1 GTP        -1.1921
      2 O1G         8.6720   -1.3876   -4.0408 O.co2     1 GTP         0.3195
      3 O2G         8.3541   -3.1307   -2.1907 O.co2     1 GTP         0.3195
      4 O3G         7.0547   -0.9249   -2.1068 O.co2     1 GTP         0.3195
      5 O3B         6.5278   -2.6659   -3.8318 O.3       1 GTP         0.4672
      6 PB          5.4717   -2.0176   -4.8715 P.3       1 GTP        -0.9715
      7 O1B         6.0889   -1.3656   -6.0733 O.2       1 GTP         0.2707
      8 O2B         4.4794   -3.2514   -5.1988 O.3       1 GTP         0.0326
      9 O3A         4.5749   -1.0487   -3.9406 O.3       1 GTP         0.4672
     10 PA          3.3181   -0.0790   -4.3186 P.3       1 GTP        -1.1062
     11 O1A         3.8255    1.0395   -5.2024 O.co2     1 GTP         0.3195
     12 O2A         2.1532   -0.9459   -4.7443 O.co2     1 GTP         0.3195
     13 O5'         3.0213    0.5153   -2.8245 O.3       1 GTP         0.1618
     14 C5'         2.2816   -0.2918   -1.9206 C.3       1 GTP         0.1504
     15 C4'         2.7248    0.0226   -0.4980 C.3       1 GTP         0.1111
     16 O4'         2.4697    1.4219   -0.2462 O.3       1 GTP        -0.1436
     17 C3'         1.9404   -0.7419    0.5596 C.3       1 GTP         0.1111
     18 O3'         2.7418   -0.8086    1.7389 O.3       1 GTP        -0.2728
     19 C2'         0.7477    0.1630    0.7858 C.3       1 GTP         0.1111
     20 O2'         0.1373   -0.0577    2.0407 O.3       1 GTP        -0.2728
     21 C1'         1.3733    1.5427    0.6747 C.3       1 GTP         0.2693
     22 N9          0.4520    2.5240    0.1767 N.pl3     1 GTP        -0.3222
     23 C8          0.2203    2.8205   -1.0970 C.ar      1 GTP         0.1640
     24 N7         -0.6947    3.7752   -1.2304 N.pl3     1 GTP        -0.3688
     25 C5         -1.0607    4.0987    0.0476 C.ar      1 GTP         0.0648
     26 C6         -2.0310    5.0839    0.5029 C.ar      1 GTP         0.3597
     27 O6         -2.6779    5.7867   -0.2609 O.2       1 GTP        -0.2755
     28 N1         -2.1030    5.0975    1.8948 N.pl3     1 GTP        -0.1604
     29 C2         -1.3422    4.2721    2.7403 C.ar      1 GTP         0.4468
     30 N2         -1.5624    4.4419    4.0823 N.pl3     1 GTP        -0.5618
     31 N3         -0.4796    3.3981    2.2792 N.2       1 GTP        -0.4283
     32 C4         -0.3754    3.3496    0.9208 C.ar      1 GTP         0.2226
     33 HOB2        3.6870   -3.0880   -5.7534 H         1 GTP         0.2010
     34 H5'         1.2163   -0.0770   -2.0471 H         1 GTP        -0.0393
     35 H5''        2.4655   -1.3443   -2.1563 H         1 GTP        -0.0393
     36 H4'         3.8044   -0.1397   -0.4040 H         1 GTP        -0.0393
     37 H3'         1.6764   -1.7639    0.2728 H         1 GTP        -0.0393
     38 HO3'        2.2232   -1.2979    2.3953 H         1 GTP         0.2010
     39 H2'        -0.0011    0.0027    0.0003 H         1 GTP        -0.0393
     40 HO2'       -0.1563   -0.9855    2.0596 H         1 GTP         0.2010
     41 H1'         1.7826    1.9024    1.6451 H         1 GTP        -0.0393
     42 H8          0.7110    2.3472   -1.9295 H         1 GTP         0.0000
     43 HN1        -2.7504    5.7495    2.3282 H         1 GTP         0.0865
     44 HN21       -1.0467    3.8796    4.7190 H         1 GTP         0.2048
     45 HN22       -2.2294    5.1209    4.3680 H         1 GTP         0.2048
     46 H46        -1.0382    4.1687   -2.0954 H         1 GTP         0.2048
@<TRIPOS>BOND
     1    1    2 2
     2    1    3 1
     3    1    4 1
     4    1    5 1
     5    5    6 1
     6    6    7 2
     7    6    8 1
     8    6    9 1
     9    8   33 1
    10    9   10 1
    11   10   11 2
    12   10   12 1
    13   10   13 1
    14   13   14 1
    15   14   15 1
    16   14   34 1
    17   14   35 1
    18   15   16 1
    19   15   17 1
    20   15   36 1
    21   16   21 1
    22   17   18 1
    23   17   19 1
    24   17   37 1
    25   18   38 1
    26   19   20 1
    27   19   21 1
    28   19   39 1
    29   20   40 1
    30   21   22 1
    31   21   41 1
    32   22   23 ar
    33   22   32 ar
    34   23   24 ar
    35   23   42 1
    36   24   25 ar
    37   24   46 1
    38   25   26 ar
    39   25   32 ar
    40   26   27 2
    41   26   28 ar
    42   28   29 ar
    43   28   43 1
    44   29   30 1
    45   29   31 ar
    46   30   44 1
    47   30   45 1
    48   31   32 ar
@<TRIPOS>SUBSTRUCTURE
     1 GTP         1 GROUP 0 A     ****
@<TRIPOS>MOLECULE
[[[5-(2-amino-6-oxo-7,8-dihydro-1~{H}-purin-8-ylium-9-yl)-3,4-dihydroxy-tetrahydrofuran-2-yl]methoxy-oxido-phosphoryl]oxy-hydroxy-phosphoryl] phosphate
   46    48     1     0     0
SMALL
USER_CHARGES

@<TRIPOS>ATOM
      1 PG          2.7284    5.7806   -5.4213 P.3       1 GTP        -1.1921
      2 O1G         1.3423    5.7079   -6.0535 O.co2     1 GTP         0.3195
      3 O2G         3.8773    5.6181   -6.4111 O.co2     1 GTP         0.3195
      4 O3G         2.9101    6.9295   -4.4348 O.co2     1 GTP         0.3195
      5 O3B         2.8181    4.4249   -4.4879 O.3       1 GTP         0.4672
      6 PB          1.9048    3.9445   -3.2423 P.3       1 GTP        -0.9715
      7 O1B         1.8927    4.8812   -2.0706 O.2       1 GTP         0.2707
      8 O2B         0.4622    3.6887   -3.9263 O.3       1 GTP         0.0326
      9 O3A         2.4454    2.4540   -2.9331 O.3       1 GTP         0.4672
     10 PA          2.8924    1.2553   -3.9461 P.3       1 GTP        -1.1062
     11 O1A         1.6680    0.7849   -4.7006 O.co2     1 GTP         0.3195
     12 O2A         4.1449    1.6865   -4.6776 O.co2     1 GTP         0.3195
     13 O5'         3.2903    0.1346   -2.8241 O.3       1 GTP         0.1618
     14 C5'         2.2816   -0.2918   -1.9206 C.3       1 GTP         0.1504
     15 C4'         2.7248    0.0226   -0.4980 C.3       1 GTP         0.1111
     16 O4'         2.4697    1.4219   -0.2462 O.3       1 GTP        -0.1436
     17 C3'         1.9404   -0.7419    0.5596 C.3       1 GTP         0.1111
     18 O3'         2.7418   -0.8086    1.7389 O.3       1 GTP        -0.2728
     19 C2'         0.7477    0.1630    0.7858 C.3       1 GTP         0.1111
     20 O2'         0.1373   -0.0577    2.0407 O.3       1 GTP        -0.2728
     21 C1'         1.3733    1.5427    0.6747 C.3       1 GTP         0.2693
     22 N9          0.4520    2.5240    0.1767 N.pl3     1 GTP        -0.3222
     23 C8         -0.2009    2.4849   -0.9792 C.ar      1 GTP         0.1640
     24 N7         -0.9840    3.5454   -1.1481 N.pl3     1 GTP        -0.3688
     25 C5         -0.8090    4.3005   -0.0206 C.ar      1 GTP         0.0648
     26 C6         -1.4206    5.5724    0.3362 C.ar      1 GTP         0.3597
     27 O6         -2.2199    6.1544   -0.3836 O.2       1 GTP        -0.2755
     28 N1         -0.9680    6.0043    1.5817 N.pl3     1 GTP        -0.1604
     29 C2         -0.0474    5.3055    2.3814 C.ar      1 GTP         0.4468
     30 N2          0.2680    5.9024    3.5740 N.pl3     1 GTP        -0.5618
     31 N3          0.4755    4.1601    2.0138 N.2       1 GTP        -0.4283
     32 C4          0.0611    3.6981    0.8001 C.ar      1 GTP         0.2226
     33 HOB2       -0.0274    4.4524   -4.2995 H         1 GTP         0.2010
     34 H5'         1.3514    0.2330   -2.1577 H         1 GTP        -0.0393
     35 H5''        2.1280   -1.3678   -2.0460 H         1 GTP        -0.0393
     36 H4'         3.8044   -0.1397   -0.4040 H         1 GTP        -0.0393
     37 H3'         1.6764   -1.7639    0.2728 H         1 GTP        -0.0393
     38 HO3'        2.2232   -1.2979    2.3953 H         1 GTP         0.2010
     39 H2'        -0.0011    0.0027    0.0003 H         1 GTP        -0.0393
     40 HO2'       -0.6141    0.5574    2.1082 H         1 GTP         0.2010
     41 H1'         1.7826    1.9024    1.6451 H         1 GTP        -0.0393
     42 H8         -0.1126    1.6906   -1.6997 H         1 GTP         0.0000
     43 HN1        -1.3285    6.8855    1.9361 H         1 GTP         0.0865
     44 HN21        0.9153    5.4446    4.1732 H         1 GTP         0.2048
     45 HN22       -0.1624    6.7706    3.7948 H         1 GTP         0.2048
     46 H46        -1.5768    3.7405   -1.9429 H         1 GTP         0.2048
@<TRIPOS>BOND
     1    1    2 2
     2    1    3 1
     3    1    4 1
     4    1    5 1
     5    5    6 1
     6    6    7 2
     7    6    8 1
     8    6    9 1
     9    8   33 1
    10    9   10 1
    11   10   11 2
    12   10   12 1
    13   10   13 1
    14   13   14 1
    15   14   15 1
    16   14   34 1
    17   14   35 1
    18   15   16 1
    19   15   17 1
    20   15   36 1
    21   16   21 1
    22   17   18 1
    23   17   19 1
    24   17   37 1
    25   18   38 1
    26   19   20 1
    27   19   21 1
    28   19   39 1
    29   20   40 1
    30   21   22 1
    31   21   41 1
    32   22   23 ar
    33   22   32 ar
    34   23   24 ar
    35   23   42 1
    36   24   25 ar
    37   24   46 1
    38   25   26 ar
    39   25   32 ar
    40   26   27 2
    41   26   28 ar
    42   28   29 ar
    43   28   43 1
    44   29   30 1
    45   29   31 ar
    46   30   44 1
    47   30   45 1
    48   31   32 ar
@<TRIPOS>SUBSTRUCTURE
     1 GTP         1 GROUP 0 A     ****
@<TRIPOS>MOLECULE
[[[5-(2-amino-6-oxo-7,8-dihydro-1~{H}-purin-8-ylium-9-yl)-3,4-dihydroxy-tetrahydrofuran-2-yl]methoxy-oxido-phosphoryl]oxy-hydroxy-phosphoryl] phosphate
   46    48     1     0     0
SMALL
USER_CHARGES

@<TRIPOS>ATOM
      1 PG          0.2948   -3.4131   -5.2108 P.3       1 GTP        -1.1921
      2 O1G         0.9992   -4.7601   -5.0856 O.co2     1 GTP         0.3195
      3 O2G        -1.0149   -3.4616   -5.9910 O.co2     1 GTP         0.3195
      4 O3G         0.2195   -2.6196   -3.9105 O.co2     1 GTP         0.3195
      5 O3B         1.2938   -2.5228   -6.1734 O.3       1 GTP         0.4672
      6 PB          2.8348   -2.0785   -5.9625 P.3       1 GTP        -0.9715
      7 O1B         3.8050   -3.2140   -5.8213 O.2       1 GTP         0.2707
      8 O2B         3.1070   -1.1010   -7.2213 O.3       1 GTP         0.0326
      9 O3A         2.7650   -1.0656   -4.7061 O.3       1 GTP         0.4672
     10 PA          3.9458   -0.2356   -3.9447 P.3       1 GTP        -1.1062
     11 O1A         4.8553   -1.2258   -3.2504 O.co2     1 GTP         0.3195
     12 O2A         4.4992    0.7987   -4.9005 O.co2     1 GTP         0.3195
     13 O5'         3.0213    0.5153   -2.8245 O.3       1 GTP         0.1618
     14 C5'         2.2816   -0.2918   -1.9206 C.3       1 GTP         0.1504
     15 C4'         2.7248    0.0226   -0.4980 C.3       1 GTP         0.1111
     16 O4'         2.4697    1.4219   -0.2462 O.3       1 GTP        -0.1436
     17 C3'         1.9404   -0.7419    0.5596 C.3       1 GTP         0.1111
     18 O3'         2.7418   -0.8086    1.7389 O.3       1 GTP        -0.2728
     19 C2'         0.7477    0.1630    0.7858 C.3       1 GTP         0.1111
     20 O2'         0.1373   -0.0577    2.0407 O.3       1 GTP        -0.2728
     21 C1'         1.3733    1.5427    0.6747 C.3       1 GTP         0.2693
     22 N9          0.4520    2.5240    0.1767 N.pl3     1 GTP        -0.3222
     23 C8          0.2203    2.8205   -1.0970 C.ar      1 GTP         0.1640
     24 N7         -0.6947    3.7752   -1.2304 N.pl3     1 GTP        -0.3688
     25 C5         -1.0607    4.0987    0.0476 C.ar      1 GTP         0.0648
     26 C6         -2.0310    5.0839    0.5029 C.ar      1 GTP         0.3597
     27 O6         -2.6779    5.7867   -0.2609 O.2       1 GTP        -0.2755
     28 N1         -2.1030    5.0975    1.8948 N.pl3     1 GTP        -0.1604
     29 C2         -1.3422    4.2721    2.7403 C.ar      1 GTP         0.4468
     30 N2         -1.5624    4.4419    4.0823 N.pl3     1 GTP        -0.5618
     31 N3         -0.4796    3.3981    2.2792 N.2       1 GTP        -0.4283
     32 C4         -0.3754    3.3496    0.9208 C.ar      1 GTP         0.2226
     33 HOB2        3.9636   -0.6260   -7.2759 H         1 GTP         0.2010
     34 H5'         1.2163   -0.0770   -2.0471 H         1 GTP        -0.0393
     35 H5''        2.4655   -1.3443   -2.1563 H         1 GTP        -0.0393
     36 H4'         3.8044   -0.1397   -0.4040 H         1 GTP        -0.0393
     37 H3'         1.6764   -1.7639    0.2728 H         1 GTP        -0.0393
     38 HO3'        2.2232   -1.2979    2.3953 H         1 GTP         0.2010
     39 H2'        -0.0011    0.0027    0.0003 H         1 GTP        -0.0393
     40 HO2'       -0.6141    0.5574    2.1082 H         1 GTP         0.2010
     41 H1'         1.7826    1.9024    1.6451 H         1 GTP        -0.0393
     42 H8          0.7110    2.3472   -1.9295 H         1 GTP         0.0000
     43 HN1        -2.7504    5.7495    2.3282 H         1 GTP         0.0865
     44 HN21       -1.0467    3.8796    4.7190 H         1 GTP         0.2048
     45 HN22       -2.2294    5.1209    4.3680 H         1 GTP         0.2048
     46 H46        -1.0382    4.1687   -2.0954 H         1 GTP         0.2048
@<TRIPOS>BOND
     1    1    2 2
     2    1    3 1
     3    1    4 1
     4    1    5 1
     5    5    6 1
     6    6    7 2
     7    6    8 1
     8    6    9 1
     9    8   33 1
    10    9   10 1
    11   10   11 2
    12   10   12 1
    13   10   13 1
    14   13   14 1
    15   14   15 1
    16   14   34 1
    17   14   35 1
    18   15   16 1
    19   15   17 1
    20   15   36 1
    21   16   21 1
    22   17   18 1
    23   17   19 1
    24   17   37 1
    25   18   38 1
    26   19   20 1
    27   19   21 1
    28   19   39 1
    29   20   40 1
    30   21   22 1
    31   21   41 1
    32   22   23 ar
    33   22   32 ar
    34   23   24 ar
    35   23   42 1
    36   24   25 ar
    37   24   46 1
    38   25   26 ar
    39   25   32 ar
    40   26   27 2
    41   26   28 ar
    42   28   29 ar
    43   28   43 1
    44   29   30 1
    45   29   31 ar
    46   30   44 1
    47   30   45 1
    48   31   32 ar
@<TRIPOS>SUBSTRUCTURE
     1 GTP         1 GROUP 0 A     ****
@<TRIPOS>MOLECULE
[[[5-(2-amino-6-oxo-7,8-dihydro-1~{H}-purin-8-ylium-9-yl)-3,4-dihydroxy-tetrahydrofuran-2-yl]methoxy-oxido-phosphoryl]oxy-hydroxy-phosphoryl] phosphate
   46    48     1     0     0
SMALL
USER_CHARGES

@<TRIPOS>ATOM
      1 PG         -1.8793   -1.4683   -5.2092 P.3       1 GTP        -1.1921
      2 O1G        -2.1738   -2.8043   -5.8835 O.co2     1 GTP         0.3195
      3 O2G        -2.8786   -0.3652   -5.5420 O.co2     1 GTP         0.3195
      4 O3G        -1.5349   -1.5744   -3.7272 O.co2     1 GTP         0.3195
      5 O3B        -0.4802   -0.9587   -5.9165 O.3       1 GTP         0.4672
      6 PB          0.9846   -1.6434   -5.9612 P.3       1 GTP        -0.9715
      7 O1B         1.0278   -2.9993   -6.6016 O.2       1 GTP         0.2707
      8 O2B         1.8905   -0.5173   -6.6859 O.3       1 GTP         0.0326
      9 O3A         1.4724   -1.5874   -4.4222 O.3       1 GTP         0.4672
     10 PA          2.8575   -2.1002   -3.7283 P.3       1 GTP        -1.1062
     11 O1A         2.9055   -3.6102   -3.8147 O.co2     1 GTP         0.3195
     12 O2A         3.9974   -1.2500   -4.2452 O.co2     1 GTP         0.3195
     13 O5'         2.5245   -1.6648   -2.1878 O.3       1 GTP         0.1618
     14 C5'         2.2816   -0.2918   -1.9206 C.3       1 GTP         0.1504
     15 C4'         2.7248    0.0226   -0.4980 C.3       1 GTP         0.1111
     16 O4'         2.4697    1.4219   -0.2462 O.3       1 GTP        -0.1436
     17 C3'         1.9404   -0.7419    0.5596 C.3       1 GTP         0.1111
     18 O3'         2.7418   -0.8086    1.7389 O.3       1 GTP        -0.2728
     19 C2'         0.7477    0.1630    0.7858 C.3       1 GTP         0.1111
     20 O2'         0.1373   -0.0577    2.0407 O.3       1 GTP        -0.2728
     21 C1'         1.3733    1.5427    0.6747 C.3       1 GTP         0.2693
     22 N9          0.4520    2.5240    0.1767 N.pl3     1 GTP        -0.3222
     23 C8          0.2203    2.8205   -1.0970 C.ar      1 GTP         0.1640
     24 N7         -0.6947    3.7752   -1.2304 N.pl3     1 GTP        -0.3688
     25 C5         -1.0607    4.0987    0.0476 C.ar      1 GTP         0.0648
     26 C6         -2.0310    5.0839    0.5029 C.ar      1 GTP         0.3597
     27 O6         -2.6779    5.7867   -0.2609 O.2       1 GTP        -0.2755
     28 N1         -2.1030    5.0975    1.8948 N.pl3     1 GTP        -0.1604
     29 C2         -1.3422    4.2721    2.7403 C.ar      1 GTP         0.4468
     30 N2         -1.5624    4.4419    4.0823 N.pl3     1 GTP        -0.5618
     31 N3         -0.4796    3.3981    2.2792 N.2       1 GTP        -0.4283
     32 C4         -0.3754    3.3496    0.9208 C.ar      1 GTP         0.2226
     33 HOB2        2.8581   -0.6618   -6.7582 H         1 GTP         0.2010
     34 H5'         2.8432    0.3119   -2.6398 H         1 GTP        -0.0393
     35 H5''        1.2128   -0.0927   -2.0428 H         1 GTP        -0.0393
     36 H4'         3.8044   -0.1397   -0.4040 H         1 GTP        -0.0393
     37 H3'         1.6764   -1.7639    0.2728 H         1 GTP        -0.0393
     38 HO3'        2.2232   -1.2979    2.3953 H         1 GTP         0.2010
     39 H2'        -0.0011    0.0027    0.0003 H         1 GTP        -0.0393
     40 HO2'       -0.6141    0.5574    2.1082 H         1 GTP         0.2010
     41 H1'         1.7826    1.9024    1.6451 H         1 GTP        -0.0393
     42 H8          0.7110    2.3472   -1.9295 H         1 GTP         0.0000
     43 HN1        -2.7504    5.7495    2.3282 H         1 GTP         0.0865
     44 HN21       -1.0467    3.8796    4.7190 H         1 GTP         0.2048
     45 HN22       -2.2294    5.1209    4.3680 H         1 GTP         0.2048
     46 H46        -1.0382    4.1687   -2.0954 H         1 GTP         0.2048
@<TRIPOS>BOND
     1    1    2 2
     2    1    3 1
     3    1    4 1
     4    1    5 1
     5    5    6 1
     6    6    7 2
     7    6    8 1
     8    6    9 1
     9    8   33 1
    10    9   10 1
    11   10   11 2
    12   10   12 1
    13   10   13 1
    14   13   14 1
    15   14   15 1
    16   14   34 1
    17   14   35 1
    18   15   16 1
    19   15   17 1
    20   15   36 1
    21   16   21 1
    22   17   18 1
    23   17   19 1
    24   17   37 1
    25   18   38 1
    26   19   20 1
    27   19   21 1
    28   19   39 1
    29   20   40 1
    30   21   22 1
    31   21   41 1
    32   22   23 ar
    33   22   32 ar
    34   23   24 ar
    35   23   42 1
    36   24   25 ar
    37   24   46 1
    38   25   26 ar
    39   25   32 ar
    40   26   27 2
    41   26   28 ar
    42   28   29 ar
    43   28   43 1
    44   29   30 1
    45   29   31 ar
    46   30   44 1
    47   30   45 1
    48   31   32 ar
@<TRIPOS>SUBSTRUCTURE
     1 GTP         1 GROUP 0 A     ****
@<TRIPOS>MOLECULE
[[[5-(2-amino-6-oxo-7,8-dihydro-1~{H}-purin-8-ylium-9-yl)-3,4-dihydroxy-tetrahydrofuran-2-yl]methoxy-oxido-phosphoryl]oxy-hydroxy-phosphoryl] phosphate
   46    48     1     0     0
SMALL
USER_CHARGES

@<TRIPOS>ATOM
      1 PG          1.3140   -0.4664   -8.2418 P.3       1 GTP        -1.1921
      2 O1G         2.0983    0.7922   -8.5985 O.co2     1 GTP         0.3195
      3 O2G        -0.1864   -0.2447   -8.0809 O.co2     1 GTP         0.3195
      4 O3G         1.6799   -1.6919   -9.0728 O.co2     1 GTP         0.3195
      5 O3B         1.8222   -0.8409   -6.7191 O.3       1 GTP         0.4672
      6 PB          3.2987   -1.1950   -6.1615 P.3       1 GTP        -0.9715
      7 O1B         3.9373   -2.3996   -6.7874 O.2       1 GTP         0.2707
      8 O2B         4.1071    0.1900   -6.3672 O.3       1 GTP         0.0326
      9 O3A         3.0871   -1.2746   -4.5620 O.3       1 GTP         0.4672
     10 PA          2.1265   -2.2419   -3.6650 P.3       1 GTP        -1.1062
     11 O1A         0.6845   -1.8905   -3.9597 O.co2     1 GTP         0.3195
     12 O2A         2.6267   -3.6645   -3.7894 O.co2     1 GTP         0.3195
     13 O5'         2.5245   -1.6648   -2.1878 O.3       1 GTP         0.1618
     14 C5'         2.2816   -0.2918   -1.9206 C.3       1 GTP         0.1504
     15 C4'         2.7248    0.0226   -0.4980 C.3       1 GTP         0.1111
     16 O4'         2.4697    1.4219   -0.2462 O.3       1 GTP        -0.1436
     17 C3'         1.9404   -0.7419    0.5596 C.3       1 GTP         0.1111
     18 O3'         2.7418   -0.8086    1.7389 O.3       1 GTP        -0.2728
     19 C2'         0.7477    0.1630    0.7858 C.3       1 GTP         0.1111
     20 O2'         0.1373   -0.0577    2.0407 O.3       1 GTP        -0.2728
     21 C1'         1.3733    1.5427    0.6747 C.3       1 GTP         0.2693
     22 N9          0.4520    2.5240    0.1767 N.pl3     1 GTP        -0.3222
     23 C8          0.2203    2.8205   -1.0970 C.ar      1 GTP         0.1640
     24 N7         -0.6947    3.7752   -1.2304 N.pl3     1 GTP        -0.3688
     25 C5         -1.0607    4.0987    0.0476 C.ar      1 GTP         0.0648
     26 C6         -2.0310    5.0839    0.5029 C.ar      1 GTP         0.3597
     27 O6         -2.6779    5.7867   -0.2609 O.2       1 GTP        -0.2755
     28 N1         -2.1030    5.0975    1.8948 N.pl3     1 GTP        -0.1604
     29 C2         -1.3422    4.2721    2.7403 C.ar      1 GTP         0.4468
     30 N2         -1.5624    4.4419    4.0823 N.pl3     1 GTP        -0.5618
     31 N3         -0.4796    3.3981    2.2792 N.2       1 GTP        -0.4283
     32 C4         -0.3754    3.3496    0.9208 C.ar      1 GTP         0.2226
     33 HOB2        4.2685    0.5136   -7.2790 H         1 GTP         0.2010
     34 H5'         2.8432    0.3119   -2.6398 H         1 GTP        -0.0393
     35 H5''        1.2128   -0.0927   -2.0428 H         1 GTP        -0.0393
     36 H4'         3.8044   -0.1397   -0.4040 H         1 GTP        -0.0393
     37 H3'         1.6764   -1.7639    0.2728 H         1 GTP        -0.0393
     38 HO3'        2.2232   -1.2979    2.3953 H         1 GTP         0.2010
     39 H2'        -0.0011    0.0027    0.0003 H         1 GTP        -0.0393
     40 HO2'       -0.6141    0.5574    2.1082 H         1 GTP         0.2010
     41 H1'         1.7826    1.9024    1.6451 H         1 GTP        -0.0393
     42 H8          0.7110    2.3472   -1.9295 H         1 GTP         0.0000
     43 HN1        -2.7504    5.7495    2.3282 H         1 GTP         0.0865
     44 HN21       -1.0467    3.8796    4.7190 H         1 GTP         0.2048
     45 HN22       -2.2294    5.1209    4.3680 H         1 GTP         0.2048
     46 H46        -1.0382    4.1687   -2.0954 H         1 GTP         0.2048
@<TRIPOS>BOND
     1    1    2 2
     2    1    3 1
     3    1    4 1
     4    1    5 1
     5    5    6 1
     6    6    7 2
     7    6    8 1
     8    6    9 1
     9    8   33 1
    10    9   10 1
    11   10   11 2
    12   10   12 1
    13   10   13 1
    14   13   14 1
    15   14   15 1
    16   14   34 1
    17   14   35 1
    18   15   16 1
    19   15   17 1
    20   15   36 1
    21   16   21 1
    22   17   18 1
    23   17   19 1
    24   17   37 1
    25   18   38 1
    26   19   20 1
    27   19   21 1
    28   19   39 1
    29   20   40 1
    30   21   22 1
    31   21   41 1
    32   22   23 ar
    33   22   32 ar
    34   23   24 ar
    35   23   42 1
    36   24   25 ar
    37   24   46 1
    38   25   26 ar
    39   25   32 ar
    40   26   27 2
    41   26   28 ar
    42   28   29 ar
    43   28   43 1
    44   29   30 1
    45   29   31 ar
    46   30   44 1
    47   30   45 1
    48   31   32 ar
@<TRIPOS>SUBSTRUCTURE
     1 GTP         1 GROUP 0 A     ****
@<TRIPOS>MOLECULE
[[[5-(2-amino-6-oxo-7,8-dihydro-1~{H}-purin-8-ylium-9-yl)-3,4-dihydroxy-tetrahydrofuran-2-yl]methoxy-oxido-phosphoryl]oxy-hydroxy-phosphoryl] phosphate
   46    48     1     0     0
SMALL
USER_CHARGES

@<TRIPOS>ATOM
      1 PG          7.2166    0.3547   -3.7585 P.3       1 GTP        -1.1921
      2 O1G         7.0834    1.2069   -5.0165 O.co2     1 GTP         0.3195
      3 O2G         8.6411    0.2448   -3.2246 O.co2     1 GTP         0.3195
      4 O3G         6.1681    0.6438   -2.6893 O.co2     1 GTP         0.3195
      5 O3B         6.8678   -1.1739   -4.2675 O.3       1 GTP         0.4672
      6 PB          5.5266   -1.7764   -4.9419 P.3       1 GTP        -0.9715
      7 O1B         5.1320   -1.1378   -6.2407 O.2       1 GTP         0.2707
      8 O2B         5.8427   -3.3597   -5.0283 O.3       1 GTP         0.0326
      9 O3A         4.4324   -1.6741   -3.7580 O.3       1 GTP         0.4672
     10 PA          2.8575   -2.1002   -3.7283 P.3       1 GTP        -1.1062
     11 O1A         2.0984   -1.1933   -4.6722 O.co2     1 GTP         0.3195
     12 O2A         2.7647   -3.6059   -3.8457 O.co2     1 GTP         0.3195
     13 O5'         2.5245   -1.6648   -2.1878 O.3       1 GTP         0.1618
     14 C5'         2.2816   -0.2918   -1.9206 C.3       1 GTP         0.1504
     15 C4'         2.7248    0.0226   -0.4980 C.3       1 GTP         0.1111
     16 O4'         2.4697    1.4219   -0.2462 O.3       1 GTP        -0.1436
     17 C3'         1.9404   -0.7419    0.5596 C.3       1 GTP         0.1111
     18 O3'         2.7418   -0.8086    1.7389 O.3       1 GTP        -0.2728
     19 C2'         0.7477    0.1630    0.7858 C.3       1 GTP         0.1111
     20 O2'         0.1373   -0.0577    2.0407 O.3       1 GTP        -0.2728
     21 C1'         1.3733    1.5427    0.6747 C.3       1 GTP         0.2693
     22 N9          0.4520    2.5240    0.1767 N.pl3     1 GTP        -0.3222
     23 C8          0.2203    2.8205   -1.0970 C.ar      1 GTP         0.1640
     24 N7         -0.6947    3.7752   -1.2304 N.pl3     1 GTP        -0.3688
     25 C5         -1.0607    4.0987    0.0476 C.ar      1 GTP         0.0648
     26 C6         -2.0310    5.0839    0.5029 C.ar      1 GTP         0.3597
     27 O6         -2.6779    5.7867   -0.2609 O.2       1 GTP        -0.2755
     28 N1         -2.1030    5.0975    1.8948 N.pl3     1 GTP        -0.1604
     29 C2         -1.3422    4.2721    2.7403 C.ar      1 GTP         0.4468
     30 N2         -1.5624    4.4419    4.0823 N.pl3     1 GTP        -0.5618
     31 N3         -0.4796    3.3981    2.2792 N.2       1 GTP        -0.4283
     32 C4         -0.3754    3.3496    0.9208 C.ar      1 GTP         0.2226
     33 HOB2        5.1356   -3.9683   -5.3314 H         1 GTP         0.2010
     34 H5'         2.8432    0.3119   -2.6398 H         1 GTP        -0.0393
     35 H5''        1.2128   -0.0927   -2.0428 H         1 GTP        -0.0393
     36 H4'         3.8044   -0.1397   -0.4040 H         1 GTP        -0.0393
     37 H3'         1.6764   -1.7639    0.2728 H         1 GTP        -0.0393
     38 HO3'        2.2232   -1.2979    2.3953 H         1 GTP         0.2010
     39 H2'        -0.0011    0.0027    0.0003 H         1 GTP        -0.0393
     40 HO2'       -0.6141    0.5574    2.1082 H         1 GTP         0.2010
     41 H1'         1.7826    1.9024    1.6451 H         1 GTP        -0.0393
     42 H8          0.7110    2.3472   -1.9295 H         1 GTP         0.0000
     43 HN1        -2.7504    5.7495    2.3282 H         1 GTP         0.0865
     44 HN21       -1.0467    3.8796    4.7190 H         1 GTP         0.2048
     45 HN22       -2.2294    5.1209    4.3680 H         1 GTP         0.2048
     46 H46        -1.0382    4.1687   -2.0954 H         1 GTP         0.2048
@<TRIPOS>BOND
     1    1    2 2
     2    1    3 1
     3    1    4 1
     4    1    5 1
     5    5    6 1
     6    6    7 2
     7    6    8 1
     8    6    9 1
     9    8   33 1
    10    9   10 1
    11   10   11 2
    12   10   12 1
    13   10   13 1
    14   13   14 1
    15   14   15 1
    16   14   34 1
    17   14   35 1
    18   15   16 1
    19   15   17 1
    20   15   36 1
    21   16   21 1
    22   17   18 1
    23   17   19 1
    24   17   37 1
    25   18   38 1
    26   19   20 1
    27   19   21 1
    28   19   39 1
    29   20   40 1
    30   21   22 1
    31   21   41 1
    32   22   23 ar
    33   22   32 ar
    34   23   24 ar
    35   23   42 1
    36   24   25 ar
    37   24   46 1
    38   25   26 ar
    39   25   32 ar
    40   26   27 2
    41   26   28 ar
    42   28   29 ar
    43   28   43 1
    44   29   30 1
    45   29   31 ar
    46   30   44 1
    47   30   45 1
    48   31   32 ar
@<TRIPOS>SUBSTRUCTURE
     1 GTP         1 GROUP 0 A     ****
@<TRIPOS>MOLECULE
[[[5-(2-amino-6-oxo-7,8-dihydro-1~{H}-purin-8-ylium-9-yl)-3,4-dihydroxy-tetrahydrofuran-2-yl]methoxy-oxido-phosphoryl]oxy-hydroxy-phosphoryl] phosphate
   46    48     1     0     0
SMALL
USER_CHARGES

@<TRIPOS>ATOM
      1 PG         -2.9151   -2.0674   -5.2889 P.3       1 GTP        -1.1921
      2 O1G        -2.9195   -3.5394   -5.6883 O.co2     1 GTP         0.3195
      3 O2G        -2.5530   -1.1124   -6.4216 O.co2     1 GTP         0.3195
      4 O3G        -4.1259   -1.6348   -4.4686 O.co2     1 GTP         0.3195
      5 O3B        -1.6475   -1.9366   -4.2432 O.3       1 GTP         0.4672
      6 PB         -1.3728   -2.6702   -2.8280 P.3       1 GTP        -0.9715
      7 O1B        -2.4090   -2.4151   -1.7736 O.2       1 GTP         0.2707
      8 O2B        -1.1966   -4.2210   -3.2503 O.3       1 GTP         0.0326
      9 O3A         0.1286   -2.2088   -2.4509 O.3       1 GTP         0.4672
     10 PA          1.5375   -2.4279   -3.2447 P.3       1 GTP        -1.1062
     11 O1A         1.8622   -3.9058   -3.2441 O.co2     1 GTP         0.3195
     12 O2A         1.4906   -1.6373   -4.5340 O.co2     1 GTP         0.3195
     13 O5'         2.5245   -1.6648   -2.1878 O.3       1 GTP         0.1618
     14 C5'         2.2816   -0.2918   -1.9206 C.3       1 GTP         0.1504
     15 C4'         2.7248    0.0226   -0.4980 C.3       1 GTP         0.1111
     16 O4'         2.4697    1.4219   -0.2462 O.3       1 GTP        -0.1436
     17 C3'         1.9404   -0.7419    0.5596 C.3       1 GTP         0.1111
     18 O3'         2.7418   -0.8086    1.7389 O.3       1 GTP        -0.2728
     19 C2'         0.7477    0.1630    0.7858 C.3       1 GTP         0.1111
     20 O2'         0.1373   -0.0577    2.0407 O.3       1 GTP        -0.2728
     21 C1'         1.3733    1.5427    0.6747 C.3       1 GTP         0.2693
     22 N9          0.4520    2.5240    0.1767 N.pl3     1 GTP        -0.3222
     23 C8          0.2203    2.8205   -1.0970 C.ar      1 GTP         0.1640
     24 N7         -0.6947    3.7752   -1.2304 N.pl3     1 GTP        -0.3688
     25 C5         -1.0607    4.0987    0.0476 C.ar      1 GTP         0.0648
     26 C6         -2.0310    5.0839    0.5029 C.ar      1 GTP         0.3597
     27 O6         -2.6779    5.7867   -0.2609 O.2       1 GTP        -0.2755
     28 N1         -2.1030    5.0975    1.8948 N.pl3     1 GTP        -0.1604
     29 C2         -1.3422    4.2721    2.7403 C.ar      1 GTP         0.4468
     30 N2         -1.5624    4.4419    4.0823 N.pl3     1 GTP        -0.5618
     31 N3         -0.4796    3.3981    2.2792 N.2       1 GTP        -0.4283
     32 C4         -0.3754    3.3496    0.9208 C.ar      1 GTP         0.2226
     33 HOB2       -0.9337   -4.8718   -2.5651 H         1 GTP         0.2010
     34 H5'         2.8432    0.3119   -2.6398 H         1 GTP        -0.0393
     35 H5''        1.2128   -0.0927   -2.0428 H         1 GTP        -0.0393
     36 H4'         3.8044   -0.1397   -0.4040 H         1 GTP        -0.0393
     37 H3'         1.6764   -1.7639    0.2728 H         1 GTP        -0.0393
     38 HO3'        2.2232   -1.2979    2.3953 H         1 GTP         0.2010
     39 H2'        -0.0011    0.0027    0.0003 H         1 GTP        -0.0393
     40 HO2'       -0.6141    0.5574    2.1082 H         1 GTP         0.2010
     41 H1'         1.7826    1.9024    1.6451 H         1 GTP        -0.0393
     42 H8          0.7110    2.3472   -1.9295 H         1 GTP         0.0000
     43 HN1        -2.7504    5.7495    2.3282 H         1 GTP         0.0865
     44 HN21       -1.0467    3.8796    4.7190 H         1 GTP         0.2048
     45 HN22       -2.2294    5.1209    4.3680 H         1 GTP         0.2048
     46 H46        -1.0382    4.1687   -2.0954 H         1 GTP         0.2048
@<TRIPOS>BOND
     1    1    2 2
     2    1    3 1
     3    1    4 1
     4    1    5 1
     5    5    6 1
     6    6    7 2
     7    6    8 1
     8    6    9 1
     9    8   33 1
    10    9   10 1
    11   10   11 2
    12   10   12 1
    13   10   13 1
    14   13   14 1
    15   14   15 1
    16   14   34 1
    17   14   35 1
    18   15   16 1
    19   15   17 1
    20   15   36 1
    21   16   21 1
    22   17   18 1
    23   17   19 1
    24   17   37 1
    25   18   38 1
    26   19   20 1
    27   19   21 1
    28   19   39 1
    29   20   40 1
    30   21   22 1
    31   21   41 1
    32   22   23 ar
    33   22   32 ar
    34   23   24 ar
    35   23   42 1
    36   24   25 ar
    37   24   46 1
    38   25   26 ar
    39   25   32 ar
    40   26   27 2
    41   26   28 ar
    42   28   29 ar
    43   28   43 1
    44   29   30 1
    45   29   31 ar
    46   30   44 1
    47   30   45 1
    48   31   32 ar
@<TRIPOS>SUBSTRUCTURE
     1 GTP         1 GROUP 0 A     ****
@<TRIPOS>MOLECULE
[[[5-(2-amino-6-oxo-7,8-dihydro-1~{H}-purin-8-ylium-9-yl)-3,4-dihydroxy-tetrahydrofuran-2-yl]methoxy-oxido-phosphoryl]oxy-hydroxy-phosphoryl] phosphate
   46    48     1     0     0
SMALL
USER_CHARGES

@<TRIPOS>ATOM
      1 PG         -0.8005   -0.8482   -7.4988 P.3       1 GTP        -1.1921
      2 O1G        -2.1141   -0.2054   -7.0658 O.co2     1 GTP         0.3195
      3 O2G        -0.7933   -2.3714   -7.4218 O.co2     1 GTP         0.3195
      4 O3G        -0.2207   -0.2842   -8.7918 O.co2     1 GTP         0.3195
      5 O3B         0.2754   -0.3901   -6.3369 O.3       1 GTP         0.4672
      6 PB          0.7579    1.0825   -5.8734 P.3       1 GTP        -0.9715
      7 O1B         1.4068    1.9016   -6.9498 O.2       1 GTP         0.2707
      8 O2B        -0.5862    1.7244   -5.2443 O.3       1 GTP         0.0326
      9 O3A         1.6767    0.7864   -4.5782 O.3       1 GTP         0.4672
     10 PA          3.0383   -0.0994   -4.4226 P.3       1 GTP        -1.1062
     11 O1A         2.6929   -1.5534   -4.6599 O.co2     1 GTP         0.3195
     12 O2A         4.1447    0.5793   -5.2003 O.co2     1 GTP         0.3195
     13 O5'         3.2903    0.1346   -2.8241 O.3       1 GTP         0.1618
     14 C5'         2.2816   -0.2918   -1.9206 C.3       1 GTP         0.1504
     15 C4'         2.7248    0.0226   -0.4980 C.3       1 GTP         0.1111
     16 O4'         2.4697    1.4219   -0.2462 O.3       1 GTP        -0.1436
     17 C3'         1.9404   -0.7419    0.5596 C.3       1 GTP         0.1111
     18 O3'         2.7418   -0.8086    1.7389 O.3       1 GTP        -0.2728
     19 C2'         0.7477    0.1630    0.7858 C.3       1 GTP         0.1111
     20 O2'         0.1373   -0.0577    2.0407 O.3       1 GTP        -0.2728
     21 C1'         1.3733    1.5427    0.6747 C.3       1 GTP         0.2693
     22 N9          0.4520    2.5240    0.1767 N.pl3     1 GTP        -0.3222
     23 C8         -0.6818    2.9109    0.7501 C.ar      1 GTP         0.1640
     24 N7         -1.3103    3.8415    0.0391 N.pl3     1 GTP        -0.3688
     25 C5         -0.5155    4.0512   -1.0547 C.ar      1 GTP         0.0648
     26 C6         -0.7125    4.9651   -2.1705 C.ar      1 GTP         0.3597
     27 O6         -1.6819    5.7047   -2.2651 O.2       1 GTP        -0.2755
     28 N1          0.3401    4.8672   -3.0790 N.pl3     1 GTP        -0.1604
     29 C2          1.4396    4.0039   -2.9348 C.ar      1 GTP         0.4468
     30 N2          2.3679    4.0602   -3.9414 N.pl3     1 GTP        -0.5618
     31 N3          1.5708    3.1983   -1.9080 N.2       1 GTP        -0.4283
     32 C4          0.5630    3.2599   -0.9921 C.ar      1 GTP         0.2226
     33 HOB2       -0.5334    2.6018   -4.8088 H         1 GTP         0.2010
     34 H5'         1.3514    0.2330   -2.1577 H         1 GTP        -0.0393
     35 H5''        2.1280   -1.3678   -2.0460 H         1 GTP        -0.0393
     36 H4'         3.8044   -0.1397   -0.4040 H         1 GTP        -0.0393
     37 H3'         1.6764   -1.7639    0.2728 H         1 GTP        -0.0393
     38 HO3'        2.2232   -1.2979    2.3953 H         1 GTP         0.2010
     39 H2'        -0.0011    0.0027    0.0003 H         1 GTP        -0.0393
     40 HO2'       -0.1563   -0.9855    2.0596 H         1 GTP         0.2010
     41 H1'         1.7826    1.9024    1.6451 H         1 GTP        -0.0393
     42 H8         -1.0545    2.5222    1.6816 H         1 GTP         0.0000
     43 HN1         0.3104    5.4612   -3.9026 H         1 GTP         0.0865
     44 HN21        3.1632    3.4672   -3.8824 H         1 GTP         0.2048
     45 HN22        2.2108    4.6918   -4.6924 H         1 GTP         0.2048
     46 H46        -2.1863    4.2902    0.2681 H         1 GTP         0.2048
@<TRIPOS>BOND
     1    1    2 2
     2    1    3 1
     3    1    4 1
     4    1    5 1
     5    5    6 1
     6    6    7 2
     7    6    8 1
     8    6    9 1
     9    8   33 1
    10    9   10 1
    11   10   11 2
    12   10   12 1
    13   10   13 1
    14   13   14 1
    15   14   15 1
    16   14   34 1
    17   14   35 1
    18   15   16 1
    19   15   17 1
    20   15   36 1
    21   16   21 1
    22   17   18 1
    23   17   19 1
    24   17   37 1
    25   18   38 1
    26   19   20 1
    27   19   21 1
    28   19   39 1
    29   20   40 1
    30   21   22 1
    31   21   41 1
    32   22   23 ar
    33   22   32 ar
    34   23   24 ar
    35   23   42 1
    36   24   25 ar
    37   24   46 1
    38   25   26 ar
    39   25   32 ar
    40   26   27 2
    41   26   28 ar
    42   28   29 ar
    43   28   43 1
    44   29   30 1
    45   29   31 ar
    46   30   44 1
    47   30   45 1
    48   31   32 ar
@<TRIPOS>SUBSTRUCTURE
     1 GTP         1 GROUP 0 A     ****
@<TRIPOS>MOLECULE
[[[5-(2-amino-6-oxo-7,8-dihydro-1~{H}-purin-8-ylium-9-yl)-3,4-dihydroxy-tetrahydrofuran-2-yl]methoxy-oxido-phosphoryl]oxy-hydroxy-phosphoryl] phosphate
   46    48     1     0     0
SMALL
USER_CHARGES

@<TRIPOS>ATOM
      1 PG          5.1880    0.5142   -7.6805 P.3       1 GTP        -1.1921
      2 O1G         5.9617   -0.7089   -8.1619 O.co2     1 GTP         0.3195
      3 O2G         6.0674    1.6462   -7.1594 O.co2     1 GTP         0.3195
      4 O3G         4.0780    0.9672   -8.6232 O.co2     1 GTP         0.3195
      5 O3B         4.3908   -0.0149   -6.3381 O.3       1 GTP         0.4672
      6 PB          3.2987   -1.1950   -6.1615 P.3       1 GTP        -0.9715
      7 O1B         2.0464   -1.0217   -6.9691 O.2       1 GTP         0.2707
      8 O2B         4.1477   -2.5295   -6.4970 O.3       1 GTP         0.0326
      9 O3A         3.0871   -1.2746   -4.5620 O.3       1 GTP         0.4672
     10 PA          2.1265   -2.2419   -3.6650 P.3       1 GTP        -1.1062
     11 O1A         0.6845   -1.8905   -3.9597 O.co2     1 GTP         0.3195
     12 O2A         2.6267   -3.6645   -3.7894 O.co2     1 GTP         0.3195
     13 O5'         2.5245   -1.6648   -2.1878 O.3       1 GTP         0.1618
     14 C5'         2.2816   -0.2918   -1.9206 C.3       1 GTP         0.1504
     15 C4'         2.7248    0.0226   -0.4980 C.3       1 GTP         0.1111
     16 O4'         2.4697    1.4219   -0.2462 O.3       1 GTP        -0.1436
     17 C3'         1.9404   -0.7419    0.5596 C.3       1 GTP         0.1111
     18 O3'         2.7418   -0.8086    1.7389 O.3       1 GTP        -0.2728
     19 C2'         0.7477    0.1630    0.7858 C.3       1 GTP         0.1111
     20 O2'         0.1373   -0.0577    2.0407 O.3       1 GTP        -0.2728
     21 C1'         1.3733    1.5427    0.6747 C.3       1 GTP         0.2693
     22 N9          0.4520    2.5240    0.1767 N.pl3     1 GTP        -0.3222
     23 C8          0.2203    2.8205   -1.0970 C.ar      1 GTP         0.1640
     24 N7         -0.6947    3.7752   -1.2304 N.pl3     1 GTP        -0.3688
     25 C5         -1.0607    4.0987    0.0476 C.ar      1 GTP         0.0648
     26 C6         -2.0310    5.0839    0.5029 C.ar      1 GTP         0.3597
     27 O6         -2.6779    5.7867   -0.2609 O.2       1 GTP        -0.2755
     28 N1         -2.1030    5.0975    1.8948 N.pl3     1 GTP        -0.1604
     29 C2         -1.3422    4.2721    2.7403 C.ar      1 GTP         0.4468
     30 N2         -1.5624    4.4419    4.0823 N.pl3     1 GTP        -0.5618
     31 N3         -0.4796    3.3981    2.2792 N.2       1 GTP        -0.4283
     32 C4         -0.3754    3.3496    0.9208 C.ar      1 GTP         0.2226
     33 HOB2        3.7219   -3.4049   -6.3763 H         1 GTP         0.2010
     34 H5'         2.8432    0.3119   -2.6398 H         1 GTP        -0.0393
     35 H5''        1.2128   -0.0927   -2.0428 H         1 GTP        -0.0393
     36 H4'         3.8044   -0.1397   -0.4040 H         1 GTP        -0.0393
     37 H3'         1.6764   -1.7639    0.2728 H         1 GTP        -0.0393
     38 HO3'        2.2232   -1.2979    2.3953 H         1 GTP         0.2010
     39 H2'        -0.0011    0.0027    0.0003 H         1 GTP        -0.0393
     40 HO2'       -0.6141    0.5574    2.1082 H         1 GTP         0.2010
     41 H1'         1.7826    1.9024    1.6451 H         1 GTP        -0.0393
     42 H8          0.7110    2.3472   -1.9295 H         1 GTP         0.0000
     43 HN1        -2.7504    5.7495    2.3282 H         1 GTP         0.0865
     44 HN21       -1.0467    3.8796    4.7190 H         1 GTP         0.2048
     45 HN22       -2.2294    5.1209    4.3680 H         1 GTP         0.2048
     46 H46        -1.0382    4.1687   -2.0954 H         1 GTP         0.2048
@<TRIPOS>BOND
     1    1    2 2
     2    1    3 1
     3    1    4 1
     4    1    5 1
     5    5    6 1
     6    6    7 2
     7    6    8 1
     8    6    9 1
     9    8   33 1
    10    9   10 1
    11   10   11 2
    12   10   12 1
    13   10   13 1
    14   13   14 1
    15   14   15 1
    16   14   34 1
    17   14   35 1
    18   15   16 1
    19   15   17 1
    20   15   36 1
    21   16   21 1
    22   17   18 1
    23   17   19 1
    24   17   37 1
    25   18   38 1
    26   19   20 1
    27   19   21 1
    28   19   39 1
    29   20   40 1
    30   21   22 1
    31   21   41 1
    32   22   23 ar
    33   22   32 ar
    34   23   24 ar
    35   23   42 1
    36   24   25 ar
    37   24   46 1
    38   25   26 ar
    39   25   32 ar
    40   26   27 2
    41   26   28 ar
    42   28   29 ar
    43   28   43 1
    44   29   30 1
    45   29   31 ar
    46   30   44 1
    47   30   45 1
    48   31   32 ar
@<TRIPOS>SUBSTRUCTURE
     1 GTP         1 GROUP 0 A     ****
@<TRIPOS>MOLECULE
[[[5-(2-amino-6-oxo-7,8-dihydro-1~{H}-purin-8-ylium-9-yl)-3,4-dihydroxy-tetrahydrofuran-2-yl]methoxy-oxido-phosphoryl]oxy-hydroxy-phosphoryl] phosphate
   46    48     1     0     0
SMALL
USER_CHARGES

@<TRIPOS>ATOM
      1 PG          2.2421   -5.7068   -5.4300 P.3       1 GTP        -1.1921
      2 O1G         0.8016   -5.5811   -5.9151 O.co2     1 GTP         0.3195
      3 O2G         2.4171   -6.6132   -4.2159 O.co2     1 GTP         0.3195
      4 O3G         3.2609   -5.9439   -6.5399 O.co2     1 GTP         0.3195
      5 O3B         2.6075   -4.2052   -4.8564 O.3       1 GTP         0.4672
      6 PB          2.6280   -2.7710   -5.6042 P.3       1 GTP        -0.9715
      7 O1B         3.5762   -2.6773   -6.7629 O.2       1 GTP         0.2707
      8 O2B         1.0725   -2.5316   -5.9744 O.3       1 GTP         0.0326
      9 O3A         2.8955   -1.7248   -4.4028 O.3       1 GTP         0.4672
     10 PA          3.0383   -0.0994   -4.4226 P.3       1 GTP        -1.1062
     11 O1A         4.2986    0.2610   -5.1786 O.co2     1 GTP         0.3195
     12 O2A         1.7002    0.4960   -4.8028 O.co2     1 GTP         0.3195
     13 O5'         3.2903    0.1346   -2.8241 O.3       1 GTP         0.1618
     14 C5'         2.2816   -0.2918   -1.9206 C.3       1 GTP         0.1504
     15 C4'         2.7248    0.0226   -0.4980 C.3       1 GTP         0.1111
     16 O4'         2.4697    1.4219   -0.2462 O.3       1 GTP        -0.1436
     17 C3'         1.9404   -0.7419    0.5596 C.3       1 GTP         0.1111
     18 O3'         2.7418   -0.8086    1.7389 O.3       1 GTP        -0.2728
     19 C2'         0.7477    0.1630    0.7858 C.3       1 GTP         0.1111
     20 O2'         0.1373   -0.0577    2.0407 O.3       1 GTP        -0.2728
     21 C1'         1.3733    1.5427    0.6747 C.3       1 GTP         0.2693
     22 N9          0.4520    2.5240    0.1767 N.pl3     1 GTP        -0.3222
     23 C8          0.2203    2.8205   -1.0970 C.ar      1 GTP         0.1640
     24 N7         -0.6947    3.7752   -1.2304 N.pl3     1 GTP        -0.3688
     25 C5         -1.0607    4.0987    0.0476 C.ar      1 GTP         0.0648
     26 C6         -2.0310    5.0839    0.5029 C.ar      1 GTP         0.3597
     27 O6         -2.6779    5.7867   -0.2609 O.2       1 GTP        -0.2755
     28 N1         -2.1030    5.0975    1.8948 N.pl3     1 GTP        -0.1604
     29 C2         -1.3422    4.2721    2.7403 C.ar      1 GTP         0.4468
     30 N2         -1.5624    4.4419    4.0823 N.pl3     1 GTP        -0.5618
     31 N3         -0.4796    3.3981    2.2792 N.2       1 GTP        -0.4283
     32 C4         -0.3754    3.3496    0.9208 C.ar      1 GTP         0.2226
     33 HOB2        0.6415   -3.1306   -6.6207 H         1 GTP         0.2010
     34 H5'         1.3514    0.2330   -2.1577 H         1 GTP        -0.0393
     35 H5''        2.1280   -1.3678   -2.0460 H         1 GTP        -0.0393
     36 H4'         3.8044   -0.1397   -0.4040 H         1 GTP        -0.0393
     37 H3'         1.6764   -1.7639    0.2728 H         1 GTP        -0.0393
     38 HO3'        2.2232   -1.2979    2.3953 H         1 GTP         0.2010
     39 H2'        -0.0011    0.0027    0.0003 H         1 GTP        -0.0393
     40 HO2'       -0.6141    0.5574    2.1082 H         1 GTP         0.2010
     41 H1'         1.7826    1.9024    1.6451 H         1 GTP        -0.0393
     42 H8          0.7110    2.3472   -1.9295 H         1 GTP         0.0000
     43 HN1        -2.7504    5.7495    2.3282 H         1 GTP         0.0865
     44 HN21       -1.0467    3.8796    4.7190 H         1 GTP         0.2048
     45 HN22       -2.2294    5.1209    4.3680 H         1 GTP         0.2048
     46 H46        -1.0382    4.1687   -2.0954 H         1 GTP         0.2048
@<TRIPOS>BOND
     1    1    2 2
     2    1    3 1
     3    1    4 1
     4    1    5 1
     5    5    6 1
     6    6    7 2
     7    6    8 1
     8    6    9 1
     9    8   33 1
    10    9   10 1
    11   10   11 2
    12   10   12 1
    13   10   13 1
    14   13   14 1
    15   14   15 1
    16   14   34 1
    17   14   35 1
    18   15   16 1
    19   15   17 1
    20   15   36 1
    21   16   21 1
    22   17   18 1
    23   17   19 1
    24   17   37 1
    25   18   38 1
    26   19   20 1
    27   19   21 1
    28   19   39 1
    29   20   40 1
    30   21   22 1
    31   21   41 1
    32   22   23 ar
    33   22   32 ar
    34   23   24 ar
    35   23   42 1
    36   24   25 ar
    37   24   46 1
    38   25   26 ar
    39   25   32 ar
    40   26   27 2
    41   26   28 ar
    42   28   29 ar
    43   28   43 1
    44   29   30 1
    45   29   31 ar
    46   30   44 1
    47   30   45 1
    48   31   32 ar
@<TRIPOS>SUBSTRUCTURE
     1 GTP         1 GROUP 0 A     ****
@<TRIPOS>MOLECULE
[[[5-(2-amino-6-oxo-7,8-dihydro-1~{H}-purin-8-ylium-9-yl)-3,4-dihydroxy-tetrahydrofuran-2-yl]methoxy-oxido-phosphoryl]oxy-hydroxy-phosphoryl] phosphate
   46    48     1     0     0
SMALL
USER_CHARGES

@<TRIPOS>ATOM
      1 PG          1.0105    1.1176   -6.3642 P.3       1 GTP        -1.1921
      2 O1G        -0.2007    1.4482   -5.4982 O.co2     1 GTP         0.3195
      3 O2G         0.8518    1.4955   -7.8333 O.co2     1 GTP         0.3195
      4 O3G         2.3486    1.5228   -5.7549 O.co2     1 GTP         0.3195
      5 O3B         1.0549   -0.5302   -6.3842 O.3       1 GTP         0.4672
      6 PB          1.2068   -1.5919   -5.1734 P.3       1 GTP        -0.9715
      7 O1B         0.1242   -1.5259   -4.1369 O.2       1 GTP         0.2707
      8 O2B         1.3279   -3.0079   -5.9443 O.3       1 GTP         0.0326
      9 O3A         2.7049   -1.3291   -4.6292 O.3       1 GTP         0.4672
     10 PA          3.5344   -2.0410   -3.4175 P.3       1 GTP        -1.1062
     11 O1A         3.5097   -3.5381   -3.6357 O.co2     1 GTP         0.3195
     12 O2A         4.8394   -1.2990   -3.2278 O.co2     1 GTP         0.3195
     13 O5'         2.5245   -1.6648   -2.1878 O.3       1 GTP         0.1618
     14 C5'         2.2816   -0.2918   -1.9206 C.3       1 GTP         0.1504
     15 C4'         2.7248    0.0226   -0.4980 C.3       1 GTP         0.1111
     16 O4'         2.4697    1.4219   -0.2462 O.3       1 GTP        -0.1436
     17 C3'         1.9404   -0.7419    0.5596 C.3       1 GTP         0.1111
     18 O3'         2.7418   -0.8086    1.7389 O.3       1 GTP        -0.2728
     19 C2'         0.7477    0.1630    0.7858 C.3       1 GTP         0.1111
     20 O2'         0.1373   -0.0577    2.0407 O.3       1 GTP        -0.2728
     21 C1'         1.3733    1.5427    0.6747 C.3       1 GTP         0.2693
     22 N9          0.4520    2.5240    0.1767 N.pl3     1 GTP        -0.3222
     23 C8          0.2203    2.8205   -1.0970 C.ar      1 GTP         0.1640
     24 N7         -0.6947    3.7752   -1.2304 N.pl3     1 GTP        -0.3688
     25 C5         -1.0607    4.0987    0.0476 C.ar      1 GTP         0.0648
     26 C6         -2.0310    5.0839    0.5029 C.ar      1 GTP         0.3597
     27 O6         -2.6779    5.7867   -0.2609 O.2       1 GTP        -0.2755
     28 N1         -2.1030    5.0975    1.8948 N.pl3     1 GTP        -0.1604
     29 C2         -1.3422    4.2721    2.7403 C.ar      1 GTP         0.4468
     30 N2         -1.5624    4.4419    4.0823 N.pl3     1 GTP        -0.5618
     31 N3         -0.4796    3.3981    2.2792 N.2       1 GTP        -0.4283
     32 C4         -0.3754    3.3496    0.9208 C.ar      1 GTP         0.2226
     33 HOB2        1.5158   -3.8170   -5.4225 H         1 GTP         0.2010
     34 H5'         2.8432    0.3119   -2.6398 H         1 GTP        -0.0393
     35 H5''        1.2128   -0.0927   -2.0428 H         1 GTP        -0.0393
     36 H4'         3.8044   -0.1397   -0.4040 H         1 GTP        -0.0393
     37 H3'         1.6764   -1.7639    0.2728 H         1 GTP        -0.0393
     38 HO3'        2.2232   -1.2979    2.3953 H         1 GTP         0.2010
     39 H2'        -0.0011    0.0027    0.0003 H         1 GTP        -0.0393
     40 HO2'       -0.6141    0.5574    2.1082 H         1 GTP         0.2010
     41 H1'         1.7826    1.9024    1.6451 H         1 GTP        -0.0393
     42 H8          0.7110    2.3472   -1.9295 H         1 GTP         0.0000
     43 HN1        -2.7504    5.7495    2.3282 H         1 GTP         0.0865
     44 HN21       -1.0467    3.8796    4.7190 H         1 GTP         0.2048
     45 HN22       -2.2294    5.1209    4.3680 H         1 GTP         0.2048
     46 H46        -1.0382    4.1687   -2.0954 H         1 GTP         0.2048
@<TRIPOS>BOND
     1    1    2 2
     2    1    3 1
     3    1    4 1
     4    1    5 1
     5    5    6 1
     6    6    7 2
     7    6    8 1
     8    6    9 1
     9    8   33 1
    10    9   10 1
    11   10   11 2
    12   10   12 1
    13   10   13 1
    14   13   14 1
    15   14   15 1
    16   14   34 1
    17   14   35 1
    18   15   16 1
    19   15   17 1
    20   15   36 1
    21   16   21 1
    22   17   18 1
    23   17   19 1
    24   17   37 1
    25   18   38 1
    26   19   20 1
    27   19   21 1
    28   19   39 1
    29   20   40 1
    30   21   22 1
    31   21   41 1
    32   22   23 ar
    33   22   32 ar
    34   23   24 ar
    35   23   42 1
    36   24   25 ar
    37   24   46 1
    38   25   26 ar
    39   25   32 ar
    40   26   27 2
    41   26   28 ar
    42   28   29 ar
    43   28   43 1
    44   29   30 1
    45   29   31 ar
    46   30   44 1
    47   30   45 1
    48   31   32 ar
@<TRIPOS>SUBSTRUCTURE
     1 GTP         1 GROUP 0 A     ****
@<TRIPOS>MOLECULE
[[[5-(2-amino-6-oxo-7,8-dihydro-1~{H}-purin-8-ylium-9-yl)-3,4-dihydroxy-tetrahydrofuran-2-yl]methoxy-oxido-phosphoryl]oxy-hydroxy-phosphoryl] phosphate
   46    48     1     0     0
SMALL
USER_CHARGES

@<TRIPOS>ATOM
      1 PG         -2.2389    0.5243   -3.7682 P.3       1 GTP        -1.1921
      2 O1G        -2.6924   -0.7301   -4.5080 O.co2     1 GTP         0.3195
      3 O2G        -3.3602    1.5136   -3.4675 O.co2     1 GTP         0.3195
      4 O3G        -1.3072    0.2576   -2.5906 O.co2     1 GTP         0.3195
      5 O3B        -1.2954    1.3190   -4.8617 O.3       1 GTP         0.4672
      6 PB          0.0639    0.8583   -5.6076 P.3       1 GTP        -0.9715
      7 O1B        -0.0674   -0.3735   -6.4539 O.2       1 GTP         0.2707
      8 O2B         0.5098    2.1910   -6.4071 O.3       1 GTP         0.0326
      9 O3A         1.1383    0.7623   -4.4051 O.3       1 GTP         0.4672
     10 PA          2.7180    0.3539   -4.4230 P.3       1 GTP        -1.1062
     11 O1A         2.8304   -1.1069   -4.8014 O.co2     1 GTP         0.3195
     12 O2A         3.4813    1.4193   -5.1793 O.co2     1 GTP         0.3195
     13 O5'         3.0213    0.5153   -2.8245 O.3       1 GTP         0.1618
     14 C5'         2.2816   -0.2918   -1.9206 C.3       1 GTP         0.1504
     15 C4'         2.7248    0.0226   -0.4980 C.3       1 GTP         0.1111
     16 O4'         2.4697    1.4219   -0.2462 O.3       1 GTP        -0.1436
     17 C3'         1.9404   -0.7419    0.5596 C.3       1 GTP         0.1111
     18 O3'         2.7418   -0.8086    1.7389 O.3       1 GTP        -0.2728
     19 C2'         0.7477    0.1630    0.7858 C.3       1 GTP         0.1111
     20 O2'         0.1373   -0.0577    2.0407 O.3       1 GTP        -0.2728
     21 C1'         1.3733    1.5427    0.6747 C.3       1 GTP         0.2693
     22 N9          0.4520    2.5240    0.1767 N.pl3     1 GTP        -0.3222
     23 C8         -0.8613    2.5511    0.3730 C.ar      1 GTP         0.1640
     24 N7         -1.4346    3.5939   -0.2188 N.pl3     1 GTP        -0.3688
     25 C5         -0.4099    4.2657   -0.8276 C.ar      1 GTP         0.0648
     26 C6         -0.4554    5.4854   -1.6209 C.ar      1 GTP         0.3597
     27 O6         -1.4907    6.0944   -1.8508 O.2       1 GTP        -0.2755
     28 N1          0.8205    5.8357   -2.0593 N.pl3     1 GTP        -0.1604
     29 C2          1.9890    5.1091   -1.7730 C.ar      1 GTP         0.4468
     30 N2          3.1452    5.6230   -2.2997 N.pl3     1 GTP        -0.5618
     31 N3          1.9765    4.0139   -1.0514 N.2       1 GTP        -0.4283
     32 C4          0.7480    3.6324   -0.6003 C.ar      1 GTP         0.2226
     33 HOB2       -0.0604    2.5206   -7.1341 H         1 GTP         0.2010
     34 H5'         1.2163   -0.0770   -2.0471 H         1 GTP        -0.0393
     35 H5''        2.4655   -1.3443   -2.1563 H         1 GTP        -0.0393
     36 H4'         3.8044   -0.1397   -0.4040 H         1 GTP        -0.0393
     37 H3'         1.6764   -1.7639    0.2728 H         1 GTP        -0.0393
     38 HO3'        2.2232   -1.2979    2.3953 H         1 GTP         0.2010
     39 H2'        -0.0011    0.0027    0.0003 H         1 GTP        -0.0393
     40 HO2'       -0.1563   -0.9855    2.0596 H         1 GTP         0.2010
     41 H1'         1.7826    1.9024    1.6451 H         1 GTP        -0.0393
     42 H8         -1.4050    1.8187    0.9438 H         1 GTP         0.0000
     43 HN1         0.9121    6.6744   -2.6251 H         1 GTP         0.0865
     44 HN21        3.9971    5.1427   -2.1235 H         1 GTP         0.2048
     45 HN22        3.0881    6.4564   -2.8380 H         1 GTP         0.2048
     46 H46        -2.4173    3.8294   -0.2127 H         1 GTP         0.2048
@<TRIPOS>BOND
     1    1    2 2
     2    1    3 1
     3    1    4 1
     4    1    5 1
     5    5    6 1
     6    6    7 2
     7    6    8 1
     8    6    9 1
     9    8   33 1
    10    9   10 1
    11   10   11 2
    12   10   12 1
    13   10   13 1
    14   13   14 1
    15   14   15 1
    16   14   34 1
    17   14   35 1
    18   15   16 1
    19   15   17 1
    20   15   36 1
    21   16   21 1
    22   17   18 1
    23   17   19 1
    24   17   37 1
    25   18   38 1
    26   19   20 1
    27   19   21 1
    28   19   39 1
    29   20   40 1
    30   21   22 1
    31   21   41 1
    32   22   23 ar
    33   22   32 ar
    34   23   24 ar
    35   23   42 1
    36   24   25 ar
    37   24   46 1
    38   25   26 ar
    39   25   32 ar
    40   26   27 2
    41   26   28 ar
    42   28   29 ar
    43   28   43 1
    44   29   30 1
    45   29   31 ar
    46   30   44 1
    47   30   45 1
    48   31   32 ar
@<TRIPOS>SUBSTRUCTURE
     1 GTP         1 GROUP 0 A     ****
@<TRIPOS>MOLECULE
[[[5-(2-amino-6-oxo-7,8-dihydro-1~{H}-purin-8-ylium-9-yl)-3,4-dihydroxy-tetrahydrofuran-2-yl]methoxy-oxido-phosphoryl]oxy-hydroxy-phosphoryl] phosphate
   46    48     1     0     0
SMALL
USER_CHARGES

@<TRIPOS>ATOM
      1 PG          1.4463   -3.5329   -7.3724 P.3       1 GTP        -1.1921
      2 O1G        -0.0510   -3.7850   -7.2272 O.co2     1 GTP         0.3195
      3 O2G         2.3244   -4.6849   -6.8948 O.co2     1 GTP         0.3195
      4 O3G         1.8578   -2.9494   -8.7201 O.co2     1 GTP         0.3195
      5 O3B         1.7590   -2.3260   -6.2940 O.3       1 GTP         0.4672
      6 PB          1.1718   -0.8217   -6.2011 P.3       1 GTP        -0.9715
      7 O1B         1.4400    0.0355   -7.4027 O.2       1 GTP         0.2707
      8 O2B        -0.3924   -1.0616   -5.8695 O.3       1 GTP         0.0326
      9 O3A         1.7728   -0.2694   -4.8071 O.3       1 GTP         0.4672
     10 PA          3.3181   -0.0790   -4.3186 P.3       1 GTP        -1.1062
     11 O1A         3.9508   -1.4473   -4.1884 O.co2     1 GTP         0.3195
     12 O2A         3.9586    1.0027   -5.1608 O.co2     1 GTP         0.3195
     13 O5'         3.0213    0.5153   -2.8245 O.3       1 GTP         0.1618
     14 C5'         2.2816   -0.2918   -1.9206 C.3       1 GTP         0.1504
     15 C4'         2.7248    0.0226   -0.4980 C.3       1 GTP         0.1111
     16 O4'         2.4697    1.4219   -0.2462 O.3       1 GTP        -0.1436
     17 C3'         1.9404   -0.7419    0.5596 C.3       1 GTP         0.1111
     18 O3'         2.7418   -0.8086    1.7389 O.3       1 GTP        -0.2728
     19 C2'         0.7477    0.1630    0.7858 C.3       1 GTP         0.1111
     20 O2'         0.1373   -0.0577    2.0407 O.3       1 GTP        -0.2728
     21 C1'         1.3733    1.5427    0.6747 C.3       1 GTP         0.2693
     22 N9          0.4520    2.5240    0.1767 N.pl3     1 GTP        -0.3222
     23 C8          0.2203    2.8205   -1.0970 C.ar      1 GTP         0.1640
     24 N7         -0.6947    3.7752   -1.2304 N.pl3     1 GTP        -0.3688
     25 C5         -1.0607    4.0987    0.0476 C.ar      1 GTP         0.0648
     26 C6         -2.0310    5.0839    0.5029 C.ar      1 GTP         0.3597
     27 O6         -2.6779    5.7867   -0.2609 O.2       1 GTP        -0.2755
     28 N1         -2.1030    5.0975    1.8948 N.pl3     1 GTP        -0.1604
     29 C2         -1.3422    4.2721    2.7403 C.ar      1 GTP         0.4468
     30 N2         -1.5624    4.4419    4.0823 N.pl3     1 GTP        -0.5618
     31 N3         -0.4796    3.3981    2.2792 N.2       1 GTP        -0.4283
     32 C4         -0.3754    3.3496    0.9208 C.ar      1 GTP         0.2226
     33 HOB2       -0.9582   -1.4966   -6.5424 H         1 GTP         0.2010
     34 H5'         1.2163   -0.0770   -2.0471 H         1 GTP        -0.0393
     35 H5''        2.4655   -1.3443   -2.1563 H         1 GTP        -0.0393
     36 H4'         3.8044   -0.1397   -0.4040 H         1 GTP        -0.0393
     37 H3'         1.6764   -1.7639    0.2728 H         1 GTP        -0.0393
     38 HO3'        3.5554   -1.2733    1.4914 H         1 GTP         0.2010
     39 H2'        -0.0011    0.0027    0.0003 H         1 GTP        -0.0393
     40 HO2'       -0.1563   -0.9855    2.0596 H         1 GTP         0.2010
     41 H1'         1.7826    1.9024    1.6451 H         1 GTP        -0.0393
     42 H8          0.7110    2.3472   -1.9295 H         1 GTP         0.0000
     43 HN1        -2.7504    5.7495    2.3282 H         1 GTP         0.0865
     44 HN21       -1.0467    3.8796    4.7190 H         1 GTP         0.2048
     45 HN22       -2.2294    5.1209    4.3680 H         1 GTP         0.2048
     46 H46        -1.0382    4.1687   -2.0954 H         1 GTP         0.2048
@<TRIPOS>BOND
     1    1    2 2
     2    1    3 1
     3    1    4 1
     4    1    5 1
     5    5    6 1
     6    6    7 2
     7    6    8 1
     8    6    9 1
     9    8   33 1
    10    9   10 1
    11   10   11 2
    12   10   12 1
    13   10   13 1
    14   13   14 1
    15   14   15 1
    16   14   34 1
    17   14   35 1
    18   15   16 1
    19   15   17 1
    20   15   36 1
    21   16   21 1
    22   17   18 1
    23   17   19 1
    24   17   37 1
    25   18   38 1
    26   19   20 1
    27   19   21 1
    28   19   39 1
    29   20   40 1
    30   21   22 1
    31   21   41 1
    32   22   23 ar
    33   22   32 ar
    34   23   24 ar
    35   23   42 1
    36   24   25 ar
    37   24   46 1
    38   25   26 ar
    39   25   32 ar
    40   26   27 2
    41   26   28 ar
    42   28   29 ar
    43   28   43 1
    44   29   30 1
    45   29   31 ar
    46   30   44 1
    47   30   45 1
    48   31   32 ar
@<TRIPOS>SUBSTRUCTURE
     1 GTP         1 GROUP 0 A     ****
@<TRIPOS>MOLECULE
[[[5-(2-amino-6-oxo-7,8-dihydro-1~{H}-purin-8-ylium-9-yl)-3,4-dihydroxy-tetrahydrofuran-2-yl]methoxy-oxido-phosphoryl]oxy-hydroxy-phosphoryl] phosphate
   46    48     1     0     0
SMALL
USER_CHARGES

@<TRIPOS>ATOM
      1 PG          4.1158   -3.3618   -8.0150 P.3       1 GTP        -1.1921
      2 O1G         2.7614   -3.3208   -8.7152 O.co2     1 GTP         0.3195
      3 O2G         4.6012   -4.7664   -7.6722 O.co2     1 GTP         0.3195
      4 O3G         5.1783   -2.4697   -8.6485 O.co2     1 GTP         0.3195
      5 O3B         3.8310   -2.6737   -6.5444 O.3       1 GTP         0.4672
      6 PB          3.2987   -1.1950   -6.1615 P.3       1 GTP        -0.9715
      7 O1B         4.1657   -0.0686   -6.6413 O.2       1 GTP         0.2707
      8 O2B         1.7899   -1.1898   -6.7424 O.3       1 GTP         0.0326
      9 O3A         3.0871   -1.2746   -4.5620 O.3       1 GTP         0.4672
     10 PA          2.1265   -2.2419   -3.6650 P.3       1 GTP        -1.1062
     11 O1A         0.6845   -1.8905   -3.9597 O.co2     1 GTP         0.3195
     12 O2A         2.6267   -3.6645   -3.7894 O.co2     1 GTP         0.3195
     13 O5'         2.5245   -1.6648   -2.1878 O.3       1 GTP         0.1618
     14 C5'         2.2816   -0.2918   -1.9206 C.3       1 GTP         0.1504
     15 C4'         2.7248    0.0226   -0.4980 C.3       1 GTP         0.1111
     16 O4'         2.4697    1.4219   -0.2462 O.3       1 GTP        -0.1436
     17 C3'         1.9404   -0.7419    0.5596 C.3       1 GTP         0.1111
     18 O3'         2.7418   -0.8086    1.7389 O.3       1 GTP        -0.2728
     19 C2'         0.7477    0.1630    0.7858 C.3       1 GTP         0.1111
     20 O2'         0.1373   -0.0577    2.0407 O.3       1 GTP        -0.2728
     21 C1'         1.3733    1.5427    0.6747 C.3       1 GTP         0.2693
     22 N9          0.4520    2.5240    0.1767 N.pl3     1 GTP        -0.3222
     23 C8          0.2203    2.8205   -1.0970 C.ar      1 GTP         0.1640
     24 N7         -0.6947    3.7752   -1.2304 N.pl3     1 GTP        -0.3688
     25 C5         -1.0607    4.0987    0.0476 C.ar      1 GTP         0.0648
     26 C6         -2.0310    5.0839    0.5029 C.ar      1 GTP         0.3597
     27 O6         -2.6779    5.7867   -0.2609 O.2       1 GTP        -0.2755
     28 N1         -2.1030    5.0975    1.8948 N.pl3     1 GTP        -0.1604
     29 C2         -1.3422    4.2721    2.7403 C.ar      1 GTP         0.4468
     30 N2         -1.5624    4.4419    4.0823 N.pl3     1 GTP        -0.5618
     31 N3         -0.4796    3.3981    2.2792 N.2       1 GTP        -0.4283
     32 C4         -0.3754    3.3496    0.9208 C.ar      1 GTP         0.2226
     33 HOB2        1.2143   -0.4168   -6.5596 H         1 GTP         0.2010
     34 H5'         2.8432    0.3119   -2.6398 H         1 GTP        -0.0393
     35 H5''        1.2128   -0.0927   -2.0428 H         1 GTP        -0.0393
     36 H4'         3.8044   -0.1397   -0.4040 H         1 GTP        -0.0393
     37 H3'         1.6764   -1.7639    0.2728 H         1 GTP        -0.0393
     38 HO3'        2.2232   -1.2979    2.3953 H         1 GTP         0.2010
     39 H2'        -0.0011    0.0027    0.0003 H         1 GTP        -0.0393
     40 HO2'       -0.6141    0.5574    2.1082 H         1 GTP         0.2010
     41 H1'         1.7826    1.9024    1.6451 H         1 GTP        -0.0393
     42 H8          0.7110    2.3472   -1.9295 H         1 GTP         0.0000
     43 HN1        -2.7504    5.7495    2.3282 H         1 GTP         0.0865
     44 HN21       -1.0467    3.8796    4.7190 H         1 GTP         0.2048
     45 HN22       -2.2294    5.1209    4.3680 H         1 GTP         0.2048
     46 H46        -1.0382    4.1687   -2.0954 H         1 GTP         0.2048
@<TRIPOS>BOND
     1    1    2 2
     2    1    3 1
     3    1    4 1
     4    1    5 1
     5    5    6 1
     6    6    7 2
     7    6    8 1
     8    6    9 1
     9    8   33 1
    10    9   10 1
    11   10   11 2
    12   10   12 1
    13   10   13 1
    14   13   14 1
    15   14   15 1
    16   14   34 1
    17   14   35 1
    18   15   16 1
    19   15   17 1
    20   15   36 1
    21   16   21 1
    22   17   18 1
    23   17   19 1
    24   17   37 1
    25   18   38 1
    26   19   20 1
    27   19   21 1
    28   19   39 1
    29   20   40 1
    30   21   22 1
    31   21   41 1
    32   22   23 ar
    33   22   32 ar
    34   23   24 ar
    35   23   42 1
    36   24   25 ar
    37   24   46 1
    38   25   26 ar
    39   25   32 ar
    40   26   27 2
    41   26   28 ar
    42   28   29 ar
    43   28   43 1
    44   29   30 1
    45   29   31 ar
    46   30   44 1
    47   30   45 1
    48   31   32 ar
@<TRIPOS>SUBSTRUCTURE
     1 GTP         1 GROUP 0 A     ****
@<TRIPOS>MOLECULE
[[[5-(2-amino-6-oxo-7,8-dihydro-1~{H}-purin-8-ylium-9-yl)-3,4-dihydroxy-tetrahydrofuran-2-yl]methoxy-oxido-phosphoryl]oxy-hydroxy-phosphoryl] phosphate
   46    48     1     0     0
SMALL
USER_CHARGES

@<TRIPOS>ATOM
      1 PG          6.3905   -3.4641   -2.2861 P.3       1 GTP        -1.1921
      2 O1G         6.4975   -2.9623   -0.8498 O.co2     1 GTP         0.3195
      3 O2G         7.4628   -4.4757   -2.6775 O.co2     1 GTP         0.3195
      4 O3G         4.9787   -3.8519   -2.7132 O.co2     1 GTP         0.3195
      5 O3B         6.7439   -2.1408   -3.2035 O.3       1 GTP         0.4672
      6 PB          6.0140   -0.7002   -3.2948 P.3       1 GTP        -0.9715
      7 O1B         5.9731    0.0690   -2.0075 O.2       1 GTP         0.2707
      8 O2B         6.8026    0.0312   -4.5020 O.3       1 GTP         0.0326
      9 O3A         4.5749   -1.0487   -3.9406 O.3       1 GTP         0.4672
     10 PA          3.3181   -0.0790   -4.3186 P.3       1 GTP        -1.1062
     11 O1A         3.8255    1.0395   -5.2024 O.co2     1 GTP         0.3195
     12 O2A         2.1532   -0.9459   -4.7443 O.co2     1 GTP         0.3195
     13 O5'         3.0213    0.5153   -2.8245 O.3       1 GTP         0.1618
     14 C5'         2.2816   -0.2918   -1.9206 C.3       1 GTP         0.1504
     15 C4'         2.7248    0.0226   -0.4980 C.3       1 GTP         0.1111
     16 O4'         2.4697    1.4219   -0.2462 O.3       1 GTP        -0.1436
     17 C3'         1.9404   -0.7419    0.5596 C.3       1 GTP         0.1111
     18 O3'         2.7418   -0.8086    1.7389 O.3       1 GTP        -0.2728
     19 C2'         0.7477    0.1630    0.7858 C.3       1 GTP         0.1111
     20 O2'         0.1373   -0.0577    2.0407 O.3       1 GTP        -0.2728
     21 C1'         1.3733    1.5427    0.6747 C.3       1 GTP         0.2693
     22 N9          0.4520    2.5240    0.1767 N.pl3     1 GTP        -0.3222
     23 C8         -0.2009    2.4849   -0.9792 C.ar      1 GTP         0.1640
     24 N7         -0.9840    3.5454   -1.1481 N.pl3     1 GTP        -0.3688
     25 C5         -0.8090    4.3005   -0.0206 C.ar      1 GTP         0.0648
     26 C6         -1.4206    5.5724    0.3362 C.ar      1 GTP         0.3597
     27 O6         -2.2199    6.1544   -0.3836 O.2       1 GTP        -0.2755
     28 N1         -0.9680    6.0043    1.5817 N.pl3     1 GTP        -0.1604
     29 C2         -0.0474    5.3055    2.3814 C.ar      1 GTP         0.4468
     30 N2          0.2680    5.9024    3.5740 N.pl3     1 GTP        -0.5618
     31 N3          0.4755    4.1601    2.0138 N.2       1 GTP        -0.4283
     32 C4          0.0611    3.6981    0.8001 C.ar      1 GTP         0.2226
     33 HOB2        6.4858    0.9056   -4.8139 H         1 GTP         0.2010
     34 H5'         1.2163   -0.0770   -2.0471 H         1 GTP        -0.0393
     35 H5''        2.4655   -1.3443   -2.1563 H         1 GTP        -0.0393
     36 H4'         3.8044   -0.1397   -0.4040 H         1 GTP        -0.0393
     37 H3'         1.6764   -1.7639    0.2728 H         1 GTP        -0.0393
     38 HO3'        2.2232   -1.2979    2.3953 H         1 GTP         0.2010
     39 H2'        -0.0011    0.0027    0.0003 H         1 GTP        -0.0393
     40 HO2'       -0.6141    0.5574    2.1082 H         1 GTP         0.2010
     41 H1'         1.7826    1.9024    1.6451 H         1 GTP        -0.0393
     42 H8         -0.1126    1.6906   -1.6997 H         1 GTP         0.0000
     43 HN1        -1.3285    6.8855    1.9361 H         1 GTP         0.0865
     44 HN21        0.9153    5.4446    4.1732 H         1 GTP         0.2048
     45 HN22       -0.1624    6.7706    3.7948 H         1 GTP         0.2048
     46 H46        -1.5768    3.7405   -1.9429 H         1 GTP         0.2048
@<TRIPOS>BOND
     1    1    2 2
     2    1    3 1
     3    1    4 1
     4    1    5 1
     5    5    6 1
     6    6    7 2
     7    6    8 1
     8    6    9 1
     9    8   33 1
    10    9   10 1
    11   10   11 2
    12   10   12 1
    13   10   13 1
    14   13   14 1
    15   14   15 1
    16   14   34 1
    17   14   35 1
    18   15   16 1
    19   15   17 1
    20   15   36 1
    21   16   21 1
    22   17   18 1
    23   17   19 1
    24   17   37 1
    25   18   38 1
    26   19   20 1
    27   19   21 1
    28   19   39 1
    29   20   40 1
    30   21   22 1
    31   21   41 1
    32   22   23 ar
    33   22   32 ar
    34   23   24 ar
    35   23   42 1
    36   24   25 ar
    37   24   46 1
    38   25   26 ar
    39   25   32 ar
    40   26   27 2
    41   26   28 ar
    42   28   29 ar
    43   28   43 1
    44   29   30 1
    45   29   31 ar
    46   30   44 1
    47   30   45 1
    48   31   32 ar
@<TRIPOS>SUBSTRUCTURE
     1 GTP         1 GROUP 0 A     ****
@<TRIPOS>MOLECULE
[[[5-(2-amino-6-oxo-7,8-dihydro-1~{H}-purin-8-ylium-9-yl)-3,4-dihydroxy-tetrahydrofuran-2-yl]methoxy-oxido-phosphoryl]oxy-hydroxy-phosphoryl] phosphate
   46    48     1     0     0
SMALL
USER_CHARGES

@<TRIPOS>ATOM
      1 PG         -2.0552   -3.1286   -2.3939 P.3       1 GTP        -1.1921
      2 O1G        -1.9574   -2.9390   -0.8837 O.co2     1 GTP         0.3195
      3 O2G        -3.2878   -3.9031   -2.8492 O.co2     1 GTP         0.3195
      4 O3G        -1.7729   -1.8685   -3.2055 O.co2     1 GTP         0.3195
      5 O3B        -0.8014   -4.1354   -2.7566 O.3       1 GTP         0.4672
      6 PB          0.7912   -3.9493   -2.5432 P.3       1 GTP        -0.9715
      7 O1B         1.2182   -3.7545   -1.1183 O.2       1 GTP         0.2707
      8 O2B         1.4104   -5.2548   -3.2686 O.3       1 GTP         0.0326
      9 O3A         1.1668   -2.7438   -3.5507 O.3       1 GTP         0.4672
     10 PA          2.5993   -2.0261   -3.8600 P.3       1 GTP        -1.1062
     11 O1A         3.6032   -3.0983   -4.2235 O.co2     1 GTP         0.3195
     12 O2A         2.3566   -0.8406   -4.7685 O.co2     1 GTP         0.3195
     13 O5'         2.9216   -1.4836   -2.3516 O.3       1 GTP         0.1618
     14 C5'         2.2816   -0.2918   -1.9206 C.3       1 GTP         0.1504
     15 C4'         2.7248    0.0226   -0.4980 C.3       1 GTP         0.1111
     16 O4'         2.4697    1.4219   -0.2462 O.3       1 GTP        -0.1436
     17 C3'         1.9404   -0.7419    0.5596 C.3       1 GTP         0.1111
     18 O3'         2.7418   -0.8086    1.7389 O.3       1 GTP        -0.2728
     19 C2'         0.7477    0.1630    0.7858 C.3       1 GTP         0.1111
     20 O2'         0.1373   -0.0577    2.0407 O.3       1 GTP        -0.2728
     21 C1'         1.3733    1.5427    0.6747 C.3       1 GTP         0.2693
     22 N9          0.4520    2.5240    0.1767 N.pl3     1 GTP        -0.3222
     23 C8          0.2203    2.8205   -1.0970 C.ar      1 GTP         0.1640
     24 N7         -0.6947    3.7752   -1.2304 N.pl3     1 GTP        -0.3688
     25 C5         -1.0607    4.0987    0.0476 C.ar      1 GTP         0.0648
     26 C6         -2.0310    5.0839    0.5029 C.ar      1 GTP         0.3597
     27 O6         -2.6779    5.7867   -0.2609 O.2       1 GTP        -0.2755
     28 N1         -2.1030    5.0975    1.8948 N.pl3     1 GTP        -0.1604
     29 C2         -1.3422    4.2721    2.7403 C.ar      1 GTP         0.4468
     30 N2         -1.5624    4.4419    4.0823 N.pl3     1 GTP        -0.5618
     31 N3         -0.4796    3.3981    2.2792 N.2       1 GTP        -0.4283
     32 C4         -0.3754    3.3496    0.9208 C.ar      1 GTP         0.2226
     33 HOB2        2.3847   -5.3341   -3.3504 H         1 GTP         0.2010
     34 H5'         2.5589    0.5217   -2.5976 H         1 GTP        -0.0393
     35 H5''        1.1982   -0.4388   -1.9617 H         1 GTP        -0.0393
     36 H4'         3.8044   -0.1397   -0.4040 H         1 GTP        -0.0393
     37 H3'         1.6764   -1.7639    0.2728 H         1 GTP        -0.0393
     38 HO3'        2.2232   -1.2979    2.3953 H         1 GTP         0.2010
     39 H2'        -0.0011    0.0027    0.0003 H         1 GTP        -0.0393
     40 HO2'       -0.6141    0.5574    2.1082 H         1 GTP         0.2010
     41 H1'         1.7826    1.9024    1.6451 H         1 GTP        -0.0393
     42 H8          0.7110    2.3472   -1.9295 H         1 GTP         0.0000
     43 HN1        -2.7504    5.7495    2.3282 H         1 GTP         0.0865
     44 HN21       -1.0467    3.8796    4.7190 H         1 GTP         0.2048
     45 HN22       -2.2294    5.1209    4.3680 H         1 GTP         0.2048
     46 H46        -1.0382    4.1687   -2.0954 H         1 GTP         0.2048
@<TRIPOS>BOND
     1    1    2 2
     2    1    3 1
     3    1    4 1
     4    1    5 1
     5    5    6 1
     6    6    7 2
     7    6    8 1
     8    6    9 1
     9    8   33 1
    10    9   10 1
    11   10   11 2
    12   10   12 1
    13   10   13 1
    14   13   14 1
    15   14   15 1
    16   14   34 1
    17   14   35 1
    18   15   16 1
    19   15   17 1
    20   15   36 1
    21   16   21 1
    22   17   18 1
    23   17   19 1
    24   17   37 1
    25   18   38 1
    26   19   20 1
    27   19   21 1
    28   19   39 1
    29   20   40 1
    30   21   22 1
    31   21   41 1
    32   22   23 ar
    33   22   32 ar
    34   23   24 ar
    35   23   42 1
    36   24   25 ar
    37   24   46 1
    38   25   26 ar
    39   25   32 ar
    40   26   27 2
    41   26   28 ar
    42   28   29 ar
    43   28   43 1
    44   29   30 1
    45   29   31 ar
    46   30   44 1
    47   30   45 1
    48   31   32 ar
@<TRIPOS>SUBSTRUCTURE
     1 GTP         1 GROUP 0 A     ****
@<TRIPOS>MOLECULE
[[[5-(2-amino-6-oxo-7,8-dihydro-1~{H}-purin-8-ylium-9-yl)-3,4-dihydroxy-tetrahydrofuran-2-yl]methoxy-oxido-phosphoryl]oxy-hydroxy-phosphoryl] phosphate
   46    48     1     0     0
SMALL
USER_CHARGES

@<TRIPOS>ATOM
      1 PG          8.7239   -1.4684   -4.5846 P.3       1 GTP        -1.1921
      2 O1G         9.5000   -1.7462   -3.3013 O.co2     1 GTP         0.3195
      3 O2G         9.1408   -0.1899   -5.3042 O.co2     1 GTP         0.3195
      4 O3G         8.5674   -2.6787   -5.4993 O.co2     1 GTP         0.3195
      5 O3B         7.1915   -1.1479   -4.0684 O.3       1 GTP         0.4672
      6 PB          6.1498   -2.0640   -3.2366 P.3       1 GTP        -0.9715
      7 O1B         5.7711   -3.3532   -3.9039 O.2       1 GTP         0.2707
      8 O2B         6.8745   -2.2263   -1.8004 O.3       1 GTP         0.0326
      9 O3A         4.9253   -1.0561   -2.9297 O.3       1 GTP         0.4672
     10 PA          3.9458   -0.2356   -3.9447 P.3       1 GTP        -1.1062
     11 O1A         4.7730    0.7993   -4.6757 O.co2     1 GTP         0.3195
     12 O2A         3.0931   -1.2318   -4.6998 O.co2     1 GTP         0.3195
     13 O5'         3.0213    0.5153   -2.8245 O.3       1 GTP         0.1618
     14 C5'         2.2816   -0.2918   -1.9206 C.3       1 GTP         0.1504
     15 C4'         2.7248    0.0226   -0.4980 C.3       1 GTP         0.1111
     16 O4'         2.4697    1.4219   -0.2462 O.3       1 GTP        -0.1436
     17 C3'         1.9404   -0.7419    0.5596 C.3       1 GTP         0.1111
     18 O3'         2.7418   -0.8086    1.7389 O.3       1 GTP        -0.2728
     19 C2'         0.7477    0.1630    0.7858 C.3       1 GTP         0.1111
     20 O2'         0.1373   -0.0577    2.0407 O.3       1 GTP        -0.2728
     21 C1'         1.3733    1.5427    0.6747 C.3       1 GTP         0.2693
     22 N9          0.4520    2.5240    0.1767 N.pl3     1 GTP        -0.3222
     23 C8          0.2203    2.8205   -1.0970 C.ar      1 GTP         0.1640
     24 N7         -0.6947    3.7752   -1.2304 N.pl3     1 GTP        -0.3688
     25 C5         -1.0607    4.0987    0.0476 C.ar      1 GTP         0.0648
     26 C6         -2.0310    5.0839    0.5029 C.ar      1 GTP         0.3597
     27 O6         -2.6779    5.7867   -0.2609 O.2       1 GTP        -0.2755
     28 N1         -2.1030    5.0975    1.8948 N.pl3     1 GTP        -0.1604
     29 C2         -1.3422    4.2721    2.7403 C.ar      1 GTP         0.4468
     30 N2         -1.5624    4.4419    4.0823 N.pl3     1 GTP        -0.5618
     31 N3         -0.4796    3.3981    2.2792 N.2       1 GTP        -0.4283
     32 C4         -0.3754    3.3496    0.9208 C.ar      1 GTP         0.2226
     33 HOB2        6.3941   -2.6806   -1.0758 H         1 GTP         0.2010
     34 H5'         1.2163   -0.0770   -2.0471 H         1 GTP        -0.0393
     35 H5''        2.4655   -1.3443   -2.1563 H         1 GTP        -0.0393
     36 H4'         3.8044   -0.1397   -0.4040 H         1 GTP        -0.0393
     37 H3'         1.6764   -1.7639    0.2728 H         1 GTP        -0.0393
     38 HO3'        2.2232   -1.2979    2.3953 H         1 GTP         0.2010
     39 H2'        -0.0011    0.0027    0.0003 H         1 GTP        -0.0393
     40 HO2'       -0.6141    0.5574    2.1082 H         1 GTP         0.2010
     41 H1'         1.7826    1.9024    1.6451 H         1 GTP        -0.0393
     42 H8          0.7110    2.3472   -1.9295 H         1 GTP         0.0000
     43 HN1        -2.7504    5.7495    2.3282 H         1 GTP         0.0865
     44 HN21       -1.0467    3.8796    4.7190 H         1 GTP         0.2048
     45 HN22       -2.2294    5.1209    4.3680 H         1 GTP         0.2048
     46 H46        -1.0382    4.1687   -2.0954 H         1 GTP         0.2048
@<TRIPOS>BOND
     1    1    2 2
     2    1    3 1
     3    1    4 1
     4    1    5 1
     5    5    6 1
     6    6    7 2
     7    6    8 1
     8    6    9 1
     9    8   33 1
    10    9   10 1
    11   10   11 2
    12   10   12 1
    13   10   13 1
    14   13   14 1
    15   14   15 1
    16   14   34 1
    17   14   35 1
    18   15   16 1
    19   15   17 1
    20   15   36 1
    21   16   21 1
    22   17   18 1
    23   17   19 1
    24   17   37 1
    25   18   38 1
    26   19   20 1
    27   19   21 1
    28   19   39 1
    29   20   40 1
    30   21   22 1
    31   21   41 1
    32   22   23 ar
    33   22   32 ar
    34   23   24 ar
    35   23   42 1
    36   24   25 ar
    37   24   46 1
    38   25   26 ar
    39   25   32 ar
    40   26   27 2
    41   26   28 ar
    42   28   29 ar
    43   28   43 1
    44   29   30 1
    45   29   31 ar
    46   30   44 1
    47   30   45 1
    48   31   32 ar
@<TRIPOS>SUBSTRUCTURE
     1 GTP         1 GROUP 0 A     ****
@<TRIPOS>MOLECULE
[[[5-(2-amino-6-oxo-7,8-dihydro-1~{H}-purin-8-ylium-9-yl)-3,4-dihydroxy-tetrahydrofuran-2-yl]methoxy-oxido-phosphoryl]oxy-hydroxy-phosphoryl] phosphate
   46    48     1     0     0
SMALL
USER_CHARGES

@<TRIPOS>ATOM
      1 PG          6.7654   -3.1021   -5.2464 P.3       1 GTP        -1.1921
      2 O1G         7.1966   -2.2917   -6.4644 O.co2     1 GTP         0.3195
      3 O2G         6.5856   -4.5922   -5.5174 O.co2     1 GTP         0.3195
      4 O3G         7.5444   -2.7870   -3.9736 O.co2     1 GTP         0.3195
      5 O3B         5.2369   -2.5723   -4.9295 O.3       1 GTP         0.4672
      6 PB          4.6924   -1.0945   -4.5606 P.3       1 GTP        -0.9715
      7 O1B         5.2730   -0.5021   -3.3106 O.2       1 GTP         0.2707
      8 O2B         4.9794   -0.2534   -5.9113 O.3       1 GTP         0.0326
      9 O3A         3.0871   -1.2746   -4.5620 O.3       1 GTP         0.4672
     10 PA          2.1265   -2.2419   -3.6650 P.3       1 GTP        -1.1062
     11 O1A         0.6845   -1.8905   -3.9597 O.co2     1 GTP         0.3195
     12 O2A         2.6267   -3.6645   -3.7894 O.co2     1 GTP         0.3195
     13 O5'         2.5245   -1.6648   -2.1878 O.3       1 GTP         0.1618
     14 C5'         2.2816   -0.2918   -1.9206 C.3       1 GTP         0.1504
     15 C4'         2.7248    0.0226   -0.4980 C.3       1 GTP         0.1111
     16 O4'         2.4697    1.4219   -0.2462 O.3       1 GTP        -0.1436
     17 C3'         1.9404   -0.7419    0.5596 C.3       1 GTP         0.1111
     18 O3'         2.7418   -0.8086    1.7389 O.3       1 GTP        -0.2728
     19 C2'         0.7477    0.1630    0.7858 C.3       1 GTP         0.1111
     20 O2'         0.1373   -0.0577    2.0407 O.3       1 GTP        -0.2728
     21 C1'         1.3733    1.5427    0.6747 C.3       1 GTP         0.2693
     22 N9          0.4520    2.5240    0.1767 N.pl3     1 GTP        -0.3222
     23 C8          0.2203    2.8205   -1.0970 C.ar      1 GTP         0.1640
     24 N7         -0.6947    3.7752   -1.2304 N.pl3     1 GTP        -0.3688
     25 C5         -1.0607    4.0987    0.0476 C.ar      1 GTP         0.0648
     26 C6         -2.0310    5.0839    0.5029 C.ar      1 GTP         0.3597
     27 O6         -2.6779    5.7867   -0.2609 O.2       1 GTP        -0.2755
     28 N1         -2.1030    5.0975    1.8948 N.pl3     1 GTP        -0.1604
     29 C2         -1.3422    4.2721    2.7403 C.ar      1 GTP         0.4468
     30 N2         -1.5624    4.4419    4.0823 N.pl3     1 GTP        -0.5618
     31 N3         -0.4796    3.3981    2.2792 N.2       1 GTP        -0.4283
     32 C4         -0.3754    3.3496    0.9208 C.ar      1 GTP         0.2226
     33 HOB2        5.9085   -0.1025   -6.1872 H         1 GTP         0.2010
     34 H5'         2.8432    0.3119   -2.6398 H         1 GTP        -0.0393
     35 H5''        1.2128   -0.0927   -2.0428 H         1 GTP        -0.0393
     36 H4'         3.8044   -0.1397   -0.4040 H         1 GTP        -0.0393
     37 H3'         1.6764   -1.7639    0.2728 H         1 GTP        -0.0393
     38 HO3'        2.2232   -1.2979    2.3953 H         1 GTP         0.2010
     39 H2'        -0.0011    0.0027    0.0003 H         1 GTP        -0.0393
     40 HO2'       -0.6141    0.5574    2.1082 H         1 GTP         0.2010
     41 H1'         1.7826    1.9024    1.6451 H         1 GTP        -0.0393
     42 H8          0.7110    2.3472   -1.9295 H         1 GTP         0.0000
     43 HN1        -2.7504    5.7495    2.3282 H         1 GTP         0.0865
     44 HN21       -1.0467    3.8796    4.7190 H         1 GTP         0.2048
     45 HN22       -2.2294    5.1209    4.3680 H         1 GTP         0.2048
     46 H46        -1.0382    4.1687   -2.0954 H         1 GTP         0.2048
@<TRIPOS>BOND
     1    1    2 2
     2    1    3 1
     3    1    4 1
     4    1    5 1
     5    5    6 1
     6    6    7 2
     7    6    8 1
     8    6    9 1
     9    8   33 1
    10    9   10 1
    11   10   11 2
    12   10   12 1
    13   10   13 1
    14   13   14 1
    15   14   15 1
    16   14   34 1
    17   14   35 1
    18   15   16 1
    19   15   17 1
    20   15   36 1
    21   16   21 1
    22   17   18 1
    23   17   19 1
    24   17   37 1
    25   18   38 1
    26   19   20 1
    27   19   21 1
    28   19   39 1
    29   20   40 1
    30   21   22 1
    31   21   41 1
    32   22   23 ar
    33   22   32 ar
    34   23   24 ar
    35   23   42 1
    36   24   25 ar
    37   24   46 1
    38   25   26 ar
    39   25   32 ar
    40   26   27 2
    41   26   28 ar
    42   28   29 ar
    43   28   43 1
    44   29   30 1
    45   29   31 ar
    46   30   44 1
    47   30   45 1
    48   31   32 ar
@<TRIPOS>SUBSTRUCTURE
     1 GTP         1 GROUP 0 A     ****
@<TRIPOS>MOLECULE
[[[5-(2-amino-6-oxo-7,8-dihydro-1~{H}-purin-8-ylium-9-yl)-3,4-dihydroxy-tetrahydrofuran-2-yl]methoxy-oxido-phosphoryl]oxy-hydroxy-phosphoryl] phosphate
   46    48     1     0     0
SMALL
USER_CHARGES

@<TRIPOS>ATOM
      1 PG          1.5695    2.2712   -8.4669 P.3       1 GTP        -1.1921
      2 O1G         1.2694    0.9668   -9.1981 O.co2     1 GTP         0.3195
      3 O2G         2.9057    2.9050   -8.8397 O.co2     1 GTP         0.3195
      4 O3G         0.4019    3.2516   -8.4252 O.co2     1 GTP         0.3195
      5 O3B         1.7744    1.8156   -6.8960 O.3       1 GTP         0.4672
      6 PB          0.7579    1.0825   -5.8734 P.3       1 GTP        -0.9715
      7 O1B        -0.5140    1.8309   -5.6034 O.2       1 GTP         0.2707
      8 O2B         0.5620   -0.3777   -6.5395 O.3       1 GTP         0.0326
      9 O3A         1.6767    0.7864   -4.5782 O.3       1 GTP         0.4672
     10 PA          3.0383   -0.0994   -4.4226 P.3       1 GTP        -1.1062
     11 O1A         2.6929   -1.5534   -4.6599 O.co2     1 GTP         0.3195
     12 O2A         4.1447    0.5793   -5.2003 O.co2     1 GTP         0.3195
     13 O5'         3.2903    0.1346   -2.8241 O.3       1 GTP         0.1618
     14 C5'         2.2816   -0.2918   -1.9206 C.3       1 GTP         0.1504
     15 C4'         2.7248    0.0226   -0.4980 C.3       1 GTP         0.1111
     16 O4'         2.4697    1.4219   -0.2462 O.3       1 GTP        -0.1436
     17 C3'         1.9404   -0.7419    0.5596 C.3       1 GTP         0.1111
     18 O3'         2.7418   -0.8086    1.7389 O.3       1 GTP        -0.2728
     19 C2'         0.7477    0.1630    0.7858 C.3       1 GTP         0.1111
     20 O2'         0.1373   -0.0577    2.0407 O.3       1 GTP        -0.2728
     21 C1'         1.3733    1.5427    0.6747 C.3       1 GTP         0.2693
     22 N9          0.4520    2.5240    0.1767 N.pl3     1 GTP        -0.3222
     23 C8         -0.6818    2.9109    0.7501 C.ar      1 GTP         0.1640
     24 N7         -1.3103    3.8415    0.0391 N.pl3     1 GTP        -0.3688
     25 C5         -0.5155    4.0512   -1.0547 C.ar      1 GTP         0.0648
     26 C6         -0.7125    4.9651   -2.1705 C.ar      1 GTP         0.3597
     27 O6         -1.6819    5.7047   -2.2651 O.2       1 GTP        -0.2755
     28 N1          0.3401    4.8672   -3.0790 N.pl3     1 GTP        -0.1604
     29 C2          1.4396    4.0039   -2.9348 C.ar      1 GTP         0.4468
     30 N2          2.3679    4.0602   -3.9414 N.pl3     1 GTP        -0.5618
     31 N3          1.5708    3.1983   -1.9080 N.2       1 GTP        -0.4283
     32 C4          0.5630    3.2599   -0.9921 C.ar      1 GTP         0.2226
     33 HOB2        0.1141   -0.4455   -7.4095 H         1 GTP         0.2010
     34 H5'         1.3514    0.2330   -2.1577 H         1 GTP        -0.0393
     35 H5''        2.1280   -1.3678   -2.0460 H         1 GTP        -0.0393
     36 H4'         3.8044   -0.1397   -0.4040 H         1 GTP        -0.0393
     37 H3'         1.6764   -1.7639    0.2728 H         1 GTP        -0.0393
     38 HO3'        2.2232   -1.2979    2.3953 H         1 GTP         0.2010
     39 H2'        -0.0011    0.0027    0.0003 H         1 GTP        -0.0393
     40 HO2'       -0.1563   -0.9855    2.0596 H         1 GTP         0.2010
     41 H1'         1.7826    1.9024    1.6451 H         1 GTP        -0.0393
     42 H8         -1.0545    2.5222    1.6816 H         1 GTP         0.0000
     43 HN1         0.3104    5.4612   -3.9026 H         1 GTP         0.0865
     44 HN21        3.1632    3.4672   -3.8824 H         1 GTP         0.2048
     45 HN22        2.2108    4.6918   -4.6924 H         1 GTP         0.2048
     46 H46        -2.1863    4.2902    0.2681 H         1 GTP         0.2048
@<TRIPOS>BOND
     1    1    2 2
     2    1    3 1
     3    1    4 1
     4    1    5 1
     5    5    6 1
     6    6    7 2
     7    6    8 1
     8    6    9 1
     9    8   33 1
    10    9   10 1
    11   10   11 2
    12   10   12 1
    13   10   13 1
    14   13   14 1
    15   14   15 1
    16   14   34 1
    17   14   35 1
    18   15   16 1
    19   15   17 1
    20   15   36 1
    21   16   21 1
    22   17   18 1
    23   17   19 1
    24   17   37 1
    25   18   38 1
    26   19   20 1
    27   19   21 1
    28   19   39 1
    29   20   40 1
    30   21   22 1
    31   21   41 1
    32   22   23 ar
    33   22   32 ar
    34   23   24 ar
    35   23   42 1
    36   24   25 ar
    37   24   46 1
    38   25   26 ar
    39   25   32 ar
    40   26   27 2
    41   26   28 ar
    42   28   29 ar
    43   28   43 1
    44   29   30 1
    45   29   31 ar
    46   30   44 1
    47   30   45 1
    48   31   32 ar
@<TRIPOS>SUBSTRUCTURE
     1 GTP         1 GROUP 0 A     ****
@<TRIPOS>MOLECULE
[[[5-(2-amino-6-oxo-7,8-dihydro-1~{H}-purin-8-ylium-9-yl)-3,4-dihydroxy-tetrahydrofuran-2-yl]methoxy-oxido-phosphoryl]oxy-hydroxy-phosphoryl] phosphate
   46    48     1     0     0
SMALL
USER_CHARGES

@<TRIPOS>ATOM
      1 PG          0.2412   -2.0122   -6.6523 P.3       1 GTP        -1.1921
      2 O1G         0.8466   -1.8283   -8.0401 O.co2     1 GTP         0.3195
      3 O2G        -1.0954   -2.7470   -6.6446 O.co2     1 GTP         0.3195
      4 O3G         1.2279   -2.4969   -5.5951 O.co2     1 GTP         0.3195
      5 O3B        -0.1474   -0.4829   -6.1754 O.3       1 GTP         0.4672
      6 PB          0.7860    0.8213   -5.9653 P.3       1 GTP        -0.9715
      7 O1B         1.5217    1.2747   -7.1916 O.2       1 GTP         0.2707
      8 O2B        -0.2394    1.9064   -5.3446 O.3       1 GTP         0.0326
      9 O3A         1.7163    0.4187   -4.7075 O.3       1 GTP         0.4672
     10 PA          2.8924    1.2553   -3.9461 P.3       1 GTP        -1.1062
     11 O1A         4.0520    1.4291   -4.9026 O.co2     1 GTP         0.3195
     12 O2A         2.2644    2.4449   -3.2532 O.co2     1 GTP         0.3195
     13 O5'         3.2903    0.1346   -2.8241 O.3       1 GTP         0.1618
     14 C5'         2.2816   -0.2918   -1.9206 C.3       1 GTP         0.1504
     15 C4'         2.7248    0.0226   -0.4980 C.3       1 GTP         0.1111
     16 O4'         2.4697    1.4219   -0.2462 O.3       1 GTP        -0.1436
     17 C3'         1.9404   -0.7419    0.5596 C.3       1 GTP         0.1111
     18 O3'         2.7418   -0.8086    1.7389 O.3       1 GTP        -0.2728
     19 C2'         0.7477    0.1630    0.7858 C.3       1 GTP         0.1111
     20 O2'         0.1373   -0.0577    2.0407 O.3       1 GTP        -0.2728
     21 C1'         1.3733    1.5427    0.6747 C.3       1 GTP         0.2693
     22 N9          0.4520    2.5240    0.1767 N.pl3     1 GTP        -0.3222
     23 C8         -0.2009    2.4849   -0.9792 C.ar      1 GTP         0.1640
     24 N7         -0.9840    3.5454   -1.1481 N.pl3     1 GTP        -0.3688
     25 C5         -0.8090    4.3005   -0.0206 C.ar      1 GTP         0.0648
     26 C6         -1.4206    5.5724    0.3362 C.ar      1 GTP         0.3597
     27 O6         -2.2199    6.1544   -0.3836 O.2       1 GTP        -0.2755
     28 N1         -0.9680    6.0043    1.5817 N.pl3     1 GTP        -0.1604
     29 C2         -0.0474    5.3055    2.3814 C.ar      1 GTP         0.4468
     30 N2          0.2680    5.9024    3.5740 N.pl3     1 GTP        -0.5618
     31 N3          0.4755    4.1601    2.0138 N.2       1 GTP        -0.4283
     32 C4          0.0611    3.6981    0.8001 C.ar      1 GTP         0.2226
     33 HOB2        0.1108    2.7726   -5.0459 H         1 GTP         0.2010
     34 H5'         1.3514    0.2330   -2.1577 H         1 GTP        -0.0393
     35 H5''        2.1280   -1.3678   -2.0460 H         1 GTP        -0.0393
     36 H4'         3.8044   -0.1397   -0.4040 H         1 GTP        -0.0393
     37 H3'         1.6764   -1.7639    0.2728 H         1 GTP        -0.0393
     38 HO3'        2.2232   -1.2979    2.3953 H         1 GTP         0.2010
     39 H2'        -0.0011    0.0027    0.0003 H         1 GTP        -0.0393
     40 HO2'       -0.6141    0.5574    2.1082 H         1 GTP         0.2010
     41 H1'         1.7826    1.9024    1.6451 H         1 GTP        -0.0393
     42 H8         -0.1126    1.6906   -1.6997 H         1 GTP         0.0000
     43 HN1        -1.3285    6.8855    1.9361 H         1 GTP         0.0865
     44 HN21        0.9153    5.4446    4.1732 H         1 GTP         0.2048
     45 HN22       -0.1624    6.7706    3.7948 H         1 GTP         0.2048
     46 H46        -1.5768    3.7405   -1.9429 H         1 GTP         0.2048
@<TRIPOS>BOND
     1    1    2 2
     2    1    3 1
     3    1    4 1
     4    1    5 1
     5    5    6 1
     6    6    7 2
     7    6    8 1
     8    6    9 1
     9    8   33 1
    10    9   10 1
    11   10   11 2
    12   10   12 1
    13   10   13 1
    14   13   14 1
    15   14   15 1
    16   14   34 1
    17   14   35 1
    18   15   16 1
    19   15   17 1
    20   15   36 1
    21   16   21 1
    22   17   18 1
    23   17   19 1
    24   17   37 1
    25   18   38 1
    26   19   20 1
    27   19   21 1
    28   19   39 1
    29   20   40 1
    30   21   22 1
    31   21   41 1
    32   22   23 ar
    33   22   32 ar
    34   23   24 ar
    35   23   42 1
    36   24   25 ar
    37   24   46 1
    38   25   26 ar
    39   25   32 ar
    40   26   27 2
    41   26   28 ar
    42   28   29 ar
    43   28   43 1
    44   29   30 1
    45   29   31 ar
    46   30   44 1
    47   30   45 1
    48   31   32 ar
@<TRIPOS>SUBSTRUCTURE
     1 GTP         1 GROUP 0 A     ****
@<TRIPOS>MOLECULE
[[[5-(2-amino-6-oxo-7,8-dihydro-1~{H}-purin-8-ylium-9-yl)-3,4-dihydroxy-tetrahydrofuran-2-yl]methoxy-oxido-phosphoryl]oxy-hydroxy-phosphoryl] phosphate
   46    48     1     0     0
SMALL
USER_CHARGES

@<TRIPOS>ATOM
      1 PG          6.5942   -2.9969   -0.0243 P.3       1 GTP        -1.1921
      2 O1G         8.0096   -2.9926   -0.5925 O.co2     1 GTP         0.3195
      3 O2G         6.4130   -3.8909    1.1981 O.co2     1 GTP         0.3195
      4 O3G         5.9680   -1.6132    0.1140 O.co2     1 GTP         0.3195
      5 O3B         5.6934   -3.7365   -1.1900 O.3       1 GTP         0.4672
      6 PB          5.4350   -3.3299   -2.7341 P.3       1 GTP        -0.9715
      7 O1B         6.6701   -3.2572   -3.5825 O.2       1 GTP         0.2707
      8 O2B         4.3381   -4.4150   -3.2174 O.3       1 GTP         0.0326
      9 O3A         4.5871   -1.9592   -2.6248 O.3       1 GTP         0.4672
     10 PA          3.9818   -0.9895   -3.7893 P.3       1 GTP        -1.1062
     11 O1A         5.1375   -0.3569   -4.5337 O.co2     1 GTP         0.3195
     12 O2A         2.8953   -1.7428   -4.5252 O.co2     1 GTP         0.3195
     13 O5'         3.2903    0.1346   -2.8241 O.3       1 GTP         0.1618
     14 C5'         2.2816   -0.2918   -1.9206 C.3       1 GTP         0.1504
     15 C4'         2.7248    0.0226   -0.4980 C.3       1 GTP         0.1111
     16 O4'         2.4697    1.4219   -0.2462 O.3       1 GTP        -0.1436
     17 C3'         1.9404   -0.7419    0.5596 C.3       1 GTP         0.1111
     18 O3'         2.7418   -0.8086    1.7389 O.3       1 GTP        -0.2728
     19 C2'         0.7477    0.1630    0.7858 C.3       1 GTP         0.1111
     20 O2'         0.1373   -0.0577    2.0407 O.3       1 GTP        -0.2728
     21 C1'         1.3733    1.5427    0.6747 C.3       1 GTP         0.2693
     22 N9          0.4520    2.5240    0.1767 N.pl3     1 GTP        -0.3222
     23 C8          0.2203    2.8205   -1.0970 C.ar      1 GTP         0.1640
     24 N7         -0.6947    3.7752   -1.2304 N.pl3     1 GTP        -0.3688
     25 C5         -1.0607    4.0987    0.0476 C.ar      1 GTP         0.0648
     26 C6         -2.0310    5.0839    0.5029 C.ar      1 GTP         0.3597
     27 O6         -2.6779    5.7867   -0.2609 O.2       1 GTP        -0.2755
     28 N1         -2.1030    5.0975    1.8948 N.pl3     1 GTP        -0.1604
     29 C2         -1.3422    4.2721    2.7403 C.ar      1 GTP         0.4468
     30 N2         -1.5624    4.4419    4.0823 N.pl3     1 GTP        -0.5618
     31 N3         -0.4796    3.3981    2.2792 N.2       1 GTP        -0.4283
     32 C4         -0.3754    3.3496    0.9208 C.ar      1 GTP         0.2226
     33 HOB2        4.5943   -5.3609   -3.2603 H         1 GTP         0.2010
     34 H5'         1.3514    0.2330   -2.1577 H         1 GTP        -0.0393
     35 H5''        2.1280   -1.3678   -2.0460 H         1 GTP        -0.0393
     36 H4'         3.8044   -0.1397   -0.4040 H         1 GTP        -0.0393
     37 H3'         1.6764   -1.7639    0.2728 H         1 GTP        -0.0393
     38 HO3'        3.5554   -1.2733    1.4914 H         1 GTP         0.2010
     39 H2'        -0.0011    0.0027    0.0003 H         1 GTP        -0.0393
     40 HO2'       -0.6141    0.5574    2.1082 H         1 GTP         0.2010
     41 H1'         1.7826    1.9024    1.6451 H         1 GTP        -0.0393
     42 H8          0.7110    2.3472   -1.9295 H         1 GTP         0.0000
     43 HN1        -2.7504    5.7495    2.3282 H         1 GTP         0.0865
     44 HN21       -1.0467    3.8796    4.7190 H         1 GTP         0.2048
     45 HN22       -2.2294    5.1209    4.3680 H         1 GTP         0.2048
     46 H46        -1.0382    4.1687   -2.0954 H         1 GTP         0.2048
@<TRIPOS>BOND
     1    1    2 2
     2    1    3 1
     3    1    4 1
     4    1    5 1
     5    5    6 1
     6    6    7 2
     7    6    8 1
     8    6    9 1
     9    8   33 1
    10    9   10 1
    11   10   11 2
    12   10   12 1
    13   10   13 1
    14   13   14 1
    15   14   15 1
    16   14   34 1
    17   14   35 1
    18   15   16 1
    19   15   17 1
    20   15   36 1
    21   16   21 1
    22   17   18 1
    23   17   19 1
    24   17   37 1
    25   18   38 1
    26   19   20 1
    27   19   21 1
    28   19   39 1
    29   20   40 1
    30   21   22 1
    31   21   41 1
    32   22   23 ar
    33   22   32 ar
    34   23   24 ar
    35   23   42 1
    36   24   25 ar
    37   24   46 1
    38   25   26 ar
    39   25   32 ar
    40   26   27 2
    41   26   28 ar
    42   28   29 ar
    43   28   43 1
    44   29   30 1
    45   29   31 ar
    46   30   44 1
    47   30   45 1
    48   31   32 ar
@<TRIPOS>SUBSTRUCTURE
     1 GTP         1 GROUP 0 A     ****
@<TRIPOS>MOLECULE
[[[5-(2-amino-6-oxo-7,8-dihydro-1~{H}-purin-8-ylium-9-yl)-3,4-dihydroxy-tetrahydrofuran-2-yl]methoxy-oxido-phosphoryl]oxy-hydroxy-phosphoryl] phosphate
   46    48     1     0     0
SMALL
USER_CHARGES

@<TRIPOS>ATOM
      1 PG         -1.1426   -1.4577   -5.1243 P.3       1 GTP        -1.1921
      2 O1G        -0.8811   -2.7503   -4.3583 O.co2     1 GTP         0.3195
      3 O2G        -2.2193   -1.5731   -6.1984 O.co2     1 GTP         0.3195
      4 O3G        -1.2678   -0.2190   -4.2433 O.co2     1 GTP         0.3195
      5 O3B         0.2434   -1.2088   -5.9814 O.3       1 GTP         0.4672
      6 PB          1.7665   -0.9999   -5.4786 P.3       1 GTP        -0.9715
      7 O1B         2.3324   -2.1428   -4.6884 O.2       1 GTP         0.2707
      8 O2B         2.5577   -0.6585   -6.8467 O.3       1 GTP         0.0326
      9 O3A         1.7163    0.4187   -4.7075 O.3       1 GTP         0.4672
     10 PA          2.8924    1.2553   -3.9461 P.3       1 GTP        -1.1062
     11 O1A         4.0520    1.4291   -4.9026 O.co2     1 GTP         0.3195
     12 O2A         2.2644    2.4449   -3.2532 O.co2     1 GTP         0.3195
     13 O5'         3.2903    0.1346   -2.8241 O.3       1 GTP         0.1618
     14 C5'         2.2816   -0.2918   -1.9206 C.3       1 GTP         0.1504
     15 C4'         2.7248    0.0226   -0.4980 C.3       1 GTP         0.1111
     16 O4'         2.4697    1.4219   -0.2462 O.3       1 GTP        -0.1436
     17 C3'         1.9404   -0.7419    0.5596 C.3       1 GTP         0.1111
     18 O3'         2.7418   -0.8086    1.7389 O.3       1 GTP        -0.2728
     19 C2'         0.7477    0.1630    0.7858 C.3       1 GTP         0.1111
     20 O2'         0.1373   -0.0577    2.0407 O.3       1 GTP        -0.2728
     21 C1'         1.3733    1.5427    0.6747 C.3       1 GTP         0.2693
     22 N9          0.4520    2.5240    0.1767 N.pl3     1 GTP        -0.3222
     23 C8         -0.2009    2.4849   -0.9792 C.ar      1 GTP         0.1640
     24 N7         -0.9840    3.5454   -1.1481 N.pl3     1 GTP        -0.3688
     25 C5         -0.8090    4.3005   -0.0206 C.ar      1 GTP         0.0648
     26 C6         -1.4206    5.5724    0.3362 C.ar      1 GTP         0.3597
     27 O6         -2.2199    6.1544   -0.3836 O.2       1 GTP        -0.2755
     28 N1         -0.9680    6.0043    1.5817 N.pl3     1 GTP        -0.1604
     29 C2         -0.0474    5.3055    2.3814 C.ar      1 GTP         0.4468
     30 N2          0.2680    5.9024    3.5740 N.pl3     1 GTP        -0.5618
     31 N3          0.4755    4.1601    2.0138 N.2       1 GTP        -0.4283
     32 C4          0.0611    3.6981    0.8001 C.ar      1 GTP         0.2226
     33 HOB2        3.5036   -0.4038   -6.7962 H         1 GTP         0.2010
     34 H5'         1.3514    0.2330   -2.1577 H         1 GTP        -0.0393
     35 H5''        2.1280   -1.3678   -2.0460 H         1 GTP        -0.0393
     36 H4'         3.8044   -0.1397   -0.4040 H         1 GTP        -0.0393
     37 H3'         1.6764   -1.7639    0.2728 H         1 GTP        -0.0393
     38 HO3'        2.2232   -1.2979    2.3953 H         1 GTP         0.2010
     39 H2'        -0.0011    0.0027    0.0003 H         1 GTP        -0.0393
     40 HO2'       -0.6141    0.5574    2.1082 H         1 GTP         0.2010
     41 H1'         1.7826    1.9024    1.6451 H         1 GTP        -0.0393
     42 H8         -0.1126    1.6906   -1.6997 H         1 GTP         0.0000
     43 HN1        -1.3285    6.8855    1.9361 H         1 GTP         0.0865
     44 HN21        0.9153    5.4446    4.1732 H         1 GTP         0.2048
     45 HN22       -0.1624    6.7706    3.7948 H         1 GTP         0.2048
     46 H46        -1.5768    3.7405   -1.9429 H         1 GTP         0.2048
@<TRIPOS>BOND
     1    1    2 2
     2    1    3 1
     3    1    4 1
     4    1    5 1
     5    5    6 1
     6    6    7 2
     7    6    8 1
     8    6    9 1
     9    8   33 1
    10    9   10 1
    11   10   11 2
    12   10   12 1
    13   10   13 1
    14   13   14 1
    15   14   15 1
    16   14   34 1
    17   14   35 1
    18   15   16 1
    19   15   17 1
    20   15   36 1
    21   16   21 1
    22   17   18 1
    23   17   19 1
    24   17   37 1
    25   18   38 1
    26   19   20 1
    27   19   21 1
    28   19   39 1
    29   20   40 1
    30   21   22 1
    31   21   41 1
    32   22   23 ar
    33   22   32 ar
    34   23   24 ar
    35   23   42 1
    36   24   25 ar
    37   24   46 1
    38   25   26 ar
    39   25   32 ar
    40   26   27 2
    41   26   28 ar
    42   28   29 ar
    43   28   43 1
    44   29   30 1
    45   29   31 ar
    46   30   44 1
    47   30   45 1
    48   31   32 ar
@<TRIPOS>SUBSTRUCTURE
     1 GTP         1 GROUP 0 A     ****
@<TRIPOS>MOLECULE
[[[5-(2-amino-6-oxo-7,8-dihydro-1~{H}-purin-8-ylium-9-yl)-3,4-dihydroxy-tetrahydrofuran-2-yl]methoxy-oxido-phosphoryl]oxy-hydroxy-phosphoryl] phosphate
   46    48     1     0     0
SMALL
USER_CHARGES

@<TRIPOS>ATOM
      1 PG         -7.0769   -3.4023    0.6582 P.3       1 GTP        -1.1921
      2 O1G        -7.5995   -4.5603   -0.1857 O.co2     1 GTP         0.3195
      3 O2G        -6.8573   -2.1093   -0.1205 O.co2     1 GTP         0.3195
      4 O3G        -7.8002   -3.2168    1.9880 O.co2     1 GTP         0.3195
      5 O3B        -5.5544   -3.8684    1.0848 O.3       1 GTP         0.4672
      6 PB         -5.0456   -5.1536    1.9249 P.3       1 GTP        -0.9715
      7 O1B        -5.5822   -5.2462    3.3228 O.2       1 GTP         0.2707
      8 O2B        -5.4322   -6.3938    0.9622 O.3       1 GTP         0.0326
      9 O3A        -3.4370   -5.0689    1.8036 O.3       1 GTP         0.4672
     10 PA         -2.2742   -6.0411    2.4080 P.3       1 GTP        -1.1062
     11 O1A        -2.2874   -5.9224    3.9164 O.co2     1 GTP         0.3195
     12 O2A        -2.3735   -7.3893    1.7280 O.co2     1 GTP         0.3195
     13 O5'        -0.9724   -5.2440    1.8220 O.3       1 GTP         0.1618
     14 C5'        -0.7840   -3.8935    2.2172 C.3       1 GTP         0.1504
     15 C4'        -0.0724   -3.1466    1.1027 C.3       1 GTP         0.1111
     16 O4'        -0.8674   -3.1929   -0.0945 O.3       1 GTP        -0.1436
     17 C3'         0.1338   -1.6715    1.4027 C.3       1 GTP         0.1111
     18 O3'         1.2893   -1.4445    2.1808 O.3       1 GTP        -0.2728
     19 C2'         0.2158   -1.0724    0.0128 C.3       1 GTP         0.1111
     20 O2'         1.5141   -1.2448   -0.5513 O.3       1 GTP        -0.2728
     21 C1'        -0.7897   -1.9176   -0.7583 C.3       1 GTP         0.2693
     22 N9         -2.1040   -1.3333   -0.7704 N.pl3     1 GTP        -0.3222
     23 C8         -3.0597   -1.5109    0.1345 C.ar      1 GTP         0.1640
     24 N7         -4.1618   -0.8291   -0.1607 N.pl3     1 GTP        -0.3688
     25 C5         -3.8764   -0.1805   -1.3310 C.ar      1 GTP         0.0648
     26 C6         -4.7187    0.7111   -2.1152 C.ar      1 GTP         0.3597
     27 O6         -5.8617    1.0043   -1.7939 O.2       1 GTP        -0.2755
     28 N1         -4.0405    1.1608   -3.2468 N.pl3     1 GTP        -0.1604
     29 C2         -2.7239    0.8013   -3.5822 C.ar      1 GTP         0.4468
     30 N2         -2.2399    1.3534   -4.7394 N.pl3     1 GTP        -0.5618
     31 N3         -2.0053   -0.0071   -2.8402 N.2       1 GTP        -0.4283
     32 C4         -2.6290   -0.4727   -1.7210 C.ar      1 GTP         0.2226
     33 HOB2       -5.1463   -7.2973    1.2154 H         1 GTP         0.2010
     34 H5'        -1.7618   -3.4448    2.4164 H         1 GTP        -0.0393
     35 H5''       -0.1874   -3.8744    3.1341 H         1 GTP        -0.0393
     36 H4'         0.8874   -3.6466    0.8805 H         1 GTP        -0.0393
     37 H3'        -0.7376   -1.2333    1.9867 H         1 GTP        -0.0393
     38 HO3'        1.3408   -0.4870    2.3219 H         1 GTP         0.2010
     39 H2'        -0.0384   -0.0310    0.0096 H         1 GTP        -0.0393
     40 HO2'        2.1463   -0.7958    0.0370 H         1 GTP         0.2010
     41 H1'        -0.4769   -2.1002   -1.8093 H         1 GTP        -0.0393
     42 H8         -2.9610   -2.1316    1.0079 H         1 GTP         0.0000
     43 HN1        -4.5320    1.7923   -3.8726 H         1 GTP         0.0865
     44 HN21       -1.3128    1.1277   -5.0171 H         1 GTP         0.2048
     45 HN22       -2.8342    1.9586   -5.2572 H         1 GTP         0.2048
     46 H46        -5.0195   -0.8034    0.3729 H         1 GTP         0.2048
@<TRIPOS>BOND
     1    1    2 2
     2    1    3 1
     3    1    4 1
     4    1    5 1
     5    5    6 1
     6    6    7 2
     7    6    8 1
     8    6    9 1
     9    8   33 1
    10    9   10 1
    11   10   11 2
    12   10   12 1
    13   10   13 1
    14   13   14 1
    15   14   15 1
    16   14   34 1
    17   14   35 1
    18   15   16 1
    19   15   17 1
    20   15   36 1
    21   16   21 1
    22   17   18 1
    23   17   19 1
    24   17   37 1
    25   18   38 1
    26   19   20 1
    27   19   21 1
    28   19   39 1
    29   20   40 1
    30   21   22 1
    31   21   41 1
    32   22   23 ar
    33   22   32 ar
    34   23   24 ar
    35   23   42 1
    36   24   25 ar
    37   24   46 1
    38   25   26 ar
    39   25   32 ar
    40   26   27 2
    41   26   28 ar
    42   28   29 ar
    43   28   43 1
    44   29   30 1
    45   29   31 ar
    46   30   44 1
    47   30   45 1
    48   31   32 ar
@<TRIPOS>SUBSTRUCTURE
     1 GTP         1 GROUP 0 A     ****
@<TRIPOS>MOLECULE
[[[5-(2-amino-6-oxo-7,8-dihydro-1~{H}-purin-8-ylium-9-yl)-3,4-dihydroxy-tetrahydrofuran-2-yl]methoxy-oxido-phosphoryl]oxy-hydroxy-phosphoryl] phosphate
   46    48     1     0     0
SMALL
USER_CHARGES

@<TRIPOS>ATOM
      1 PG          5.1053   -4.8698   -4.7474 P.3       1 GTP        -1.1921
      2 O1G         6.1266   -4.5145   -5.8231 O.co2     1 GTP         0.3195
      3 O2G         4.1509   -5.9939   -5.1371 O.co2     1 GTP         0.3195
      4 O3G         5.6897   -5.0031   -3.3450 O.co2     1 GTP         0.3195
      5 O3B         4.1336   -3.5412   -4.6586 O.3       1 GTP         0.4672
      6 PB          4.4850   -2.0048   -4.2948 P.3       1 GTP        -0.9715
      7 O1B         5.0743   -1.7985   -2.9307 O.2       1 GTP         0.2707
      8 O2B         5.4315   -1.5474   -5.5232 O.3       1 GTP         0.0326
      9 O3A         3.0982   -1.2256   -4.5763 O.3       1 GTP         0.4672
     10 PA          2.7180    0.3539   -4.4230 P.3       1 GTP        -1.1062
     11 O1A         3.7292    1.1672   -5.2015 O.co2     1 GTP         0.3195
     12 O2A         1.2326    0.5160   -4.6616 O.co2     1 GTP         0.3195
     13 O5'         3.0213    0.5153   -2.8245 O.3       1 GTP         0.1618
     14 C5'         2.2816   -0.2918   -1.9206 C.3       1 GTP         0.1504
     15 C4'         2.7248    0.0226   -0.4980 C.3       1 GTP         0.1111
     16 O4'         2.4697    1.4219   -0.2462 O.3       1 GTP        -0.1436
     17 C3'         1.9404   -0.7419    0.5596 C.3       1 GTP         0.1111
     18 O3'         2.7418   -0.8086    1.7389 O.3       1 GTP        -0.2728
     19 C2'         0.7477    0.1630    0.7858 C.3       1 GTP         0.1111
     20 O2'         0.1373   -0.0577    2.0407 O.3       1 GTP        -0.2728
     21 C1'         1.3733    1.5427    0.6747 C.3       1 GTP         0.2693
     22 N9          0.4520    2.5240    0.1767 N.pl3     1 GTP        -0.3222
     23 C8         -0.2009    2.4849   -0.9792 C.ar      1 GTP         0.1640
     24 N7         -0.9840    3.5454   -1.1481 N.pl3     1 GTP        -0.3688
     25 C5         -0.8090    4.3005   -0.0206 C.ar      1 GTP         0.0648
     26 C6         -1.4206    5.5724    0.3362 C.ar      1 GTP         0.3597
     27 O6         -2.2199    6.1544   -0.3836 O.2       1 GTP        -0.2755
     28 N1         -0.9680    6.0043    1.5817 N.pl3     1 GTP        -0.1604
     29 C2         -0.0474    5.3055    2.3814 C.ar      1 GTP         0.4468
     30 N2          0.2680    5.9024    3.5740 N.pl3     1 GTP        -0.5618
     31 N3          0.4755    4.1601    2.0138 N.2       1 GTP        -0.4283
     32 C4          0.0611    3.6981    0.8001 C.ar      1 GTP         0.2226
     33 HOB2        6.3087   -1.9732   -5.6296 H         1 GTP         0.2010
     34 H5'         1.2163   -0.0770   -2.0471 H         1 GTP        -0.0393
     35 H5''        2.4655   -1.3443   -2.1563 H         1 GTP        -0.0393
     36 H4'         3.8044   -0.1397   -0.4040 H         1 GTP        -0.0393
     37 H3'         1.6764   -1.7639    0.2728 H         1 GTP        -0.0393
     38 HO3'        2.2232   -1.2979    2.3953 H         1 GTP         0.2010
     39 H2'        -0.0011    0.0027    0.0003 H         1 GTP        -0.0393
     40 HO2'       -0.6141    0.5574    2.1082 H         1 GTP         0.2010
     41 H1'         1.7826    1.9024    1.6451 H         1 GTP        -0.0393
     42 H8         -0.1126    1.6906   -1.6997 H         1 GTP         0.0000
     43 HN1        -1.3285    6.8855    1.9361 H         1 GTP         0.0865
     44 HN21        0.9153    5.4446    4.1732 H         1 GTP         0.2048
     45 HN22       -0.1624    6.7706    3.7948 H         1 GTP         0.2048
     46 H46        -1.5768    3.7405   -1.9429 H         1 GTP         0.2048
@<TRIPOS>BOND
     1    1    2 2
     2    1    3 1
     3    1    4 1
     4    1    5 1
     5    5    6 1
     6    6    7 2
     7    6    8 1
     8    6    9 1
     9    8   33 1
    10    9   10 1
    11   10   11 2
    12   10   12 1
    13   10   13 1
    14   13   14 1
    15   14   15 1
    16   14   34 1
    17   14   35 1
    18   15   16 1
    19   15   17 1
    20   15   36 1
    21   16   21 1
    22   17   18 1
    23   17   19 1
    24   17   37 1
    25   18   38 1
    26   19   20 1
    27   19   21 1
    28   19   39 1
    29   20   40 1
    30   21   22 1
    31   21   41 1
    32   22   23 ar
    33   22   32 ar
    34   23   24 ar
    35   23   42 1
    36   24   25 ar
    37   24   46 1
    38   25   26 ar
    39   25   32 ar
    40   26   27 2
    41   26   28 ar
    42   28   29 ar
    43   28   43 1
    44   29   30 1
    45   29   31 ar
    46   30   44 1
    47   30   45 1
    48   31   32 ar
@<TRIPOS>SUBSTRUCTURE
     1 GTP         1 GROUP 0 A     ****
@<TRIPOS>MOLECULE
[[[5-(2-amino-6-oxo-7,8-dihydro-1~{H}-purin-8-ylium-9-yl)-3,4-dihydroxy-tetrahydrofuran-2-yl]methoxy-oxido-phosphoryl]oxy-hydroxy-phosphoryl] phosphate
   46    48     1     0     0
SMALL
USER_CHARGES

@<TRIPOS>ATOM
      1 PG          2.7502   -3.6429   -6.1707 P.3       1 GTP        -1.1921
      2 O1G         3.4249   -3.3503   -7.5069 O.co2     1 GTP         0.3195
      3 O2G         2.1347   -5.0348   -6.0715 O.co2     1 GTP         0.3195
      4 O3G         3.5674   -3.2316   -4.9504 O.co2     1 GTP         0.3195
      5 O3B         1.4472   -2.6335   -6.1467 O.3       1 GTP         0.4672
      6 PB          1.3669   -1.0195   -6.2182 P.3       1 GTP        -0.9715
      7 O1B         1.9498   -0.4133   -7.4604 O.2       1 GTP         0.2707
      8 O2B        -0.2057   -0.7230   -5.9874 O.3       1 GTP         0.0326
      9 O3A         2.0474   -0.5479   -4.8311 O.3       1 GTP         0.4672
     10 PA          2.3065    0.9470   -4.2302 P.3       1 GTP        -1.1062
     11 O1A         3.3234    1.6453   -5.1065 O.co2     1 GTP         0.3195
     12 O2A         0.9669    1.5820   -3.9271 O.co2     1 GTP         0.3195
     13 O5'         3.0213    0.5153   -2.8245 O.3       1 GTP         0.1618
     14 C5'         2.2816   -0.2918   -1.9206 C.3       1 GTP         0.1504
     15 C4'         2.7248    0.0226   -0.4980 C.3       1 GTP         0.1111
     16 O4'         2.4697    1.4219   -0.2462 O.3       1 GTP        -0.1436
     17 C3'         1.9404   -0.7419    0.5596 C.3       1 GTP         0.1111
     18 O3'         2.7418   -0.8086    1.7389 O.3       1 GTP        -0.2728
     19 C2'         0.7477    0.1630    0.7858 C.3       1 GTP         0.1111
     20 O2'         0.1373   -0.0577    2.0407 O.3       1 GTP        -0.2728
     21 C1'         1.3733    1.5427    0.6747 C.3       1 GTP         0.2693
     22 N9          0.4520    2.5240    0.1767 N.pl3     1 GTP        -0.3222
     23 C8          0.5671    3.2221   -0.9473 C.ar      1 GTP         0.1640
     24 N7         -0.4560    4.0508   -1.1290 N.pl3     1 GTP        -0.3688
     25 C5         -1.2671    3.8585   -0.0441 C.ar      1 GTP         0.0648
     26 C6         -2.5318    4.5014    0.2817 C.ar      1 GTP         0.3597
     27 O6         -3.0527    5.3493   -0.4293 O.2       1 GTP        -0.2755
     28 N1         -3.0357    4.0149    1.4868 N.pl3     1 GTP        -0.1604
     29 C2         -2.4069    3.0373    2.2768 C.ar      1 GTP         0.4468
     30 N2         -3.0679    2.6964    3.4278 N.pl3     1 GTP        -0.5618
     31 N3         -1.2653    2.4872    1.9379 N.2       1 GTP        -0.4283
     32 C4         -0.7342    2.9334    0.7643 C.ar      1 GTP         0.2226
     33 HOB2       -0.5051    0.2072   -5.9026 H         1 GTP         0.2010
     34 H5'         1.2163   -0.0770   -2.0471 H         1 GTP        -0.0393
     35 H5''        2.4655   -1.3443   -2.1563 H         1 GTP        -0.0393
     36 H4'         3.8044   -0.1397   -0.4040 H         1 GTP        -0.0393
     37 H3'         1.6764   -1.7639    0.2728 H         1 GTP        -0.0393
     38 HO3'        2.2232   -1.2979    2.3953 H         1 GTP         0.2010
     39 H2'        -0.0011    0.0027    0.0003 H         1 GTP        -0.0393
     40 HO2'       -0.1563   -0.9855    2.0596 H         1 GTP         0.2010
     41 H1'         1.7826    1.9024    1.6451 H         1 GTP        -0.0393
     42 H8          1.3888    3.1325   -1.6361 H         1 GTP         0.0000
     43 HN1        -3.9188    4.3932    1.8170 H         1 GTP         0.0865
     44 HN21       -2.6609    2.0087    4.0186 H         1 GTP         0.2048
     45 HN22       -3.9293    3.1496    3.6283 H         1 GTP         0.2048
     46 H46        -0.5938    4.6820   -1.9060 H         1 GTP         0.2048
@<TRIPOS>BOND
     1    1    2 2
     2    1    3 1
     3    1    4 1
     4    1    5 1
     5    5    6 1
     6    6    7 2
     7    6    8 1
     8    6    9 1
     9    8   33 1
    10    9   10 1
    11   10   11 2
    12   10   12 1
    13   10   13 1
    14   13   14 1
    15   14   15 1
    16   14   34 1
    17   14   35 1
    18   15   16 1
    19   15   17 1
    20   15   36 1
    21   16   21 1
    22   17   18 1
    23   17   19 1
    24   17   37 1
    25   18   38 1
    26   19   20 1
    27   19   21 1
    28   19   39 1
    29   20   40 1
    30   21   22 1
    31   21   41 1
    32   22   23 ar
    33   22   32 ar
    34   23   24 ar
    35   23   42 1
    36   24   25 ar
    37   24   46 1
    38   25   26 ar
    39   25   32 ar
    40   26   27 2
    41   26   28 ar
    42   28   29 ar
    43   28   43 1
    44   29   30 1
    45   29   31 ar
    46   30   44 1
    47   30   45 1
    48   31   32 ar
@<TRIPOS>SUBSTRUCTURE
     1 GTP         1 GROUP 0 A     ****
@<TRIPOS>MOLECULE
[[[5-(2-amino-6-oxo-7,8-dihydro-1~{H}-purin-8-ylium-9-yl)-3,4-dihydroxy-tetrahydrofuran-2-yl]methoxy-oxido-phosphoryl]oxy-hydroxy-phosphoryl] phosphate
   46    48     1     0     0
SMALL
USER_CHARGES

@<TRIPOS>ATOM
      1 PG          0.5739    3.6107   -6.5885 P.3       1 GTP        -1.1921
      2 O1G        -0.9209    3.8681   -6.7479 O.co2     1 GTP         0.3195
      3 O2G         1.4155    4.0481   -7.7829 O.co2     1 GTP         0.3195
      4 O3G         1.1429    4.0270   -5.2361 O.co2     1 GTP         0.3195
      5 O3B         0.7038    1.9673   -6.5960 O.3       1 GTP         0.4672
      6 PB          0.0639    0.8583   -5.6076 P.3       1 GTP        -0.9715
      7 O1B        -1.3506    1.1287   -5.1875 O.2       1 GTP         0.2707
      8 O2B         0.2822   -0.5224   -6.4203 O.3       1 GTP         0.0326
      9 O3A         1.1383    0.7623   -4.4051 O.3       1 GTP         0.4672
     10 PA          2.7180    0.3539   -4.4230 P.3       1 GTP        -1.1062
     11 O1A         2.8304   -1.1069   -4.8014 O.co2     1 GTP         0.3195
     12 O2A         3.4813    1.4193   -5.1793 O.co2     1 GTP         0.3195
     13 O5'         3.0213    0.5153   -2.8245 O.3       1 GTP         0.1618
     14 C5'         2.2816   -0.2918   -1.9206 C.3       1 GTP         0.1504
     15 C4'         2.7248    0.0226   -0.4980 C.3       1 GTP         0.1111
     16 O4'         2.4697    1.4219   -0.2462 O.3       1 GTP        -0.1436
     17 C3'         1.9404   -0.7419    0.5596 C.3       1 GTP         0.1111
     18 O3'         2.7418   -0.8086    1.7389 O.3       1 GTP        -0.2728
     19 C2'         0.7477    0.1630    0.7858 C.3       1 GTP         0.1111
     20 O2'         0.1373   -0.0577    2.0407 O.3       1 GTP        -0.2728
     21 C1'         1.3733    1.5427    0.6747 C.3       1 GTP         0.2693
     22 N9          0.4520    2.5240    0.1767 N.pl3     1 GTP        -0.3222
     23 C8         -0.2009    2.4849   -0.9792 C.ar      1 GTP         0.1640
     24 N7         -0.9840    3.5454   -1.1481 N.pl3     1 GTP        -0.3688
     25 C5         -0.8090    4.3005   -0.0206 C.ar      1 GTP         0.0648
     26 C6         -1.4206    5.5724    0.3362 C.ar      1 GTP         0.3597
     27 O6         -2.2199    6.1544   -0.3836 O.2       1 GTP        -0.2755
     28 N1         -0.9680    6.0043    1.5817 N.pl3     1 GTP        -0.1604
     29 C2         -0.0474    5.3055    2.3814 C.ar      1 GTP         0.4468
     30 N2          0.2680    5.9024    3.5740 N.pl3     1 GTP        -0.5618
     31 N3          0.4755    4.1601    2.0138 N.2       1 GTP        -0.4283
     32 C4          0.0611    3.6981    0.8001 C.ar      1 GTP         0.2226
     33 HOB2        1.1854   -0.7565   -6.7228 H         1 GTP         0.2010
     34 H5'         1.2163   -0.0770   -2.0471 H         1 GTP        -0.0393
     35 H5''        2.4655   -1.3443   -2.1563 H         1 GTP        -0.0393
     36 H4'         3.8044   -0.1397   -0.4040 H         1 GTP        -0.0393
     37 H3'         1.6764   -1.7639    0.2728 H         1 GTP        -0.0393
     38 HO3'        2.2232   -1.2979    2.3953 H         1 GTP         0.2010
     39 H2'        -0.0011    0.0027    0.0003 H         1 GTP        -0.0393
     40 HO2'       -0.6141    0.5574    2.1082 H         1 GTP         0.2010
     41 H1'         1.7826    1.9024    1.6451 H         1 GTP        -0.0393
     42 H8         -0.1126    1.6906   -1.6997 H         1 GTP         0.0000
     43 HN1        -1.3285    6.8855    1.9361 H         1 GTP         0.0865
     44 HN21        0.9153    5.4446    4.1732 H         1 GTP         0.2048
     45 HN22       -0.1624    6.7706    3.7948 H         1 GTP         0.2048
     46 H46        -1.5768    3.7405   -1.9429 H         1 GTP         0.2048
@<TRIPOS>BOND
     1    1    2 2
     2    1    3 1
     3    1    4 1
     4    1    5 1
     5    5    6 1
     6    6    7 2
     7    6    8 1
     8    6    9 1
     9    8   33 1
    10    9   10 1
    11   10   11 2
    12   10   12 1
    13   10   13 1
    14   13   14 1
    15   14   15 1
    16   14   34 1
    17   14   35 1
    18   15   16 1
    19   15   17 1
    20   15   36 1
    21   16   21 1
    22   17   18 1
    23   17   19 1
    24   17   37 1
    25   18   38 1
    26   19   20 1
    27   19   21 1
    28   19   39 1
    29   20   40 1
    30   21   22 1
    31   21   41 1
    32   22   23 ar
    33   22   32 ar
    34   23   24 ar
    35   23   42 1
    36   24   25 ar
    37   24   46 1
    38   25   26 ar
    39   25   32 ar
    40   26   27 2
    41   26   28 ar
    42   28   29 ar
    43   28   43 1
    44   29   30 1
    45   29   31 ar
    46   30   44 1
    47   30   45 1
    48   31   32 ar
@<TRIPOS>SUBSTRUCTURE
     1 GTP         1 GROUP 0 A     ****
@<TRIPOS>MOLECULE
[[[5-(2-amino-6-oxo-7,8-dihydro-1~{H}-purin-8-ylium-9-yl)-3,4-dihydroxy-tetrahydrofuran-2-yl]methoxy-oxido-phosphoryl]oxy-hydroxy-phosphoryl] phosphate
   46    48     1     0     0
SMALL
USER_CHARGES

@<TRIPOS>ATOM
      1 PG         -1.6691   -0.9901   -7.0369 P.3       1 GTP        -1.1921
      2 O1G        -1.4409    0.0361   -8.1420 O.co2     1 GTP         0.3195
      3 O2G        -2.9180   -0.7396   -6.1980 O.co2     1 GTP         0.3195
      4 O3G        -1.4920   -2.4392   -7.4781 O.co2     1 GTP         0.3195
      5 O3B        -0.4284   -0.7312   -5.9829 O.3       1 GTP         0.4672
      6 PB          1.1718   -0.8217   -6.2011 P.3       1 GTP        -0.9715
      7 O1B         1.6747   -2.1682   -6.6308 O.2       1 GTP         0.2707
      8 O2B         1.4656    0.3803   -7.2418 O.3       1 GTP         0.0326
      9 O3A         1.7728   -0.2694   -4.8071 O.3       1 GTP         0.4672
     10 PA          3.3181   -0.0790   -4.3186 P.3       1 GTP        -1.1062
     11 O1A         3.9508   -1.4473   -4.1884 O.co2     1 GTP         0.3195
     12 O2A         3.9586    1.0027   -5.1608 O.co2     1 GTP         0.3195
     13 O5'         3.0213    0.5153   -2.8245 O.3       1 GTP         0.1618
     14 C5'         2.2816   -0.2918   -1.9206 C.3       1 GTP         0.1504
     15 C4'         2.7248    0.0226   -0.4980 C.3       1 GTP         0.1111
     16 O4'         2.4697    1.4219   -0.2462 O.3       1 GTP        -0.1436
     17 C3'         1.9404   -0.7419    0.5596 C.3       1 GTP         0.1111
     18 O3'         2.7418   -0.8086    1.7389 O.3       1 GTP        -0.2728
     19 C2'         0.7477    0.1630    0.7858 C.3       1 GTP         0.1111
     20 O2'         0.1373   -0.0577    2.0407 O.3       1 GTP        -0.2728
     21 C1'         1.3733    1.5427    0.6747 C.3       1 GTP         0.2693
     22 N9          0.4520    2.5240    0.1767 N.pl3     1 GTP        -0.3222
     23 C8          0.2203    2.8205   -1.0970 C.ar      1 GTP         0.1640
     24 N7         -0.6947    3.7752   -1.2304 N.pl3     1 GTP        -0.3688
     25 C5         -1.0607    4.0987    0.0476 C.ar      1 GTP         0.0648
     26 C6         -2.0310    5.0839    0.5029 C.ar      1 GTP         0.3597
     27 O6         -2.6779    5.7867   -0.2609 O.2       1 GTP        -0.2755
     28 N1         -2.1030    5.0975    1.8948 N.pl3     1 GTP        -0.1604
     29 C2         -1.3422    4.2721    2.7403 C.ar      1 GTP         0.4468
     30 N2         -1.5624    4.4419    4.0823 N.pl3     1 GTP        -0.5618
     31 N3         -0.4796    3.3981    2.2792 N.2       1 GTP        -0.4283
     32 C4         -0.3754    3.3496    0.9208 C.ar      1 GTP         0.2226
     33 HOB2        1.0982    0.3217   -8.1494 H         1 GTP         0.2010
     34 H5'         1.2163   -0.0770   -2.0471 H         1 GTP        -0.0393
     35 H5''        2.4655   -1.3443   -2.1563 H         1 GTP        -0.0393
     36 H4'         3.8044   -0.1397   -0.4040 H         1 GTP        -0.0393
     37 H3'         1.6764   -1.7639    0.2728 H         1 GTP        -0.0393
     38 HO3'        3.5554   -1.2733    1.4914 H         1 GTP         0.2010
     39 H2'        -0.0011    0.0027    0.0003 H         1 GTP        -0.0393
     40 HO2'        0.8082    0.1199    2.7232 H         1 GTP         0.2010
     41 H1'         1.7826    1.9024    1.6451 H         1 GTP        -0.0393
     42 H8          0.7110    2.3472   -1.9295 H         1 GTP         0.0000
     43 HN1        -2.7504    5.7495    2.3282 H         1 GTP         0.0865
     44 HN21       -1.0467    3.8796    4.7190 H         1 GTP         0.2048
     45 HN22       -2.2294    5.1209    4.3680 H         1 GTP         0.2048
     46 H46        -1.0382    4.1687   -2.0954 H         1 GTP         0.2048
@<TRIPOS>BOND
     1    1    2 2
     2    1    3 1
     3    1    4 1
     4    1    5 1
     5    5    6 1
     6    6    7 2
     7    6    8 1
     8    6    9 1
     9    8   33 1
    10    9   10 1
    11   10   11 2
    12   10   12 1
    13   10   13 1
    14   13   14 1
    15   14   15 1
    16   14   34 1
    17   14   35 1
    18   15   16 1
    19   15   17 1
    20   15   36 1
    21   16   21 1
    22   17   18 1
    23   17   19 1
    24   17   37 1
    25   18   38 1
    26   19   20 1
    27   19   21 1
    28   19   39 1
    29   20   40 1
    30   21   22 1
    31   21   41 1
    32   22   23 ar
    33   22   32 ar
    34   23   24 ar
    35   23   42 1
    36   24   25 ar
    37   24   46 1
    38   25   26 ar
    39   25   32 ar
    40   26   27 2
    41   26   28 ar
    42   28   29 ar
    43   28   43 1
    44   29   30 1
    45   29   31 ar
    46   30   44 1
    47   30   45 1
    48   31   32 ar
@<TRIPOS>SUBSTRUCTURE
     1 GTP         1 GROUP 0 A     ****
@<TRIPOS>MOLECULE
[[[5-(2-amino-6-oxo-7,8-dihydro-1~{H}-purin-8-ylium-9-yl)-3,4-dihydroxy-tetrahydrofuran-2-yl]methoxy-oxido-phosphoryl]oxy-hydroxy-phosphoryl] phosphate
   46    48     1     0     0
SMALL
USER_CHARGES

@<TRIPOS>ATOM
      1 PG          3.1130   -4.6086   -3.9262 P.3       1 GTP        -1.1921
      2 O1G         3.6598   -4.7353   -2.5080 O.co2     1 GTP         0.3195
      3 O2G         3.2477   -5.8755   -4.7647 O.co2     1 GTP         0.3195
      4 O3G         1.7441   -3.9420   -4.0150 O.co2     1 GTP         0.3195
      5 O3B         4.1336   -3.5412   -4.6586 O.3       1 GTP         0.4672
      6 PB          4.4850   -2.0048   -4.2948 P.3       1 GTP        -0.9715
      7 O1B         5.0743   -1.7985   -2.9307 O.2       1 GTP         0.2707
      8 O2B         5.4315   -1.5474   -5.5232 O.3       1 GTP         0.0326
      9 O3A         3.0982   -1.2256   -4.5763 O.3       1 GTP         0.4672
     10 PA          2.7180    0.3539   -4.4230 P.3       1 GTP        -1.1062
     11 O1A         3.7292    1.1672   -5.2015 O.co2     1 GTP         0.3195
     12 O2A         1.2326    0.5160   -4.6616 O.co2     1 GTP         0.3195
     13 O5'         3.0213    0.5153   -2.8245 O.3       1 GTP         0.1618
     14 C5'         2.2816   -0.2918   -1.9206 C.3       1 GTP         0.1504
     15 C4'         2.7248    0.0226   -0.4980 C.3       1 GTP         0.1111
     16 O4'         2.4697    1.4219   -0.2462 O.3       1 GTP        -0.1436
     17 C3'         1.9404   -0.7419    0.5596 C.3       1 GTP         0.1111
     18 O3'         2.7418   -0.8086    1.7389 O.3       1 GTP        -0.2728
     19 C2'         0.7477    0.1630    0.7858 C.3       1 GTP         0.1111
     20 O2'         0.1373   -0.0577    2.0407 O.3       1 GTP        -0.2728
     21 C1'         1.3733    1.5427    0.6747 C.3       1 GTP         0.2693
     22 N9          0.4520    2.5240    0.1767 N.pl3     1 GTP        -0.3222
     23 C8         -0.6818    2.9109    0.7501 C.ar      1 GTP         0.1640
     24 N7         -1.3103    3.8415    0.0391 N.pl3     1 GTP        -0.3688
     25 C5         -0.5155    4.0512   -1.0547 C.ar      1 GTP         0.0648
     26 C6         -0.7125    4.9651   -2.1705 C.ar      1 GTP         0.3597
     27 O6         -1.6819    5.7047   -2.2651 O.2       1 GTP        -0.2755
     28 N1          0.3401    4.8672   -3.0790 N.pl3     1 GTP        -0.1604
     29 C2          1.4396    4.0039   -2.9348 C.ar      1 GTP         0.4468
     30 N2          2.3679    4.0602   -3.9414 N.pl3     1 GTP        -0.5618
     31 N3          1.5708    3.1983   -1.9080 N.2       1 GTP        -0.4283
     32 C4          0.5630    3.2599   -0.9921 C.ar      1 GTP         0.2226
     33 HOB2        5.7152   -0.6101   -5.5793 H         1 GTP         0.2010
     34 H5'         1.2163   -0.0770   -2.0471 H         1 GTP        -0.0393
     35 H5''        2.4655   -1.3443   -2.1563 H         1 GTP        -0.0393
     36 H4'         3.8044   -0.1397   -0.4040 H         1 GTP        -0.0393
     37 H3'         1.6764   -1.7639    0.2728 H         1 GTP        -0.0393
     38 HO3'        2.2232   -1.2979    2.3953 H         1 GTP         0.2010
     39 H2'        -0.0011    0.0027    0.0003 H         1 GTP        -0.0393
     40 HO2'       -0.1563   -0.9855    2.0596 H         1 GTP         0.2010
     41 H1'         1.7826    1.9024    1.6451 H         1 GTP        -0.0393
     42 H8         -1.0545    2.5222    1.6816 H         1 GTP         0.0000
     43 HN1         0.3104    5.4612   -3.9026 H         1 GTP         0.0865
     44 HN21        3.1632    3.4672   -3.8824 H         1 GTP         0.2048
     45 HN22        2.2108    4.6918   -4.6924 H         1 GTP         0.2048
     46 H46        -2.1863    4.2902    0.2681 H         1 GTP         0.2048
@<TRIPOS>BOND
     1    1    2 2
     2    1    3 1
     3    1    4 1
     4    1    5 1
     5    5    6 1
     6    6    7 2
     7    6    8 1
     8    6    9 1
     9    8   33 1
    10    9   10 1
    11   10   11 2
    12   10   12 1
    13   10   13 1
    14   13   14 1
    15   14   15 1
    16   14   34 1
    17   14   35 1
    18   15   16 1
    19   15   17 1
    20   15   36 1
    21   16   21 1
    22   17   18 1
    23   17   19 1
    24   17   37 1
    25   18   38 1
    26   19   20 1
    27   19   21 1
    28   19   39 1
    29   20   40 1
    30   21   22 1
    31   21   41 1
    32   22   23 ar
    33   22   32 ar
    34   23   24 ar
    35   23   42 1
    36   24   25 ar
    37   24   46 1
    38   25   26 ar
    39   25   32 ar
    40   26   27 2
    41   26   28 ar
    42   28   29 ar
    43   28   43 1
    44   29   30 1
    45   29   31 ar
    46   30   44 1
    47   30   45 1
    48   31   32 ar
@<TRIPOS>SUBSTRUCTURE
     1 GTP         1 GROUP 0 A     ****
@<TRIPOS>MOLECULE
[[[5-(2-amino-6-oxo-7,8-dihydro-1~{H}-purin-8-ylium-9-yl)-3,4-dihydroxy-tetrahydrofuran-2-yl]methoxy-oxido-phosphoryl]oxy-hydroxy-phosphoryl] phosphate
   46    48     1     0     0
SMALL
USER_CHARGES

@<TRIPOS>ATOM
      1 PG          2.2323   -0.4252   -8.9427 P.3       1 GTP        -1.1921
      2 O1G         2.5294   -1.9149   -9.0806 O.co2     1 GTP         0.3195
      3 O2G         3.3703    0.4846   -9.3940 O.co2     1 GTP         0.3195
      4 O3G         0.8574   -0.0082   -9.4542 O.co2     1 GTP         0.3195
      5 O3B         2.1528   -0.1783   -7.3147 O.3       1 GTP         0.4672
      6 PB          1.1718   -0.8217   -6.2011 P.3       1 GTP        -0.9715
      7 O1B        -0.2891   -0.5609   -6.4210 O.2       1 GTP         0.2707
      8 O2B         1.5940   -2.3825   -6.2025 O.3       1 GTP         0.0326
      9 O3A         1.7728   -0.2694   -4.8071 O.3       1 GTP         0.4672
     10 PA          3.3181   -0.0790   -4.3186 P.3       1 GTP        -1.1062
     11 O1A         3.9508   -1.4473   -4.1884 O.co2     1 GTP         0.3195
     12 O2A         3.9586    1.0027   -5.1608 O.co2     1 GTP         0.3195
     13 O5'         3.0213    0.5153   -2.8245 O.3       1 GTP         0.1618
     14 C5'         2.2816   -0.2918   -1.9206 C.3       1 GTP         0.1504
     15 C4'         2.7248    0.0226   -0.4980 C.3       1 GTP         0.1111
     16 O4'         2.4697    1.4219   -0.2462 O.3       1 GTP        -0.1436
     17 C3'         1.9404   -0.7419    0.5596 C.3       1 GTP         0.1111
     18 O3'         2.7418   -0.8086    1.7389 O.3       1 GTP        -0.2728
     19 C2'         0.7477    0.1630    0.7858 C.3       1 GTP         0.1111
     20 O2'         0.1373   -0.0577    2.0407 O.3       1 GTP        -0.2728
     21 C1'         1.3733    1.5427    0.6747 C.3       1 GTP         0.2693
     22 N9          0.4520    2.5240    0.1767 N.pl3     1 GTP        -0.3222
     23 C8          0.2203    2.8205   -1.0970 C.ar      1 GTP         0.1640
     24 N7         -0.6947    3.7752   -1.2304 N.pl3     1 GTP        -0.3688
     25 C5         -1.0607    4.0987    0.0476 C.ar      1 GTP         0.0648
     26 C6         -2.0310    5.0839    0.5029 C.ar      1 GTP         0.3597
     27 O6         -2.6779    5.7867   -0.2609 O.2       1 GTP        -0.2755
     28 N1         -2.1030    5.0975    1.8948 N.pl3     1 GTP        -0.1604
     29 C2         -1.3422    4.2721    2.7403 C.ar      1 GTP         0.4468
     30 N2         -1.5624    4.4419    4.0823 N.pl3     1 GTP        -0.5618
     31 N3         -0.4796    3.3981    2.2792 N.2       1 GTP        -0.4283
     32 C4         -0.3754    3.3496    0.9208 C.ar      1 GTP         0.2226
     33 HOB2        1.4250   -2.9184   -7.0065 H         1 GTP         0.2010
     34 H5'         1.2163   -0.0770   -2.0471 H         1 GTP        -0.0393
     35 H5''        2.4655   -1.3443   -2.1563 H         1 GTP        -0.0393
     36 H4'         3.8044   -0.1397   -0.4040 H         1 GTP        -0.0393
     37 H3'         1.6764   -1.7639    0.2728 H         1 GTP        -0.0393
     38 HO3'        3.5554   -1.2733    1.4914 H         1 GTP         0.2010
     39 H2'        -0.0011    0.0027    0.0003 H         1 GTP        -0.0393
     40 HO2'       -0.1563   -0.9855    2.0596 H         1 GTP         0.2010
     41 H1'         1.7826    1.9024    1.6451 H         1 GTP        -0.0393
     42 H8          0.7110    2.3472   -1.9295 H         1 GTP         0.0000
     43 HN1        -2.7504    5.7495    2.3282 H         1 GTP         0.0865
     44 HN21       -1.0467    3.8796    4.7190 H         1 GTP         0.2048
     45 HN22       -2.2294    5.1209    4.3680 H         1 GTP         0.2048
     46 H46        -1.0382    4.1687   -2.0954 H         1 GTP         0.2048
@<TRIPOS>BOND
     1    1    2 2
     2    1    3 1
     3    1    4 1
     4    1    5 1
     5    5    6 1
     6    6    7 2
     7    6    8 1
     8    6    9 1
     9    8   33 1
    10    9   10 1
    11   10   11 2
    12   10   12 1
    13   10   13 1
    14   13   14 1
    15   14   15 1
    16   14   34 1
    17   14   35 1
    18   15   16 1
    19   15   17 1
    20   15   36 1
    21   16   21 1
    22   17   18 1
    23   17   19 1
    24   17   37 1
    25   18   38 1
    26   19   20 1
    27   19   21 1
    28   19   39 1
    29   20   40 1
    30   21   22 1
    31   21   41 1
    32   22   23 ar
    33   22   32 ar
    34   23   24 ar
    35   23   42 1
    36   24   25 ar
    37   24   46 1
    38   25   26 ar
    39   25   32 ar
    40   26   27 2
    41   26   28 ar
    42   28   29 ar
    43   28   43 1
    44   29   30 1
    45   29   31 ar
    46   30   44 1
    47   30   45 1
    48   31   32 ar
@<TRIPOS>SUBSTRUCTURE
     1 GTP         1 GROUP 0 A     ****
@<TRIPOS>MOLECULE
[[[5-(2-amino-6-oxo-7,8-dihydro-1~{H}-purin-8-ylium-9-yl)-3,4-dihydroxy-tetrahydrofuran-2-yl]methoxy-oxido-phosphoryl]oxy-hydroxy-phosphoryl] phosphate
   46    48     1     0     0
SMALL
USER_CHARGES

@<TRIPOS>ATOM
      1 PG          5.0352   -4.0724   -4.6842 P.3       1 GTP        -1.1921
      2 O1G         6.0017   -3.8481   -5.8426 O.co2     1 GTP         0.3195
      3 O2G         4.8350   -5.5375   -4.3105 O.co2     1 GTP         0.3195
      4 O3G         5.2569   -3.1471   -3.4922 O.co2     1 GTP         0.3195
      5 O3B         3.5702   -3.6159   -5.2866 O.3       1 GTP         0.4672
      6 PB          3.0715   -2.1922   -5.8703 P.3       1 GTP        -0.9715
      7 O1B         3.8369   -1.6956   -7.0611 O.2       1 GTP         0.2707
      8 O2B         1.4939   -2.4366   -6.1267 O.3       1 GTP         0.0326
      9 O3A         3.0982   -1.2256   -4.5763 O.3       1 GTP         0.4672
     10 PA          2.7180    0.3539   -4.4230 P.3       1 GTP        -1.1062
     11 O1A         3.7292    1.1672   -5.2015 O.co2     1 GTP         0.3195
     12 O2A         1.2326    0.5160   -4.6616 O.co2     1 GTP         0.3195
     13 O5'         3.0213    0.5153   -2.8245 O.3       1 GTP         0.1618
     14 C5'         2.2816   -0.2918   -1.9206 C.3       1 GTP         0.1504
     15 C4'         2.7248    0.0226   -0.4980 C.3       1 GTP         0.1111
     16 O4'         2.4697    1.4219   -0.2462 O.3       1 GTP        -0.1436
     17 C3'         1.9404   -0.7419    0.5596 C.3       1 GTP         0.1111
     18 O3'         2.7418   -0.8086    1.7389 O.3       1 GTP        -0.2728
     19 C2'         0.7477    0.1630    0.7858 C.3       1 GTP         0.1111
     20 O2'         0.1373   -0.0577    2.0407 O.3       1 GTP        -0.2728
     21 C1'         1.3733    1.5427    0.6747 C.3       1 GTP         0.2693
     22 N9          0.4520    2.5240    0.1767 N.pl3     1 GTP        -0.3222
     23 C8         -0.6818    2.9109    0.7501 C.ar      1 GTP         0.1640
     24 N7         -1.3103    3.8415    0.0391 N.pl3     1 GTP        -0.3688
     25 C5         -0.5155    4.0512   -1.0547 C.ar      1 GTP         0.0648
     26 C6         -0.7125    4.9651   -2.1705 C.ar      1 GTP         0.3597
     27 O6         -1.6819    5.7047   -2.2651 O.2       1 GTP        -0.2755
     28 N1          0.3401    4.8672   -3.0790 N.pl3     1 GTP        -0.1604
     29 C2          1.4396    4.0039   -2.9348 C.ar      1 GTP         0.4468
     30 N2          2.3679    4.0602   -3.9414 N.pl3     1 GTP        -0.5618
     31 N3          1.5708    3.1983   -1.9080 N.2       1 GTP        -0.4283
     32 C4          0.5630    3.2599   -0.9921 C.ar      1 GTP         0.2226
     33 HOB2        0.9367   -1.6799   -6.4079 H         1 GTP         0.2010
     34 H5'         1.2163   -0.0770   -2.0471 H         1 GTP        -0.0393
     35 H5''        2.4655   -1.3443   -2.1563 H         1 GTP        -0.0393
     36 H4'         3.8044   -0.1397   -0.4040 H         1 GTP        -0.0393
     37 H3'         1.6764   -1.7639    0.2728 H         1 GTP        -0.0393
     38 HO3'        2.2232   -1.2979    2.3953 H         1 GTP         0.2010
     39 H2'        -0.0011    0.0027    0.0003 H         1 GTP        -0.0393
     40 HO2'       -0.1563   -0.9855    2.0596 H         1 GTP         0.2010
     41 H1'         1.7826    1.9024    1.6451 H         1 GTP        -0.0393
     42 H8         -1.0545    2.5222    1.6816 H         1 GTP         0.0000
     43 HN1         0.3104    5.4612   -3.9026 H         1 GTP         0.0865
     44 HN21        3.1632    3.4672   -3.8824 H         1 GTP         0.2048
     45 HN22        2.2108    4.6918   -4.6924 H         1 GTP         0.2048
     46 H46        -2.1863    4.2902    0.2681 H         1 GTP         0.2048
@<TRIPOS>BOND
     1    1    2 2
     2    1    3 1
     3    1    4 1
     4    1    5 1
     5    5    6 1
     6    6    7 2
     7    6    8 1
     8    6    9 1
     9    8   33 1
    10    9   10 1
    11   10   11 2
    12   10   12 1
    13   10   13 1
    14   13   14 1
    15   14   15 1
    16   14   34 1
    17   14   35 1
    18   15   16 1
    19   15   17 1
    20   15   36 1
    21   16   21 1
    22   17   18 1
    23   17   19 1
    24   17   37 1
    25   18   38 1
    26   19   20 1
    27   19   21 1
    28   19   39 1
    29   20   40 1
    30   21   22 1
    31   21   41 1
    32   22   23 ar
    33   22   32 ar
    34   23   24 ar
    35   23   42 1
    36   24   25 ar
    37   24   46 1
    38   25   26 ar
    39   25   32 ar
    40   26   27 2
    41   26   28 ar
    42   28   29 ar
    43   28   43 1
    44   29   30 1
    45   29   31 ar
    46   30   44 1
    47   30   45 1
    48   31   32 ar
@<TRIPOS>SUBSTRUCTURE
     1 GTP         1 GROUP 0 A     ****
@<TRIPOS>MOLECULE
[[[5-(2-amino-6-oxo-7,8-dihydro-1~{H}-purin-8-ylium-9-yl)-3,4-dihydroxy-tetrahydrofuran-2-yl]methoxy-oxido-phosphoryl]oxy-hydroxy-phosphoryl] phosphate
   46    48     1     0     0
SMALL
USER_CHARGES

@<TRIPOS>ATOM
      1 PG         -1.0013    3.1715   -6.2486 P.3       1 GTP        -1.1921
      2 O1G        -0.1376    3.7364   -7.3717 O.co2     1 GTP         0.3195
      3 O2G        -1.3951    4.1934   -5.1871 O.co2     1 GTP         0.3195
      4 O3G        -2.1500    2.2873   -6.7228 O.co2     1 GTP         0.3195
      5 O3B         0.0031    2.1386   -5.4475 O.3       1 GTP         0.4672
      6 PB          0.7860    0.8213   -5.9653 P.3       1 GTP        -0.9715
      7 O1B        -0.0972   -0.2722   -6.4893 O.2       1 GTP         0.2707
      8 O2B         1.8380    1.4210   -7.0366 O.3       1 GTP         0.0326
      9 O3A         1.7163    0.4187   -4.7075 O.3       1 GTP         0.4672
     10 PA          2.8924    1.2553   -3.9461 P.3       1 GTP        -1.1062
     11 O1A         4.0520    1.4291   -4.9026 O.co2     1 GTP         0.3195
     12 O2A         2.2644    2.4449   -3.2532 O.co2     1 GTP         0.3195
     13 O5'         3.2903    0.1346   -2.8241 O.3       1 GTP         0.1618
     14 C5'         2.2816   -0.2918   -1.9206 C.3       1 GTP         0.1504
     15 C4'         2.7248    0.0226   -0.4980 C.3       1 GTP         0.1111
     16 O4'         2.4697    1.4219   -0.2462 O.3       1 GTP        -0.1436
     17 C3'         1.9404   -0.7419    0.5596 C.3       1 GTP         0.1111
     18 O3'         2.7418   -0.8086    1.7389 O.3       1 GTP        -0.2728
     19 C2'         0.7477    0.1630    0.7858 C.3       1 GTP         0.1111
     20 O2'         0.1373   -0.0577    2.0407 O.3       1 GTP        -0.2728
     21 C1'         1.3733    1.5427    0.6747 C.3       1 GTP         0.2693
     22 N9          0.4520    2.5240    0.1767 N.pl3     1 GTP        -0.3222
     23 C8         -0.2009    2.4849   -0.9792 C.ar      1 GTP         0.1640
     24 N7         -0.9840    3.5454   -1.1481 N.pl3     1 GTP        -0.3688
     25 C5         -0.8090    4.3005   -0.0206 C.ar      1 GTP         0.0648
     26 C6         -1.4206    5.5724    0.3362 C.ar      1 GTP         0.3597
     27 O6         -2.2199    6.1544   -0.3836 O.2       1 GTP        -0.2755
     28 N1         -0.9680    6.0043    1.5817 N.pl3     1 GTP        -0.1604
     29 C2         -0.0474    5.3055    2.3814 C.ar      1 GTP         0.4468
     30 N2          0.2680    5.9024    3.5740 N.pl3     1 GTP        -0.5618
     31 N3          0.4755    4.1601    2.0138 N.2       1 GTP        -0.4283
     32 C4          0.0611    3.6981    0.8001 C.ar      1 GTP         0.2226
     33 HOB2        1.4950    1.8322   -7.8585 H         1 GTP         0.2010
     34 H5'         1.3514    0.2330   -2.1577 H         1 GTP        -0.0393
     35 H5''        2.1280   -1.3678   -2.0460 H         1 GTP        -0.0393
     36 H4'         3.8044   -0.1397   -0.4040 H         1 GTP        -0.0393
     37 H3'         1.6764   -1.7639    0.2728 H         1 GTP        -0.0393
     38 HO3'        2.2232   -1.2979    2.3953 H         1 GTP         0.2010
     39 H2'        -0.0011    0.0027    0.0003 H         1 GTP        -0.0393
     40 HO2'       -0.6141    0.5574    2.1082 H         1 GTP         0.2010
     41 H1'         1.7826    1.9024    1.6451 H         1 GTP        -0.0393
     42 H8         -0.1126    1.6906   -1.6997 H         1 GTP         0.0000
     43 HN1        -1.3285    6.8855    1.9361 H         1 GTP         0.0865
     44 HN21        0.9153    5.4446    4.1732 H         1 GTP         0.2048
     45 HN22       -0.1624    6.7706    3.7948 H         1 GTP         0.2048
     46 H46        -1.5768    3.7405   -1.9429 H         1 GTP         0.2048
@<TRIPOS>BOND
     1    1    2 2
     2    1    3 1
     3    1    4 1
     4    1    5 1
     5    5    6 1
     6    6    7 2
     7    6    8 1
     8    6    9 1
     9    8   33 1
    10    9   10 1
    11   10   11 2
    12   10   12 1
    13   10   13 1
    14   13   14 1
    15   14   15 1
    16   14   34 1
    17   14   35 1
    18   15   16 1
    19   15   17 1
    20   15   36 1
    21   16   21 1
    22   17   18 1
    23   17   19 1
    24   17   37 1
    25   18   38 1
    26   19   20 1
    27   19   21 1
    28   19   39 1
    29   20   40 1
    30   21   22 1
    31   21   41 1
    32   22   23 ar
    33   22   32 ar
    34   23   24 ar
    35   23   42 1
    36   24   25 ar
    37   24   46 1
    38   25   26 ar
    39   25   32 ar
    40   26   27 2
    41   26   28 ar
    42   28   29 ar
    43   28   43 1
    44   29   30 1
    45   29   31 ar
    46   30   44 1
    47   30   45 1
    48   31   32 ar
@<TRIPOS>SUBSTRUCTURE
     1 GTP         1 GROUP 0 A     ****
@<TRIPOS>MOLECULE
[[[5-(2-amino-6-oxo-7,8-dihydro-1~{H}-purin-8-ylium-9-yl)-3,4-dihydroxy-tetrahydrofuran-2-yl]methoxy-oxido-phosphoryl]oxy-hydroxy-phosphoryl] phosphate
   46    48     1     0     0
SMALL
USER_CHARGES

@<TRIPOS>ATOM
      1 PG          7.1657    0.1384   -6.0298 P.3       1 GTP        -1.1921
      2 O1G         7.9748    1.1839   -5.2692 O.co2     1 GTP         0.3195
      3 O2G         6.2740    0.7124   -7.1260 O.co2     1 GTP         0.3195
      4 O3G         7.9650   -1.0899   -6.4525 O.co2     1 GTP         0.3195
      5 O3B         6.0973   -0.4360   -4.9135 O.3       1 GTP         0.4672
      6 PB          6.3527   -1.1733   -3.4967 P.3       1 GTP        -0.9715
      7 O1B         7.1190   -2.4601   -3.5843 O.2       1 GTP         0.2707
      8 O2B         7.0555   -0.0199   -2.6079 O.3       1 GTP         0.0326
      9 O3A         4.8720   -1.2897   -2.8615 O.3       1 GTP         0.4672
     10 PA          3.5344   -2.0410   -3.4175 P.3       1 GTP        -1.1062
     11 O1A         3.0721   -1.3297   -4.6706 O.co2     1 GTP         0.3195
     12 O2A         3.7838   -3.5334   -3.4114 O.co2     1 GTP         0.3195
     13 O5'         2.5245   -1.6648   -2.1878 O.3       1 GTP         0.1618
     14 C5'         2.2816   -0.2918   -1.9206 C.3       1 GTP         0.1504
     15 C4'         2.7248    0.0226   -0.4980 C.3       1 GTP         0.1111
     16 O4'         2.4697    1.4219   -0.2462 O.3       1 GTP        -0.1436
     17 C3'         1.9404   -0.7419    0.5596 C.3       1 GTP         0.1111
     18 O3'         2.7418   -0.8086    1.7389 O.3       1 GTP        -0.2728
     19 C2'         0.7477    0.1630    0.7858 C.3       1 GTP         0.1111
     20 O2'         0.1373   -0.0577    2.0407 O.3       1 GTP        -0.2728
     21 C1'         1.3733    1.5427    0.6747 C.3       1 GTP         0.2693
     22 N9          0.4520    2.5240    0.1767 N.pl3     1 GTP        -0.3222
     23 C8          0.2203    2.8205   -1.0970 C.ar      1 GTP         0.1640
     24 N7         -0.6947    3.7752   -1.2304 N.pl3     1 GTP        -0.3688
     25 C5         -1.0607    4.0987    0.0476 C.ar      1 GTP         0.0648
     26 C6         -2.0310    5.0839    0.5029 C.ar      1 GTP         0.3597
     27 O6         -2.6779    5.7867   -0.2609 O.2       1 GTP        -0.2755
     28 N1         -2.1030    5.0975    1.8948 N.pl3     1 GTP        -0.1604
     29 C2         -1.3422    4.2721    2.7403 C.ar      1 GTP         0.4468
     30 N2         -1.5624    4.4419    4.0823 N.pl3     1 GTP        -0.5618
     31 N3         -0.4796    3.3981    2.2792 N.2       1 GTP        -0.4283
     32 C4         -0.3754    3.3496    0.9208 C.ar      1 GTP         0.2226
     33 HOB2        7.9430    0.3056   -2.8700 H         1 GTP         0.2010
     34 H5'         2.8432    0.3119   -2.6398 H         1 GTP        -0.0393
     35 H5''        1.2128   -0.0927   -2.0428 H         1 GTP        -0.0393
     36 H4'         3.8044   -0.1397   -0.4040 H         1 GTP        -0.0393
     37 H3'         1.6764   -1.7639    0.2728 H         1 GTP        -0.0393
     38 HO3'        2.2232   -1.2979    2.3953 H         1 GTP         0.2010
     39 H2'        -0.0011    0.0027    0.0003 H         1 GTP        -0.0393
     40 HO2'       -0.6141    0.5574    2.1082 H         1 GTP         0.2010
     41 H1'         1.7826    1.9024    1.6451 H         1 GTP        -0.0393
     42 H8          0.7110    2.3472   -1.9295 H         1 GTP         0.0000
     43 HN1        -2.7504    5.7495    2.3282 H         1 GTP         0.0865
     44 HN21       -1.0467    3.8796    4.7190 H         1 GTP         0.2048
     45 HN22       -2.2294    5.1209    4.3680 H         1 GTP         0.2048
     46 H46        -1.0382    4.1687   -2.0954 H         1 GTP         0.2048
@<TRIPOS>BOND
     1    1    2 2
     2    1    3 1
     3    1    4 1
     4    1    5 1
     5    5    6 1
     6    6    7 2
     7    6    8 1
     8    6    9 1
     9    8   33 1
    10    9   10 1
    11   10   11 2
    12   10   12 1
    13   10   13 1
    14   13   14 1
    15   14   15 1
    16   14   34 1
    17   14   35 1
    18   15   16 1
    19   15   17 1
    20   15   36 1
    21   16   21 1
    22   17   18 1
    23   17   19 1
    24   17   37 1
    25   18   38 1
    26   19   20 1
    27   19   21 1
    28   19   39 1
    29   20   40 1
    30   21   22 1
    31   21   41 1
    32   22   23 ar
    33   22   32 ar
    34   23   24 ar
    35   23   42 1
    36   24   25 ar
    37   24   46 1
    38   25   26 ar
    39   25   32 ar
    40   26   27 2
    41   26   28 ar
    42   28   29 ar
    43   28   43 1
    44   29   30 1
    45   29   31 ar
    46   30   44 1
    47   30   45 1
    48   31   32 ar
@<TRIPOS>SUBSTRUCTURE
     1 GTP         1 GROUP 0 A     ****
@<TRIPOS>MOLECULE
[[[5-(2-amino-6-oxo-7,8-dihydro-1~{H}-purin-8-ylium-9-yl)-3,4-dihydroxy-tetrahydrofuran-2-yl]methoxy-oxido-phosphoryl]oxy-hydroxy-phosphoryl] phosphate
   46    48     1     0     0
SMALL
USER_CHARGES

@<TRIPOS>ATOM
      1 PG          4.2785    1.6018   -6.0367 P.3       1 GTP        -1.1921
      2 O1G         3.1504    2.0743   -6.9479 O.co2     1 GTP         0.3195
      3 O2G         5.6551    2.1393   -6.4142 O.co2     1 GTP         0.3195
      4 O3G         3.9608    1.6858   -4.5474 O.co2     1 GTP         0.3195
      5 O3B         4.3908   -0.0149   -6.3381 O.3       1 GTP         0.4672
      6 PB          3.2987   -1.1950   -6.1615 P.3       1 GTP        -0.9715
      7 O1B         2.0464   -1.0217   -6.9691 O.2       1 GTP         0.2707
      8 O2B         4.1477   -2.5295   -6.4970 O.3       1 GTP         0.0326
      9 O3A         3.0871   -1.2746   -4.5620 O.3       1 GTP         0.4672
     10 PA          2.1265   -2.2419   -3.6650 P.3       1 GTP        -1.1062
     11 O1A         0.6845   -1.8905   -3.9597 O.co2     1 GTP         0.3195
     12 O2A         2.6267   -3.6645   -3.7894 O.co2     1 GTP         0.3195
     13 O5'         2.5245   -1.6648   -2.1878 O.3       1 GTP         0.1618
     14 C5'         2.2816   -0.2918   -1.9206 C.3       1 GTP         0.1504
     15 C4'         2.7248    0.0226   -0.4980 C.3       1 GTP         0.1111
     16 O4'         2.4697    1.4219   -0.2462 O.3       1 GTP        -0.1436
     17 C3'         1.9404   -0.7419    0.5596 C.3       1 GTP         0.1111
     18 O3'         2.7418   -0.8086    1.7389 O.3       1 GTP        -0.2728
     19 C2'         0.7477    0.1630    0.7858 C.3       1 GTP         0.1111
     20 O2'         0.1373   -0.0577    2.0407 O.3       1 GTP        -0.2728
     21 C1'         1.3733    1.5427    0.6747 C.3       1 GTP         0.2693
     22 N9          0.4520    2.5240    0.1767 N.pl3     1 GTP        -0.3222
     23 C8         -0.2009    2.4849   -0.9792 C.ar      1 GTP         0.1640
     24 N7         -0.9840    3.5454   -1.1481 N.pl3     1 GTP        -0.3688
     25 C5         -0.8090    4.3005   -0.0206 C.ar      1 GTP         0.0648
     26 C6         -1.4206    5.5724    0.3362 C.ar      1 GTP         0.3597
     27 O6         -2.2199    6.1544   -0.3836 O.2       1 GTP        -0.2755
     28 N1         -0.9680    6.0043    1.5817 N.pl3     1 GTP        -0.1604
     29 C2         -0.0474    5.3055    2.3814 C.ar      1 GTP         0.4468
     30 N2          0.2680    5.9024    3.5740 N.pl3     1 GTP        -0.5618
     31 N3          0.4755    4.1601    2.0138 N.2       1 GTP        -0.4283
     32 C4          0.0611    3.6981    0.8001 C.ar      1 GTP         0.2226
     33 HOB2        4.4903   -2.6568   -7.4073 H         1 GTP         0.2010
     34 H5'         2.8432    0.3119   -2.6398 H         1 GTP        -0.0393
     35 H5''        1.2128   -0.0927   -2.0428 H         1 GTP        -0.0393
     36 H4'         3.8044   -0.1397   -0.4040 H         1 GTP        -0.0393
     37 H3'         1.6764   -1.7639    0.2728 H         1 GTP        -0.0393
     38 HO3'        2.2232   -1.2979    2.3953 H         1 GTP         0.2010
     39 H2'        -0.0011    0.0027    0.0003 H         1 GTP        -0.0393
     40 HO2'       -0.1563   -0.9855    2.0596 H         1 GTP         0.2010
     41 H1'         1.7826    1.9024    1.6451 H         1 GTP        -0.0393
     42 H8         -0.1126    1.6906   -1.6997 H         1 GTP         0.0000
     43 HN1        -1.3285    6.8855    1.9361 H         1 GTP         0.0865
     44 HN21        0.9153    5.4446    4.1732 H         1 GTP         0.2048
     45 HN22       -0.1624    6.7706    3.7948 H         1 GTP         0.2048
     46 H46        -1.5768    3.7405   -1.9429 H         1 GTP         0.2048
@<TRIPOS>BOND
     1    1    2 2
     2    1    3 1
     3    1    4 1
     4    1    5 1
     5    5    6 1
     6    6    7 2
     7    6    8 1
     8    6    9 1
     9    8   33 1
    10    9   10 1
    11   10   11 2
    12   10   12 1
    13   10   13 1
    14   13   14 1
    15   14   15 1
    16   14   34 1
    17   14   35 1
    18   15   16 1
    19   15   17 1
    20   15   36 1
    21   16   21 1
    22   17   18 1
    23   17   19 1
    24   17   37 1
    25   18   38 1
    26   19   20 1
    27   19   21 1
    28   19   39 1
    29   20   40 1
    30   21   22 1
    31   21   41 1
    32   22   23 ar
    33   22   32 ar
    34   23   24 ar
    35   23   42 1
    36   24   25 ar
    37   24   46 1
    38   25   26 ar
    39   25   32 ar
    40   26   27 2
    41   26   28 ar
    42   28   29 ar
    43   28   43 1
    44   29   30 1
    45   29   31 ar
    46   30   44 1
    47   30   45 1
    48   31   32 ar
@<TRIPOS>SUBSTRUCTURE
     1 GTP         1 GROUP 0 A     ****
@<TRIPOS>MOLECULE
[[[5-(2-amino-6-oxo-7,8-dihydro-1~{H}-purin-8-ylium-9-yl)-3,4-dihydroxy-tetrahydrofuran-2-yl]methoxy-oxido-phosphoryl]oxy-hydroxy-phosphoryl] phosphate
   46    48     1     0     0
SMALL
USER_CHARGES

@<TRIPOS>ATOM
      1 PG         -4.1443   -1.1127    5.0553 P.3       1 GTP        -1.1921
      2 O1G        -3.6914   -0.1001    4.0086 O.co2     1 GTP         0.3195
      3 O2G        -5.1959   -0.5832    6.0249 O.co2     1 GTP         0.3195
      4 O3G        -4.4486   -2.4995    4.4983 O.co2     1 GTP         0.3195
      5 O3B        -2.8137   -1.3376    6.0020 O.3       1 GTP         0.4672
      6 PB         -1.3365   -1.8794    5.6266 P.3       1 GTP        -0.9715
      7 O1B        -0.6047   -1.0598    4.6052 O.2       1 GTP         0.2707
      8 O2B        -0.6097   -1.9819    7.0672 O.3       1 GTP         0.0326
      9 O3A        -1.5937   -3.4222    5.2229 O.3       1 GTP         0.4672
     10 PA         -0.5519   -4.5800    4.7360 P.3       1 GTP        -1.1062
     11 O1A         0.5657   -4.6760    5.7516 O.co2     1 GTP         0.3195
     12 O2A        -1.3468   -5.8015    4.3290 O.co2     1 GTP         0.3195
     13 O5'         0.0118   -3.8395    3.3916 O.3       1 GTP         0.1618
     14 C5'        -0.7840   -3.8935    2.2172 C.3       1 GTP         0.1504
     15 C4'        -0.0724   -3.1466    1.1027 C.3       1 GTP         0.1111
     16 O4'        -0.8674   -3.1929   -0.0945 O.3       1 GTP        -0.1436
     17 C3'         0.1338   -1.6715    1.4027 C.3       1 GTP         0.1111
     18 O3'         1.2893   -1.4445    2.1808 O.3       1 GTP        -0.2728
     19 C2'         0.2158   -1.0724    0.0128 C.3       1 GTP         0.1111
     20 O2'         1.5141   -1.2448   -0.5513 O.3       1 GTP        -0.2728
     21 C1'        -0.7897   -1.9176   -0.7583 C.3       1 GTP         0.2693
     22 N9         -2.1040   -1.3333   -0.7704 N.pl3     1 GTP        -0.3222
     23 C8         -3.0597   -1.5109    0.1345 C.ar      1 GTP         0.1640
     24 N7         -4.1618   -0.8291   -0.1607 N.pl3     1 GTP        -0.3688
     25 C5         -3.8764   -0.1805   -1.3310 C.ar      1 GTP         0.0648
     26 C6         -4.7187    0.7111   -2.1152 C.ar      1 GTP         0.3597
     27 O6         -5.8617    1.0043   -1.7939 O.2       1 GTP        -0.2755
     28 N1         -4.0405    1.1608   -3.2468 N.pl3     1 GTP        -0.1604
     29 C2         -2.7239    0.8013   -3.5822 C.ar      1 GTP         0.4468
     30 N2         -2.2399    1.3534   -4.7394 N.pl3     1 GTP        -0.5618
     31 N3         -2.0053   -0.0071   -2.8402 N.2       1 GTP        -0.4283
     32 C4         -2.6290   -0.4727   -1.7210 C.ar      1 GTP         0.2226
     33 HOB2        0.2882   -2.3735    7.1182 H         1 GTP         0.2010
     34 H5'        -0.9348   -4.9415    1.9415 H         1 GTP        -0.0393
     35 H5''       -1.7548   -3.4350    2.4278 H         1 GTP        -0.0393
     36 H4'         0.8874   -3.6466    0.8805 H         1 GTP        -0.0393
     37 H3'        -0.7376   -1.2333    1.9867 H         1 GTP        -0.0393
     38 HO3'        1.1626   -1.9325    3.0084 H         1 GTP         0.2010
     39 H2'        -0.0384   -0.0310    0.0096 H         1 GTP        -0.0393
     40 HO2'        2.1463   -0.7958    0.0370 H         1 GTP         0.2010
     41 H1'        -0.4769   -2.1002   -1.8093 H         1 GTP        -0.0393
     42 H8         -2.9610   -2.1316    1.0079 H         1 GTP         0.0000
     43 HN1        -4.5320    1.7923   -3.8726 H         1 GTP         0.0865
     44 HN21       -1.3128    1.1277   -5.0171 H         1 GTP         0.2048
     45 HN22       -2.8342    1.9586   -5.2572 H         1 GTP         0.2048
     46 H46        -5.0195   -0.8034    0.3729 H         1 GTP         0.2048
@<TRIPOS>BOND
     1    1    2 2
     2    1    3 1
     3    1    4 1
     4    1    5 1
     5    5    6 1
     6    6    7 2
     7    6    8 1
     8    6    9 1
     9    8   33 1
    10    9   10 1
    11   10   11 2
    12   10   12 1
    13   10   13 1
    14   13   14 1
    15   14   15 1
    16   14   34 1
    17   14   35 1
    18   15   16 1
    19   15   17 1
    20   15   36 1
    21   16   21 1
    22   17   18 1
    23   17   19 1
    24   17   37 1
    25   18   38 1
    26   19   20 1
    27   19   21 1
    28   19   39 1
    29   20   40 1
    30   21   22 1
    31   21   41 1
    32   22   23 ar
    33   22   32 ar
    34   23   24 ar
    35   23   42 1
    36   24   25 ar
    37   24   46 1
    38   25   26 ar
    39   25   32 ar
    40   26   27 2
    41   26   28 ar
    42   28   29 ar
    43   28   43 1
    44   29   30 1
    45   29   31 ar
    46   30   44 1
    47   30   45 1
    48   31   32 ar
@<TRIPOS>SUBSTRUCTURE
     1 GTP         1 GROUP 0 A     ****
@<TRIPOS>MOLECULE
[[[5-(2-amino-6-oxo-7,8-dihydro-1~{H}-purin-8-ylium-9-yl)-3,4-dihydroxy-tetrahydrofuran-2-yl]methoxy-oxido-phosphoryl]oxy-hydroxy-phosphoryl] phosphate
   46    48     1     0     0
SMALL
USER_CHARGES

@<TRIPOS>ATOM
      1 PG          1.0054   -3.8291   -4.9549 P.3       1 GTP        -1.1921
      2 O1G         1.7936   -4.5349   -3.8563 O.co2     1 GTP         0.3195
      3 O2G         0.4723   -4.7595   -6.0395 O.co2     1 GTP         0.3195
      4 O3G        -0.0125   -2.8141   -4.4454 O.co2     1 GTP         0.3195
      5 O3B         2.1329   -2.9166   -5.7381 O.3       1 GTP         0.4672
      6 PB          3.0873   -1.7298   -5.1930 P.3       1 GTP        -0.9715
      7 O1B         4.0201   -2.1279   -4.0876 O.2       1 GTP         0.2707
      8 O2B         3.8105   -1.1980   -6.5378 O.3       1 GTP         0.0326
      9 O3A         2.0474   -0.5479   -4.8311 O.3       1 GTP         0.4672
     10 PA          2.3065    0.9470   -4.2302 P.3       1 GTP        -1.1062
     11 O1A         3.3234    1.6453   -5.1065 O.co2     1 GTP         0.3195
     12 O2A         0.9669    1.5820   -3.9271 O.co2     1 GTP         0.3195
     13 O5'         3.0213    0.5153   -2.8245 O.3       1 GTP         0.1618
     14 C5'         2.2816   -0.2918   -1.9206 C.3       1 GTP         0.1504
     15 C4'         2.7248    0.0226   -0.4980 C.3       1 GTP         0.1111
     16 O4'         2.4697    1.4219   -0.2462 O.3       1 GTP        -0.1436
     17 C3'         1.9404   -0.7419    0.5596 C.3       1 GTP         0.1111
     18 O3'         2.7418   -0.8086    1.7389 O.3       1 GTP        -0.2728
     19 C2'         0.7477    0.1630    0.7858 C.3       1 GTP         0.1111
     20 O2'         0.1373   -0.0577    2.0407 O.3       1 GTP        -0.2728
     21 C1'         1.3733    1.5427    0.6747 C.3       1 GTP         0.2693
     22 N9          0.4520    2.5240    0.1767 N.pl3     1 GTP        -0.3222
     23 C8          0.5671    3.2221   -0.9473 C.ar      1 GTP         0.1640
     24 N7         -0.4560    4.0508   -1.1290 N.pl3     1 GTP        -0.3688
     25 C5         -1.2671    3.8585   -0.0441 C.ar      1 GTP         0.0648
     26 C6         -2.5318    4.5014    0.2817 C.ar      1 GTP         0.3597
     27 O6         -3.0527    5.3493   -0.4293 O.2       1 GTP        -0.2755
     28 N1         -3.0357    4.0149    1.4868 N.pl3     1 GTP        -0.1604
     29 C2         -2.4069    3.0373    2.2768 C.ar      1 GTP         0.4468
     30 N2         -3.0679    2.6964    3.4278 N.pl3     1 GTP        -0.5618
     31 N3         -1.2653    2.4872    1.9379 N.2       1 GTP        -0.4283
     32 C4         -0.7342    2.9334    0.7643 C.ar      1 GTP         0.2226
     33 HOB2        4.3887   -0.4074   -6.4839 H         1 GTP         0.2010
     34 H5'         1.2163   -0.0770   -2.0471 H         1 GTP        -0.0393
     35 H5''        2.4655   -1.3443   -2.1563 H         1 GTP        -0.0393
     36 H4'         3.8044   -0.1397   -0.4040 H         1 GTP        -0.0393
     37 H3'         1.6764   -1.7639    0.2728 H         1 GTP        -0.0393
     38 HO3'        2.2232   -1.2979    2.3953 H         1 GTP         0.2010
     39 H2'        -0.0011    0.0027    0.0003 H         1 GTP        -0.0393
     40 HO2'       -0.1563   -0.9855    2.0596 H         1 GTP         0.2010
     41 H1'         1.7826    1.9024    1.6451 H         1 GTP        -0.0393
     42 H8          1.3888    3.1325   -1.6361 H         1 GTP         0.0000
     43 HN1        -3.9188    4.3932    1.8170 H         1 GTP         0.0865
     44 HN21       -2.6609    2.0087    4.0186 H         1 GTP         0.2048
     45 HN22       -3.9293    3.1496    3.6283 H         1 GTP         0.2048
     46 H46        -0.5938    4.6820   -1.9060 H         1 GTP         0.2048
@<TRIPOS>BOND
     1    1    2 2
     2    1    3 1
     3    1    4 1
     4    1    5 1
     5    5    6 1
     6    6    7 2
     7    6    8 1
     8    6    9 1
     9    8   33 1
    10    9   10 1
    11   10   11 2
    12   10   12 1
    13   10   13 1
    14   13   14 1
    15   14   15 1
    16   14   34 1
    17   14   35 1
    18   15   16 1
    19   15   17 1
    20   15   36 1
    21   16   21 1
    22   17   18 1
    23   17   19 1
    24   17   37 1
    25   18   38 1
    26   19   20 1
    27   19   21 1
    28   19   39 1
    29   20   40 1
    30   21   22 1
    31   21   41 1
    32   22   23 ar
    33   22   32 ar
    34   23   24 ar
    35   23   42 1
    36   24   25 ar
    37   24   46 1
    38   25   26 ar
    39   25   32 ar
    40   26   27 2
    41   26   28 ar
    42   28   29 ar
    43   28   43 1
    44   29   30 1
    45   29   31 ar
    46   30   44 1
    47   30   45 1
    48   31   32 ar
@<TRIPOS>SUBSTRUCTURE
     1 GTP         1 GROUP 0 A     ****
@<TRIPOS>MOLECULE
[[[5-(2-amino-6-oxo-7,8-dihydro-1~{H}-purin-8-ylium-9-yl)-3,4-dihydroxy-tetrahydrofuran-2-yl]methoxy-oxido-phosphoryl]oxy-hydroxy-phosphoryl] phosphate
   46    48     1     0     0
SMALL
USER_CHARGES

@<TRIPOS>ATOM
      1 PG          0.0923   -5.2703    0.1418 P.3       1 GTP        -1.1921
      2 O1G         0.4764   -6.6724   -0.3197 O.co2     1 GTP         0.3195
      3 O2G        -1.0125   -5.2377    1.1928 O.co2     1 GTP         0.3195
      4 O3G         1.2786   -4.3636    0.4526 O.co2     1 GTP         0.3195
      5 O3B        -0.6063   -4.5857   -1.1851 O.3       1 GTP         0.4672
      6 PB         -0.0061   -4.3020   -2.6601 P.3       1 GTP        -0.9715
      7 O1B         0.4549   -5.5234   -3.3992 O.2       1 GTP         0.2707
      8 O2B        -1.1924   -3.4745   -3.3827 O.3       1 GTP         0.0326
      9 O3A         1.1279   -3.1825   -2.3952 O.3       1 GTP         0.4672
     10 PA          2.1381   -2.4286   -3.4316 P.3       1 GTP        -1.1062
     11 O1A         3.1060   -3.4513   -3.9856 O.co2     1 GTP         0.3195
     12 O2A         1.3166   -1.5504   -4.3501 O.co2     1 GTP         0.3195
     13 O5'         2.9216   -1.4836   -2.3516 O.3       1 GTP         0.1618
     14 C5'         2.2816   -0.2918   -1.9206 C.3       1 GTP         0.1504
     15 C4'         2.7248    0.0226   -0.4980 C.3       1 GTP         0.1111
     16 O4'         2.4697    1.4219   -0.2462 O.3       1 GTP        -0.1436
     17 C3'         1.9404   -0.7419    0.5596 C.3       1 GTP         0.1111
     18 O3'         2.7418   -0.8086    1.7389 O.3       1 GTP        -0.2728
     19 C2'         0.7477    0.1630    0.7858 C.3       1 GTP         0.1111
     20 O2'         0.1373   -0.0577    2.0407 O.3       1 GTP        -0.2728
     21 C1'         1.3733    1.5427    0.6747 C.3       1 GTP         0.2693
     22 N9          0.4520    2.5240    0.1767 N.pl3     1 GTP        -0.3222
     23 C8         -0.2009    2.4849   -0.9792 C.ar      1 GTP         0.1640
     24 N7         -0.9840    3.5454   -1.1481 N.pl3     1 GTP        -0.3688
     25 C5         -0.8090    4.3005   -0.0206 C.ar      1 GTP         0.0648
     26 C6         -1.4206    5.5724    0.3362 C.ar      1 GTP         0.3597
     27 O6         -2.2199    6.1544   -0.3836 O.2       1 GTP        -0.2755
     28 N1         -0.9680    6.0043    1.5817 N.pl3     1 GTP        -0.1604
     29 C2         -0.0474    5.3055    2.3814 C.ar      1 GTP         0.4468
     30 N2          0.2680    5.9024    3.5740 N.pl3     1 GTP        -0.5618
     31 N3          0.4755    4.1601    2.0138 N.2       1 GTP        -0.4283
     32 C4          0.0611    3.6981    0.8001 C.ar      1 GTP         0.2226
     33 HOB2       -1.0358   -3.1061   -4.2782 H         1 GTP         0.2010
     34 H5'         2.5589    0.5217   -2.5976 H         1 GTP        -0.0393
     35 H5''        1.1982   -0.4388   -1.9617 H         1 GTP        -0.0393
     36 H4'         3.8044   -0.1397   -0.4040 H         1 GTP        -0.0393
     37 H3'         1.6764   -1.7639    0.2728 H         1 GTP        -0.0393
     38 HO3'        2.2232   -1.2979    2.3953 H         1 GTP         0.2010
     39 H2'        -0.0011    0.0027    0.0003 H         1 GTP        -0.0393
     40 HO2'       -0.6141    0.5574    2.1082 H         1 GTP         0.2010
     41 H1'         1.7826    1.9024    1.6451 H         1 GTP        -0.0393
     42 H8         -0.1126    1.6906   -1.6997 H         1 GTP         0.0000
     43 HN1        -1.3285    6.8855    1.9361 H         1 GTP         0.0865
     44 HN21        0.9153    5.4446    4.1732 H         1 GTP         0.2048
     45 HN22       -0.1624    6.7706    3.7948 H         1 GTP         0.2048
     46 H46        -1.5768    3.7405   -1.9429 H         1 GTP         0.2048
@<TRIPOS>BOND
     1    1    2 2
     2    1    3 1
     3    1    4 1
     4    1    5 1
     5    5    6 1
     6    6    7 2
     7    6    8 1
     8    6    9 1
     9    8   33 1
    10    9   10 1
    11   10   11 2
    12   10   12 1
    13   10   13 1
    14   13   14 1
    15   14   15 1
    16   14   34 1
    17   14   35 1
    18   15   16 1
    19   15   17 1
    20   15   36 1
    21   16   21 1
    22   17   18 1
    23   17   19 1
    24   17   37 1
    25   18   38 1
    26   19   20 1
    27   19   21 1
    28   19   39 1
    29   20   40 1
    30   21   22 1
    31   21   41 1
    32   22   23 ar
    33   22   32 ar
    34   23   24 ar
    35   23   42 1
    36   24   25 ar
    37   24   46 1
    38   25   26 ar
    39   25   32 ar
    40   26   27 2
    41   26   28 ar
    42   28   29 ar
    43   28   43 1
    44   29   30 1
    45   29   31 ar
    46   30   44 1
    47   30   45 1
    48   31   32 ar
@<TRIPOS>SUBSTRUCTURE
     1 GTP         1 GROUP 0 A     ****
@<TRIPOS>MOLECULE
[[[5-(2-amino-6-oxo-7,8-dihydro-1~{H}-purin-8-ylium-9-yl)-3,4-dihydroxy-tetrahydrofuran-2-yl]methoxy-oxido-phosphoryl]oxy-hydroxy-phosphoryl] phosphate
   46    48     1     0     0
SMALL
USER_CHARGES

@<TRIPOS>ATOM
      1 PG          0.3443   -7.0630   -3.6859 P.3       1 GTP        -1.1921
      2 O1G        -0.1216   -7.6524   -2.3586 O.co2     1 GTP         0.3195
      3 O2G         1.6056   -7.7093   -4.2497 O.co2     1 GTP         0.3195
      4 O3G        -0.7679   -6.8633   -4.7102 O.co2     1 GTP         0.3195
      5 O3B         0.8236   -5.5331   -3.3023 O.3       1 GTP         0.4672
      6 PB         -0.0061   -4.3020   -2.6601 P.3       1 GTP        -0.9715
      7 O1B        -1.1849   -3.8461   -3.4682 O.2       1 GTP         0.2707
      8 O2B        -0.3619   -4.8378   -1.1767 O.3       1 GTP         0.0326
      9 O3A         1.1279   -3.1825   -2.3952 O.3       1 GTP         0.4672
     10 PA          2.1381   -2.4286   -3.4316 P.3       1 GTP        -1.1062
     11 O1A         3.1060   -3.4513   -3.9856 O.co2     1 GTP         0.3195
     12 O2A         1.3166   -1.5504   -4.3501 O.co2     1 GTP         0.3195
     13 O5'         2.9216   -1.4836   -2.3516 O.3       1 GTP         0.1618
     14 C5'         2.2816   -0.2918   -1.9206 C.3       1 GTP         0.1504
     15 C4'         2.7248    0.0226   -0.4980 C.3       1 GTP         0.1111
     16 O4'         2.4697    1.4219   -0.2462 O.3       1 GTP        -0.1436
     17 C3'         1.9404   -0.7419    0.5596 C.3       1 GTP         0.1111
     18 O3'         2.7418   -0.8086    1.7389 O.3       1 GTP        -0.2728
     19 C2'         0.7477    0.1630    0.7858 C.3       1 GTP         0.1111
     20 O2'         0.1373   -0.0577    2.0407 O.3       1 GTP        -0.2728
     21 C1'         1.3733    1.5427    0.6747 C.3       1 GTP         0.2693
     22 N9          0.4520    2.5240    0.1767 N.pl3     1 GTP        -0.3222
     23 C8          0.2203    2.8205   -1.0970 C.ar      1 GTP         0.1640
     24 N7         -0.6947    3.7752   -1.2304 N.pl3     1 GTP        -0.3688
     25 C5         -1.0607    4.0987    0.0476 C.ar      1 GTP         0.0648
     26 C6         -2.0310    5.0839    0.5029 C.ar      1 GTP         0.3597
     27 O6         -2.6779    5.7867   -0.2609 O.2       1 GTP        -0.2755
     28 N1         -2.1030    5.0975    1.8948 N.pl3     1 GTP        -0.1604
     29 C2         -1.3422    4.2721    2.7403 C.ar      1 GTP         0.4468
     30 N2         -1.5624    4.4419    4.0823 N.pl3     1 GTP        -0.5618
     31 N3         -0.4796    3.3981    2.2792 N.2       1 GTP        -0.4283
     32 C4         -0.3754    3.3496    0.9208 C.ar      1 GTP         0.2226
     33 HOB2       -0.9647   -5.6058   -1.0821 H         1 GTP         0.2010
     34 H5'         2.5589    0.5217   -2.5976 H         1 GTP        -0.0393
     35 H5''        1.1982   -0.4388   -1.9617 H         1 GTP        -0.0393
     36 H4'         3.8044   -0.1397   -0.4040 H         1 GTP        -0.0393
     37 H3'         1.6764   -1.7639    0.2728 H         1 GTP        -0.0393
     38 HO3'        2.2232   -1.2979    2.3953 H         1 GTP         0.2010
     39 H2'        -0.0011    0.0027    0.0003 H         1 GTP        -0.0393
     40 HO2'       -0.6141    0.5574    2.1082 H         1 GTP         0.2010
     41 H1'         1.7826    1.9024    1.6451 H         1 GTP        -0.0393
     42 H8          0.7110    2.3472   -1.9295 H         1 GTP         0.0000
     43 HN1        -2.7504    5.7495    2.3282 H         1 GTP         0.0865
     44 HN21       -1.0467    3.8796    4.7190 H         1 GTP         0.2048
     45 HN22       -2.2294    5.1209    4.3680 H         1 GTP         0.2048
     46 H46        -1.0382    4.1687   -2.0954 H         1 GTP         0.2048
@<TRIPOS>BOND
     1    1    2 2
     2    1    3 1
     3    1    4 1
     4    1    5 1
     5    5    6 1
     6    6    7 2
     7    6    8 1
     8    6    9 1
     9    8   33 1
    10    9   10 1
    11   10   11 2
    12   10   12 1
    13   10   13 1
    14   13   14 1
    15   14   15 1
    16   14   34 1
    17   14   35 1
    18   15   16 1
    19   15   17 1
    20   15   36 1
    21   16   21 1
    22   17   18 1
    23   17   19 1
    24   17   37 1
    25   18   38 1
    26   19   20 1
    27   19   21 1
    28   19   39 1
    29   20   40 1
    30   21   22 1
    31   21   41 1
    32   22   23 ar
    33   22   32 ar
    34   23   24 ar
    35   23   42 1
    36   24   25 ar
    37   24   46 1
    38   25   26 ar
    39   25   32 ar
    40   26   27 2
    41   26   28 ar
    42   28   29 ar
    43   28   43 1
    44   29   30 1
    45   29   31 ar
    46   30   44 1
    47   30   45 1
    48   31   32 ar
@<TRIPOS>SUBSTRUCTURE
     1 GTP         1 GROUP 0 A     ****
@<TRIPOS>MOLECULE
[[[5-(2-amino-6-oxo-7,8-dihydro-1~{H}-purin-8-ylium-9-yl)-3,4-dihydroxy-tetrahydrofuran-2-yl]methoxy-oxido-phosphoryl]oxy-hydroxy-phosphoryl] phosphate
   46    48     1     0     0
SMALL
USER_CHARGES

@<TRIPOS>ATOM
      1 PG          1.6174    1.3963   -8.7538 P.3       1 GTP        -1.1921
      2 O1G         0.8767    0.1650   -9.2653 O.co2     1 GTP         0.3195
      3 O2G         3.0305    1.5515   -9.3064 O.co2     1 GTP         0.3195
      4 O3G         0.7931    2.6794   -8.7742 O.co2     1 GTP         0.3195
      5 O3B         1.8526    1.0894   -7.1514 O.3       1 GTP         0.4672
      6 PB          0.7860    0.8213   -5.9653 P.3       1 GTP        -0.9715
      7 O1B        -0.1793    1.9431   -5.7194 O.2       1 GTP         0.2707
      8 O2B         0.1068   -0.5810   -6.3970 O.3       1 GTP         0.0326
      9 O3A         1.7163    0.4187   -4.7075 O.3       1 GTP         0.4672
     10 PA          2.8924    1.2553   -3.9461 P.3       1 GTP        -1.1062
     11 O1A         4.0520    1.4291   -4.9026 O.co2     1 GTP         0.3195
     12 O2A         2.2644    2.4449   -3.2532 O.co2     1 GTP         0.3195
     13 O5'         3.2903    0.1346   -2.8241 O.3       1 GTP         0.1618
     14 C5'         2.2816   -0.2918   -1.9206 C.3       1 GTP         0.1504
     15 C4'         2.7248    0.0226   -0.4980 C.3       1 GTP         0.1111
     16 O4'         2.4697    1.4219   -0.2462 O.3       1 GTP        -0.1436
     17 C3'         1.9404   -0.7419    0.5596 C.3       1 GTP         0.1111
     18 O3'         2.7418   -0.8086    1.7389 O.3       1 GTP        -0.2728
     19 C2'         0.7477    0.1630    0.7858 C.3       1 GTP         0.1111
     20 O2'         0.1373   -0.0577    2.0407 O.3       1 GTP        -0.2728
     21 C1'         1.3733    1.5427    0.6747 C.3       1 GTP         0.2693
     22 N9          0.4520    2.5240    0.1767 N.pl3     1 GTP        -0.3222
     23 C8         -0.2009    2.4849   -0.9792 C.ar      1 GTP         0.1640
     24 N7         -0.9840    3.5454   -1.1481 N.pl3     1 GTP        -0.3688
     25 C5         -0.8090    4.3005   -0.0206 C.ar      1 GTP         0.0648
     26 C6         -1.4206    5.5724    0.3362 C.ar      1 GTP         0.3597
     27 O6         -2.2199    6.1544   -0.3836 O.2       1 GTP        -0.2755
     28 N1         -0.9680    6.0043    1.5817 N.pl3     1 GTP        -0.1604
     29 C2         -0.0474    5.3055    2.3814 C.ar      1 GTP         0.4468
     30 N2          0.2680    5.9024    3.5740 N.pl3     1 GTP        -0.5618
     31 N3          0.4755    4.1601    2.0138 N.2       1 GTP        -0.4283
     32 C4          0.0611    3.6981    0.8001 C.ar      1 GTP         0.2226
     33 HOB2       -0.4338   -0.6138   -7.2148 H         1 GTP         0.2010
     34 H5'         1.3514    0.2330   -2.1577 H         1 GTP        -0.0393
     35 H5''        2.1280   -1.3678   -2.0460 H         1 GTP        -0.0393
     36 H4'         3.8044   -0.1397   -0.4040 H         1 GTP        -0.0393
     37 H3'         1.6764   -1.7639    0.2728 H         1 GTP        -0.0393
     38 HO3'        2.2232   -1.2979    2.3953 H         1 GTP         0.2010
     39 H2'        -0.0011    0.0027    0.0003 H         1 GTP        -0.0393
     40 HO2'       -0.6141    0.5574    2.1082 H         1 GTP         0.2010
     41 H1'         1.7826    1.9024    1.6451 H         1 GTP        -0.0393
     42 H8         -0.1126    1.6906   -1.6997 H         1 GTP         0.0000
     43 HN1        -1.3285    6.8855    1.9361 H         1 GTP         0.0865
     44 HN21        0.9153    5.4446    4.1732 H         1 GTP         0.2048
     45 HN22       -0.1624    6.7706    3.7948 H         1 GTP         0.2048
     46 H46        -1.5768    3.7405   -1.9429 H         1 GTP         0.2048
@<TRIPOS>BOND
     1    1    2 2
     2    1    3 1
     3    1    4 1
     4    1    5 1
     5    5    6 1
     6    6    7 2
     7    6    8 1
     8    6    9 1
     9    8   33 1
    10    9   10 1
    11   10   11 2
    12   10   12 1
    13   10   13 1
    14   13   14 1
    15   14   15 1
    16   14   34 1
    17   14   35 1
    18   15   16 1
    19   15   17 1
    20   15   36 1
    21   16   21 1
    22   17   18 1
    23   17   19 1
    24   17   37 1
    25   18   38 1
    26   19   20 1
    27   19   21 1
    28   19   39 1
    29   20   40 1
    30   21   22 1
    31   21   41 1
    32   22   23 ar
    33   22   32 ar
    34   23   24 ar
    35   23   42 1
    36   24   25 ar
    37   24   46 1
    38   25   26 ar
    39   25   32 ar
    40   26   27 2
    41   26   28 ar
    42   28   29 ar
    43   28   43 1
    44   29   30 1
    45   29   31 ar
    46   30   44 1
    47   30   45 1
    48   31   32 ar
@<TRIPOS>SUBSTRUCTURE
     1 GTP         1 GROUP 0 A     ****
@<TRIPOS>MOLECULE
[[[5-(2-amino-6-oxo-7,8-dihydro-1~{H}-purin-8-ylium-9-yl)-3,4-dihydroxy-tetrahydrofuran-2-yl]methoxy-oxido-phosphoryl]oxy-hydroxy-phosphoryl] phosphate
   46    48     1     0     0
SMALL
USER_CHARGES

@<TRIPOS>ATOM
      1 PG         -0.2801    0.5517   -7.9249 P.3       1 GTP        -1.1921
      2 O1G         0.7531    0.5058   -9.0459 O.co2     1 GTP         0.3195
      3 O2G        -0.8217    1.9465   -7.6292 O.co2     1 GTP         0.3195
      4 O3G        -1.3516   -0.5301   -8.0126 O.co2     1 GTP         0.3195
      5 O3B         0.5767    0.1666   -6.5702 O.3       1 GTP         0.4672
      6 PB          1.4153   -1.1663   -6.2008 P.3       1 GTP        -0.9715
      7 O1B         0.6114   -2.4328   -6.1833 O.2       1 GTP         0.2707
      8 O2B         2.6269   -1.1420   -7.2711 O.3       1 GTP         0.0326
      9 O3A         2.1354   -0.7826   -4.8066 O.3       1 GTP         0.4672
     10 PA          2.8307    0.6109   -4.3192 P.3       1 GTP        -1.1062
     11 O1A         4.0646    0.8503   -5.1617 O.co2     1 GTP         0.3195
     12 O2A         1.7538    1.6661   -4.1908 O.co2     1 GTP         0.3195
     13 O5'         3.2903    0.1346   -2.8241 O.3       1 GTP         0.1618
     14 C5'         2.2816   -0.2918   -1.9206 C.3       1 GTP         0.1504
     15 C4'         2.7248    0.0226   -0.4980 C.3       1 GTP         0.1111
     16 O4'         2.4697    1.4219   -0.2462 O.3       1 GTP        -0.1436
     17 C3'         1.9404   -0.7419    0.5596 C.3       1 GTP         0.1111
     18 O3'         2.7418   -0.8086    1.7389 O.3       1 GTP        -0.2728
     19 C2'         0.7477    0.1630    0.7858 C.3       1 GTP         0.1111
     20 O2'         0.1373   -0.0577    2.0407 O.3       1 GTP        -0.2728
     21 C1'         1.3733    1.5427    0.6747 C.3       1 GTP         0.2693
     22 N9          0.4520    2.5240    0.1767 N.pl3     1 GTP        -0.3222
     23 C8          0.2203    2.8205   -1.0970 C.ar      1 GTP         0.1640
     24 N7         -0.6947    3.7752   -1.2304 N.pl3     1 GTP        -0.3688
     25 C5         -1.0607    4.0987    0.0476 C.ar      1 GTP         0.0648
     26 C6         -2.0310    5.0839    0.5029 C.ar      1 GTP         0.3597
     27 O6         -2.6779    5.7867   -0.2609 O.2       1 GTP        -0.2755
     28 N1         -2.1030    5.0975    1.8948 N.pl3     1 GTP        -0.1604
     29 C2         -1.3422    4.2721    2.7403 C.ar      1 GTP         0.4468
     30 N2         -1.5624    4.4419    4.0823 N.pl3     1 GTP        -0.5618
     31 N3         -0.4796    3.3981    2.2792 N.2       1 GTP        -0.4283
     32 C4         -0.3754    3.3496    0.9208 C.ar      1 GTP         0.2226
     33 HOB2        2.4197   -1.2479   -8.2240 H         1 GTP         0.2010
     34 H5'         1.3514    0.2330   -2.1577 H         1 GTP        -0.0393
     35 H5''        2.1280   -1.3678   -2.0460 H         1 GTP        -0.0393
     36 H4'         3.8044   -0.1397   -0.4040 H         1 GTP        -0.0393
     37 H3'         1.6764   -1.7639    0.2728 H         1 GTP        -0.0393
     38 HO3'        2.2232   -1.2979    2.3953 H         1 GTP         0.2010
     39 H2'        -0.0011    0.0027    0.0003 H         1 GTP        -0.0393
     40 HO2'       -0.6141    0.5574    2.1082 H         1 GTP         0.2010
     41 H1'         1.7826    1.9024    1.6451 H         1 GTP        -0.0393
     42 H8          0.7110    2.3472   -1.9295 H         1 GTP         0.0000
     43 HN1        -2.7504    5.7495    2.3282 H         1 GTP         0.0865
     44 HN21       -1.0467    3.8796    4.7190 H         1 GTP         0.2048
     45 HN22       -2.2294    5.1209    4.3680 H         1 GTP         0.2048
     46 H46        -1.0382    4.1687   -2.0954 H         1 GTP         0.2048
@<TRIPOS>BOND
     1    1    2 2
     2    1    3 1
     3    1    4 1
     4    1    5 1
     5    5    6 1
     6    6    7 2
     7    6    8 1
     8    6    9 1
     9    8   33 1
    10    9   10 1
    11   10   11 2
    12   10   12 1
    13   10   13 1
    14   13   14 1
    15   14   15 1
    16   14   34 1
    17   14   35 1
    18   15   16 1
    19   15   17 1
    20   15   36 1
    21   16   21 1
    22   17   18 1
    23   17   19 1
    24   17   37 1
    25   18   38 1
    26   19   20 1
    27   19   21 1
    28   19   39 1
    29   20   40 1
    30   21   22 1
    31   21   41 1
    32   22   23 ar
    33   22   32 ar
    34   23   24 ar
    35   23   42 1
    36   24   25 ar
    37   24   46 1
    38   25   26 ar
    39   25   32 ar
    40   26   27 2
    41   26   28 ar
    42   28   29 ar
    43   28   43 1
    44   29   30 1
    45   29   31 ar
    46   30   44 1
    47   30   45 1
    48   31   32 ar
@<TRIPOS>SUBSTRUCTURE
     1 GTP         1 GROUP 0 A     ****
@<TRIPOS>MOLECULE
[[[5-(2-amino-6-oxo-7,8-dihydro-1~{H}-purin-8-ylium-9-yl)-3,4-dihydroxy-tetrahydrofuran-2-yl]methoxy-oxido-phosphoryl]oxy-hydroxy-phosphoryl] phosphate
   46    48     1     0     0
SMALL
USER_CHARGES

@<TRIPOS>ATOM
      1 PG         -6.7157   -4.9493    4.3677 P.3       1 GTP        -1.1921
      2 O1G        -7.3415   -3.6493    3.8730 O.co2     1 GTP         0.3195
      3 O2G        -6.2615   -4.9115    5.8232 O.co2     1 GTP         0.3195
      4 O3G        -7.4920   -6.2057    3.9868 O.co2     1 GTP         0.3195
      5 O3B        -5.3076   -5.0682    3.5188 O.3       1 GTP         0.4672
      6 PB         -5.0456   -5.1536    1.9249 P.3       1 GTP        -0.9715
      7 O1B        -5.6819   -6.3287    1.2431 O.2       1 GTP         0.2707
      8 O2B        -5.5410   -3.7080    1.3969 O.3       1 GTP         0.0326
      9 O3A        -3.4370   -5.0689    1.8036 O.3       1 GTP         0.4672
     10 PA         -2.2742   -6.0411    2.4080 P.3       1 GTP        -1.1062
     11 O1A        -2.2874   -5.9224    3.9164 O.co2     1 GTP         0.3195
     12 O2A        -2.3735   -7.3893    1.7280 O.co2     1 GTP         0.3195
     13 O5'        -0.9724   -5.2440    1.8220 O.3       1 GTP         0.1618
     14 C5'        -0.7840   -3.8935    2.2172 C.3       1 GTP         0.1504
     15 C4'        -0.0724   -3.1466    1.1027 C.3       1 GTP         0.1111
     16 O4'        -0.8674   -3.1929   -0.0945 O.3       1 GTP        -0.1436
     17 C3'         0.1338   -1.6715    1.4027 C.3       1 GTP         0.1111
     18 O3'         1.2893   -1.4445    2.1808 O.3       1 GTP        -0.2728
     19 C2'         0.2158   -1.0724    0.0128 C.3       1 GTP         0.1111
     20 O2'         1.5141   -1.2448   -0.5513 O.3       1 GTP        -0.2728
     21 C1'        -0.7897   -1.9176   -0.7583 C.3       1 GTP         0.2693
     22 N9         -2.1040   -1.3333   -0.7704 N.pl3     1 GTP        -0.3222
     23 C8         -3.0597   -1.5109    0.1345 C.ar      1 GTP         0.1640
     24 N7         -4.1618   -0.8291   -0.1607 N.pl3     1 GTP        -0.3688
     25 C5         -3.8764   -0.1805   -1.3310 C.ar      1 GTP         0.0648
     26 C6         -4.7187    0.7111   -2.1152 C.ar      1 GTP         0.3597
     27 O6         -5.8617    1.0043   -1.7939 O.2       1 GTP        -0.2755
     28 N1         -4.0405    1.1608   -3.2468 N.pl3     1 GTP        -0.1604
     29 C2         -2.7239    0.8013   -3.5822 C.ar      1 GTP         0.4468
     30 N2         -2.2399    1.3534   -4.7394 N.pl3     1 GTP        -0.5618
     31 N3         -2.0053   -0.0071   -2.8402 N.2       1 GTP        -0.4283
     32 C4         -2.6290   -0.4727   -1.7210 C.ar      1 GTP         0.2226
     33 HOB2       -5.4051   -3.4759    0.4535 H         1 GTP         0.2010
     34 H5'        -1.7618   -3.4448    2.4164 H         1 GTP        -0.0393
     35 H5''       -0.1874   -3.8744    3.1341 H         1 GTP        -0.0393
     36 H4'         0.8874   -3.6466    0.8805 H         1 GTP        -0.0393
     37 H3'        -0.7376   -1.2333    1.9867 H         1 GTP        -0.0393
     38 HO3'        1.3408   -0.4870    2.3219 H         1 GTP         0.2010
     39 H2'        -0.0384   -0.0310    0.0096 H         1 GTP        -0.0393
     40 HO2'        2.1463   -0.7958    0.0370 H         1 GTP         0.2010
     41 H1'        -0.4769   -2.1002   -1.8093 H         1 GTP        -0.0393
     42 H8         -2.9610   -2.1316    1.0079 H         1 GTP         0.0000
     43 HN1        -4.5320    1.7923   -3.8726 H         1 GTP         0.0865
     44 HN21       -1.3128    1.1277   -5.0171 H         1 GTP         0.2048
     45 HN22       -2.8342    1.9586   -5.2572 H         1 GTP         0.2048
     46 H46        -5.0195   -0.8034    0.3729 H         1 GTP         0.2048
@<TRIPOS>BOND
     1    1    2 2
     2    1    3 1
     3    1    4 1
     4    1    5 1
     5    5    6 1
     6    6    7 2
     7    6    8 1
     8    6    9 1
     9    8   33 1
    10    9   10 1
    11   10   11 2
    12   10   12 1
    13   10   13 1
    14   13   14 1
    15   14   15 1
    16   14   34 1
    17   14   35 1
    18   15   16 1
    19   15   17 1
    20   15   36 1
    21   16   21 1
    22   17   18 1
    23   17   19 1
    24   17   37 1
    25   18   38 1
    26   19   20 1
    27   19   21 1
    28   19   39 1
    29   20   40 1
    30   21   22 1
    31   21   41 1
    32   22   23 ar
    33   22   32 ar
    34   23   24 ar
    35   23   42 1
    36   24   25 ar
    37   24   46 1
    38   25   26 ar
    39   25   32 ar
    40   26   27 2
    41   26   28 ar
    42   28   29 ar
    43   28   43 1
    44   29   30 1
    45   29   31 ar
    46   30   44 1
    47   30   45 1
    48   31   32 ar
@<TRIPOS>SUBSTRUCTURE
     1 GTP         1 GROUP 0 A     ****
@<TRIPOS>MOLECULE
[[[5-(2-amino-6-oxo-7,8-dihydro-1~{H}-purin-8-ylium-9-yl)-3,4-dihydroxy-tetrahydrofuran-2-yl]methoxy-oxido-phosphoryl]oxy-hydroxy-phosphoryl] phosphate
   46    48     1     0     0
SMALL
USER_CHARGES

@<TRIPOS>ATOM
      1 PG          6.6798   -4.5448   -5.4193 P.3       1 GTP        -1.1921
      2 O1G         6.7271   -5.6656   -4.3860 O.co2     1 GTP         0.3195
      3 O2G         7.9912   -3.7818   -5.5761 O.co2     1 GTP         0.3195
      4 O3G         6.0203   -4.9332   -6.7385 O.co2     1 GTP         0.3195
      5 O3B         5.6539   -3.4338   -4.7632 O.3       1 GTP         0.4672
      6 PB          4.0993   -3.5630   -4.3353 P.3       1 GTP        -0.9715
      7 O1B         3.1656   -3.9254   -5.4522 O.2       1 GTP         0.2707
      8 O2B         4.1451   -4.6212   -3.1137 O.3       1 GTP         0.0326
      9 O3A         3.7928   -2.1555   -3.6041 O.3       1 GTP         0.4672
     10 PA          3.4597   -0.6852   -4.2287 P.3       1 GTP        -1.1062
     11 O1A         4.6913   -0.1809   -4.9487 O.co2     1 GTP         0.3195
     12 O2A         2.1180   -0.7517   -4.9252 O.co2     1 GTP         0.3195
     13 O5'         3.2903    0.1346   -2.8241 O.3       1 GTP         0.1618
     14 C5'         2.2816   -0.2918   -1.9206 C.3       1 GTP         0.1504
     15 C4'         2.7248    0.0226   -0.4980 C.3       1 GTP         0.1111
     16 O4'         2.4697    1.4219   -0.2462 O.3       1 GTP        -0.1436
     17 C3'         1.9404   -0.7419    0.5596 C.3       1 GTP         0.1111
     18 O3'         2.7418   -0.8086    1.7389 O.3       1 GTP        -0.2728
     19 C2'         0.7477    0.1630    0.7858 C.3       1 GTP         0.1111
     20 O2'         0.1373   -0.0577    2.0407 O.3       1 GTP        -0.2728
     21 C1'         1.3733    1.5427    0.6747 C.3       1 GTP         0.2693
     22 N9          0.4520    2.5240    0.1767 N.pl3     1 GTP        -0.3222
     23 C8          0.2203    2.8205   -1.0970 C.ar      1 GTP         0.1640
     24 N7         -0.6947    3.7752   -1.2304 N.pl3     1 GTP        -0.3688
     25 C5         -1.0607    4.0987    0.0476 C.ar      1 GTP         0.0648
     26 C6         -2.0310    5.0839    0.5029 C.ar      1 GTP         0.3597
     27 O6         -2.6779    5.7867   -0.2609 O.2       1 GTP        -0.2755
     28 N1         -2.1030    5.0975    1.8948 N.pl3     1 GTP        -0.1604
     29 C2         -1.3422    4.2721    2.7403 C.ar      1 GTP         0.4468
     30 N2         -1.5624    4.4419    4.0823 N.pl3     1 GTP        -0.5618
     31 N3         -0.4796    3.3981    2.2792 N.2       1 GTP        -0.4283
     32 C4         -0.3754    3.3496    0.9208 C.ar      1 GTP         0.2226
     33 HOB2        3.3198   -4.8081   -2.6175 H         1 GTP         0.2010
     34 H5'         1.3514    0.2330   -2.1577 H         1 GTP        -0.0393
     35 H5''        2.1280   -1.3678   -2.0460 H         1 GTP        -0.0393
     36 H4'         3.8044   -0.1397   -0.4040 H         1 GTP        -0.0393
     37 H3'         1.6764   -1.7639    0.2728 H         1 GTP        -0.0393
     38 HO3'        2.2232   -1.2979    2.3953 H         1 GTP         0.2010
     39 H2'        -0.0011    0.0027    0.0003 H         1 GTP        -0.0393
     40 HO2'       -0.1563   -0.9855    2.0596 H         1 GTP         0.2010
     41 H1'         1.7826    1.9024    1.6451 H         1 GTP        -0.0393
     42 H8          0.7110    2.3472   -1.9295 H         1 GTP         0.0000
     43 HN1        -2.7504    5.7495    2.3282 H         1 GTP         0.0865
     44 HN21       -1.0467    3.8796    4.7190 H         1 GTP         0.2048
     45 HN22       -2.2294    5.1209    4.3680 H         1 GTP         0.2048
     46 H46        -1.0382    4.1687   -2.0954 H         1 GTP         0.2048
@<TRIPOS>BOND
     1    1    2 2
     2    1    3 1
     3    1    4 1
     4    1    5 1
     5    5    6 1
     6    6    7 2
     7    6    8 1
     8    6    9 1
     9    8   33 1
    10    9   10 1
    11   10   11 2
    12   10   12 1
    13   10   13 1
    14   13   14 1
    15   14   15 1
    16   14   34 1
    17   14   35 1
    18   15   16 1
    19   15   17 1
    20   15   36 1
    21   16   21 1
    22   17   18 1
    23   17   19 1
    24   17   37 1
    25   18   38 1
    26   19   20 1
    27   19   21 1
    28   19   39 1
    29   20   40 1
    30   21   22 1
    31   21   41 1
    32   22   23 ar
    33   22   32 ar
    34   23   24 ar
    35   23   42 1
    36   24   25 ar
    37   24   46 1
    38   25   26 ar
    39   25   32 ar
    40   26   27 2
    41   26   28 ar
    42   28   29 ar
    43   28   43 1
    44   29   30 1
    45   29   31 ar
    46   30   44 1
    47   30   45 1
    48   31   32 ar
@<TRIPOS>SUBSTRUCTURE
     1 GTP         1 GROUP 0 A     ****
@<TRIPOS>MOLECULE
[[[5-(2-amino-6-oxo-7,8-dihydro-1~{H}-purin-8-ylium-9-yl)-3,4-dihydroxy-tetrahydrofuran-2-yl]methoxy-oxido-phosphoryl]oxy-hydroxy-phosphoryl] phosphate
   46    48     1     0     0
SMALL
USER_CHARGES

@<TRIPOS>ATOM
      1 PG          2.3020   -0.5131   -8.9871 P.3       1 GTP        -1.1921
      2 O1G         2.5575   -2.0002   -9.2098 O.co2     1 GTP         0.3195
      3 O2G         3.4375    0.3936   -9.4507 O.co2     1 GTP         0.3195
      4 O3G         0.9139   -0.0433   -9.4095 O.co2     1 GTP         0.3195
      5 O3B         2.3073   -0.3436   -7.3474 O.3       1 GTP         0.4672
      6 PB          1.3669   -1.0195   -6.2182 P.3       1 GTP        -0.9715
      7 O1B        -0.0965   -0.7181   -6.3528 O.2       1 GTP         0.2707
      8 O2B         1.7523   -2.5868   -6.3143 O.3       1 GTP         0.0326
      9 O3A         2.0474   -0.5479   -4.8311 O.3       1 GTP         0.4672
     10 PA          2.3065    0.9470   -4.2302 P.3       1 GTP        -1.1062
     11 O1A         3.3234    1.6453   -5.1065 O.co2     1 GTP         0.3195
     12 O2A         0.9669    1.5820   -3.9271 O.co2     1 GTP         0.3195
     13 O5'         3.0213    0.5153   -2.8245 O.3       1 GTP         0.1618
     14 C5'         2.2816   -0.2918   -1.9206 C.3       1 GTP         0.1504
     15 C4'         2.7248    0.0226   -0.4980 C.3       1 GTP         0.1111
     16 O4'         2.4697    1.4219   -0.2462 O.3       1 GTP        -0.1436
     17 C3'         1.9404   -0.7419    0.5596 C.3       1 GTP         0.1111
     18 O3'         2.7418   -0.8086    1.7389 O.3       1 GTP        -0.2728
     19 C2'         0.7477    0.1630    0.7858 C.3       1 GTP         0.1111
     20 O2'         0.1373   -0.0577    2.0407 O.3       1 GTP        -0.2728
     21 C1'         1.3733    1.5427    0.6747 C.3       1 GTP         0.2693
     22 N9          0.4520    2.5240    0.1767 N.pl3     1 GTP        -0.3222
     23 C8          0.5671    3.2221   -0.9473 C.ar      1 GTP         0.1640
     24 N7         -0.4560    4.0508   -1.1290 N.pl3     1 GTP        -0.3688
     25 C5         -1.2671    3.8585   -0.0441 C.ar      1 GTP         0.0648
     26 C6         -2.5318    4.5014    0.2817 C.ar      1 GTP         0.3597
     27 O6         -3.0527    5.3493   -0.4293 O.2       1 GTP        -0.2755
     28 N1         -3.0357    4.0149    1.4868 N.pl3     1 GTP        -0.1604
     29 C2         -2.4069    3.0373    2.2768 C.ar      1 GTP         0.4468
     30 N2         -3.0679    2.6964    3.4278 N.pl3     1 GTP        -0.5618
     31 N3         -1.2653    2.4872    1.9379 N.2       1 GTP        -0.4283
     32 C4         -0.7342    2.9334    0.7643 C.ar      1 GTP         0.2226
     33 HOB2        1.3697   -3.2099   -5.6603 H         1 GTP         0.2010
     34 H5'         1.2163   -0.0770   -2.0471 H         1 GTP        -0.0393
     35 H5''        2.4655   -1.3443   -2.1563 H         1 GTP        -0.0393
     36 H4'         3.8044   -0.1397   -0.4040 H         1 GTP        -0.0393
     37 H3'         1.6764   -1.7639    0.2728 H         1 GTP        -0.0393
     38 HO3'        2.2232   -1.2979    2.3953 H         1 GTP         0.2010
     39 H2'        -0.0011    0.0027    0.0003 H         1 GTP        -0.0393
     40 HO2'       -0.1563   -0.9855    2.0596 H         1 GTP         0.2010
     41 H1'         1.7826    1.9024    1.6451 H         1 GTP        -0.0393
     42 H8          1.3888    3.1325   -1.6361 H         1 GTP         0.0000
     43 HN1        -3.9188    4.3932    1.8170 H         1 GTP         0.0865
     44 HN21       -2.6609    2.0087    4.0186 H         1 GTP         0.2048
     45 HN22       -3.9293    3.1496    3.6283 H         1 GTP         0.2048
     46 H46        -0.5938    4.6820   -1.9060 H         1 GTP         0.2048
@<TRIPOS>BOND
     1    1    2 2
     2    1    3 1
     3    1    4 1
     4    1    5 1
     5    5    6 1
     6    6    7 2
     7    6    8 1
     8    6    9 1
     9    8   33 1
    10    9   10 1
    11   10   11 2
    12   10   12 1
    13   10   13 1
    14   13   14 1
    15   14   15 1
    16   14   34 1
    17   14   35 1
    18   15   16 1
    19   15   17 1
    20   15   36 1
    21   16   21 1
    22   17   18 1
    23   17   19 1
    24   17   37 1
    25   18   38 1
    26   19   20 1
    27   19   21 1
    28   19   39 1
    29   20   40 1
    30   21   22 1
    31   21   41 1
    32   22   23 ar
    33   22   32 ar
    34   23   24 ar
    35   23   42 1
    36   24   25 ar
    37   24   46 1
    38   25   26 ar
    39   25   32 ar
    40   26   27 2
    41   26   28 ar
    42   28   29 ar
    43   28   43 1
    44   29   30 1
    45   29   31 ar
    46   30   44 1
    47   30   45 1
    48   31   32 ar
@<TRIPOS>SUBSTRUCTURE
     1 GTP         1 GROUP 0 A     ****
@<TRIPOS>MOLECULE
[[[5-(2-amino-6-oxo-7,8-dihydro-1~{H}-purin-8-ylium-9-yl)-3,4-dihydroxy-tetrahydrofuran-2-yl]methoxy-oxido-phosphoryl]oxy-hydroxy-phosphoryl] phosphate
   46    48     1     0     0
SMALL
USER_CHARGES

@<TRIPOS>ATOM
      1 PG         -4.6110   -1.5628    4.8663 P.3       1 GTP        -1.1921
      2 O1G        -4.5118   -0.7900    6.1775 O.co2     1 GTP         0.3195
      3 O2G        -6.0043   -1.5669    4.2458 O.co2     1 GTP         0.3195
      4 O3G        -3.4867   -1.2712    3.8780 O.co2     1 GTP         0.3195
      5 O3B        -4.3705   -3.1337    5.3042 O.3       1 GTP         0.4672
      6 PB         -3.1044   -3.8434    6.0183 P.3       1 GTP        -0.9715
      7 O1B        -2.7576   -3.2997    7.3728 O.2       1 GTP         0.2707
      8 O2B        -3.5038   -5.4099    5.9936 O.3       1 GTP         0.0326
      9 O3A        -1.9368   -3.7340    4.9073 O.3       1 GTP         0.4672
     10 PA         -0.5519   -4.5800    4.7360 P.3       1 GTP        -1.1062
     11 O1A         0.3577   -4.2496    5.8992 O.co2     1 GTP         0.3195
     12 O2A        -0.9026   -6.0128    4.3989 O.co2     1 GTP         0.3195
     13 O5'         0.0118   -3.8395    3.3916 O.3       1 GTP         0.1618
     14 C5'        -0.7840   -3.8935    2.2172 C.3       1 GTP         0.1504
     15 C4'        -0.0724   -3.1466    1.1027 C.3       1 GTP         0.1111
     16 O4'        -0.8674   -3.1929   -0.0945 O.3       1 GTP        -0.1436
     17 C3'         0.1338   -1.6715    1.4027 C.3       1 GTP         0.1111
     18 O3'         1.2893   -1.4445    2.1808 O.3       1 GTP        -0.2728
     19 C2'         0.2158   -1.0724    0.0128 C.3       1 GTP         0.1111
     20 O2'         1.5141   -1.2448   -0.5513 O.3       1 GTP        -0.2728
     21 C1'        -0.7897   -1.9176   -0.7583 C.3       1 GTP         0.2693
     22 N9         -2.1040   -1.3333   -0.7704 N.pl3     1 GTP        -0.3222
     23 C8         -3.0597   -1.5109    0.1345 C.ar      1 GTP         0.1640
     24 N7         -4.1618   -0.8291   -0.1607 N.pl3     1 GTP        -0.3688
     25 C5         -3.8764   -0.1805   -1.3310 C.ar      1 GTP         0.0648
     26 C6         -4.7187    0.7111   -2.1152 C.ar      1 GTP         0.3597
     27 O6         -5.8617    1.0043   -1.7939 O.2       1 GTP        -0.2755
     28 N1         -4.0405    1.1608   -3.2468 N.pl3     1 GTP        -0.1604
     29 C2         -2.7239    0.8013   -3.5822 C.ar      1 GTP         0.4468
     30 N2         -2.2399    1.3534   -4.7394 N.pl3     1 GTP        -0.5618
     31 N3         -2.0053   -0.0071   -2.8402 N.2       1 GTP        -0.4283
     32 C4         -2.6290   -0.4727   -1.7210 C.ar      1 GTP         0.2226
     33 HOB2       -2.8476   -6.0712    6.3007 H         1 GTP         0.2010
     34 H5'        -0.9348   -4.9415    1.9415 H         1 GTP        -0.0393
     35 H5''       -1.7548   -3.4350    2.4278 H         1 GTP        -0.0393
     36 H4'         0.8874   -3.6466    0.8805 H         1 GTP        -0.0393
     37 H3'        -0.7376   -1.2333    1.9867 H         1 GTP        -0.0393
     38 HO3'        1.1626   -1.9325    3.0084 H         1 GTP         0.2010
     39 H2'        -0.0384   -0.0310    0.0096 H         1 GTP        -0.0393
     40 HO2'        2.1463   -0.7958    0.0370 H         1 GTP         0.2010
     41 H1'        -0.4769   -2.1002   -1.8093 H         1 GTP        -0.0393
     42 H8         -2.9610   -2.1316    1.0079 H         1 GTP         0.0000
     43 HN1        -4.5320    1.7923   -3.8726 H         1 GTP         0.0865
     44 HN21       -1.3128    1.1277   -5.0171 H         1 GTP         0.2048
     45 HN22       -2.8342    1.9586   -5.2572 H         1 GTP         0.2048
     46 H46        -5.0195   -0.8034    0.3729 H         1 GTP         0.2048
@<TRIPOS>BOND
     1    1    2 2
     2    1    3 1
     3    1    4 1
     4    1    5 1
     5    5    6 1
     6    6    7 2
     7    6    8 1
     8    6    9 1
     9    8   33 1
    10    9   10 1
    11   10   11 2
    12   10   12 1
    13   10   13 1
    14   13   14 1
    15   14   15 1
    16   14   34 1
    17   14   35 1
    18   15   16 1
    19   15   17 1
    20   15   36 1
    21   16   21 1
    22   17   18 1
    23   17   19 1
    24   17   37 1
    25   18   38 1
    26   19   20 1
    27   19   21 1
    28   19   39 1
    29   20   40 1
    30   21   22 1
    31   21   41 1
    32   22   23 ar
    33   22   32 ar
    34   23   24 ar
    35   23   42 1
    36   24   25 ar
    37   24   46 1
    38   25   26 ar
    39   25   32 ar
    40   26   27 2
    41   26   28 ar
    42   28   29 ar
    43   28   43 1
    44   29   30 1
    45   29   31 ar
    46   30   44 1
    47   30   45 1
    48   31   32 ar
@<TRIPOS>SUBSTRUCTURE
     1 GTP         1 GROUP 0 A     ****
@<TRIPOS>MOLECULE
[[[5-(2-amino-6-oxo-7,8-dihydro-1~{H}-purin-8-ylium-9-yl)-3,4-dihydroxy-tetrahydrofuran-2-yl]methoxy-oxido-phosphoryl]oxy-hydroxy-phosphoryl] phosphate
   46    48     1     0     0
SMALL
USER_CHARGES

@<TRIPOS>ATOM
      1 PG          4.6982   -5.8372   -4.1371 P.3       1 GTP        -1.1921
      2 O1G         5.8436   -5.6598   -5.1286 O.co2     1 GTP         0.3195
      3 O2G         3.3647   -6.2042   -4.7801 O.co2     1 GTP         0.3195
      4 O3G         5.0520   -6.6713   -2.9103 O.co2     1 GTP         0.3195
      5 O3B         4.4434   -4.3222   -3.5393 O.3       1 GTP         0.4672
      6 PB          5.4350   -3.3299   -2.7341 P.3       1 GTP        -0.9715
      7 O1B         5.9522   -3.8727   -1.4348 O.2       1 GTP         0.2707
      8 O2B         6.5723   -2.9841   -3.8301 O.3       1 GTP         0.0326
      9 O3A         4.5871   -1.9592   -2.6248 O.3       1 GTP         0.4672
     10 PA          3.9818   -0.9895   -3.7893 P.3       1 GTP        -1.1062
     11 O1A         5.1375   -0.3569   -4.5337 O.co2     1 GTP         0.3195
     12 O2A         2.8953   -1.7428   -4.5252 O.co2     1 GTP         0.3195
     13 O5'         3.2903    0.1346   -2.8241 O.3       1 GTP         0.1618
     14 C5'         2.2816   -0.2918   -1.9206 C.3       1 GTP         0.1504
     15 C4'         2.7248    0.0226   -0.4980 C.3       1 GTP         0.1111
     16 O4'         2.4697    1.4219   -0.2462 O.3       1 GTP        -0.1436
     17 C3'         1.9404   -0.7419    0.5596 C.3       1 GTP         0.1111
     18 O3'         2.7418   -0.8086    1.7389 O.3       1 GTP        -0.2728
     19 C2'         0.7477    0.1630    0.7858 C.3       1 GTP         0.1111
     20 O2'         0.1373   -0.0577    2.0407 O.3       1 GTP        -0.2728
     21 C1'         1.3733    1.5427    0.6747 C.3       1 GTP         0.2693
     22 N9          0.4520    2.5240    0.1767 N.pl3     1 GTP        -0.3222
     23 C8          0.2203    2.8205   -1.0970 C.ar      1 GTP         0.1640
     24 N7         -0.6947    3.7752   -1.2304 N.pl3     1 GTP        -0.3688
     25 C5         -1.0607    4.0987    0.0476 C.ar      1 GTP         0.0648
     26 C6         -2.0310    5.0839    0.5029 C.ar      1 GTP         0.3597
     27 O6         -2.6779    5.7867   -0.2609 O.2       1 GTP        -0.2755
     28 N1         -2.1030    5.0975    1.8948 N.pl3     1 GTP        -0.1604
     29 C2         -1.3422    4.2721    2.7403 C.ar      1 GTP         0.4468
     30 N2         -1.5624    4.4419    4.0823 N.pl3     1 GTP        -0.5618
     31 N3         -0.4796    3.3981    2.2792 N.2       1 GTP        -0.4283
     32 C4         -0.3754    3.3496    0.9208 C.ar      1 GTP         0.2226
     33 HOB2        7.2588   -2.3199   -3.6072 H         1 GTP         0.2010
     34 H5'         1.3514    0.2330   -2.1577 H         1 GTP        -0.0393
     35 H5''        2.1280   -1.3678   -2.0460 H         1 GTP        -0.0393
     36 H4'         3.8044   -0.1397   -0.4040 H         1 GTP        -0.0393
     37 H3'         1.6764   -1.7639    0.2728 H         1 GTP        -0.0393
     38 HO3'        2.2232   -1.2979    2.3953 H         1 GTP         0.2010
     39 H2'        -0.0011    0.0027    0.0003 H         1 GTP        -0.0393
     40 HO2'       -0.6141    0.5574    2.1082 H         1 GTP         0.2010
     41 H1'         1.7826    1.9024    1.6451 H         1 GTP        -0.0393
     42 H8          0.7110    2.3472   -1.9295 H         1 GTP         0.0000
     43 HN1        -2.7504    5.7495    2.3282 H         1 GTP         0.0865
     44 HN21       -1.0467    3.8796    4.7190 H         1 GTP         0.2048
     45 HN22       -2.2294    5.1209    4.3680 H         1 GTP         0.2048
     46 H46        -1.0382    4.1687   -2.0954 H         1 GTP         0.2048
@<TRIPOS>BOND
     1    1    2 2
     2    1    3 1
     3    1    4 1
     4    1    5 1
     5    5    6 1
     6    6    7 2
     7    6    8 1
     8    6    9 1
     9    8   33 1
    10    9   10 1
    11   10   11 2
    12   10   12 1
    13   10   13 1
    14   13   14 1
    15   14   15 1
    16   14   34 1
    17   14   35 1
    18   15   16 1
    19   15   17 1
    20   15   36 1
    21   16   21 1
    22   17   18 1
    23   17   19 1
    24   17   37 1
    25   18   38 1
    26   19   20 1
    27   19   21 1
    28   19   39 1
    29   20   40 1
    30   21   22 1
    31   21   41 1
    32   22   23 ar
    33   22   32 ar
    34   23   24 ar
    35   23   42 1
    36   24   25 ar
    37   24   46 1
    38   25   26 ar
    39   25   32 ar
    40   26   27 2
    41   26   28 ar
    42   28   29 ar
    43   28   43 1
    44   29   30 1
    45   29   31 ar
    46   30   44 1
    47   30   45 1
    48   31   32 ar
@<TRIPOS>SUBSTRUCTURE
     1 GTP         1 GROUP 0 A     ****
@<TRIPOS>MOLECULE
[[[5-(2-amino-6-oxo-7,8-dihydro-1~{H}-purin-8-ylium-9-yl)-3,4-dihydroxy-tetrahydrofuran-2-yl]methoxy-oxido-phosphoryl]oxy-hydroxy-phosphoryl] phosphate
   46    48     1     0     0
SMALL
USER_CHARGES

@<TRIPOS>ATOM
      1 PG          1.3315   -4.6577    6.4937 P.3       1 GTP        -1.1921
      2 O1G         2.3511   -3.8435    5.7039 O.co2     1 GTP         0.3195
      3 O2G         1.7742   -5.0116    7.9096 O.co2     1 GTP         0.3195
      4 O3G        -0.0991   -4.1379    6.3969 O.co2     1 GTP         0.3195
      5 O3B         1.2891   -6.1122    5.7192 O.3       1 GTP         0.4672
      6 PB          0.9022   -6.4785    4.1919 P.3       1 GTP        -0.9715
      7 O1B         1.7621   -5.8267    3.1496 O.2       1 GTP         0.2707
      8 O2B         0.9314   -8.0951    4.1870 O.3       1 GTP         0.0326
      9 O3A        -0.6728   -6.1292    4.1093 O.3       1 GTP         0.4672
     10 PA         -1.7238   -6.2523    2.8671 P.3       1 GTP        -1.1062
     11 O1A        -1.6594   -7.6631    2.3238 O.co2     1 GTP         0.3195
     12 O2A        -3.0395   -5.6347    3.2878 O.co2     1 GTP         0.3195
     13 O5'        -0.9724   -5.2440    1.8220 O.3       1 GTP         0.1618
     14 C5'        -0.7840   -3.8935    2.2172 C.3       1 GTP         0.1504
     15 C4'        -0.0724   -3.1466    1.1027 C.3       1 GTP         0.1111
     16 O4'        -0.8674   -3.1929   -0.0945 O.3       1 GTP        -0.1436
     17 C3'         0.1338   -1.6715    1.4027 C.3       1 GTP         0.1111
     18 O3'         1.2893   -1.4445    2.1808 O.3       1 GTP        -0.2728
     19 C2'         0.2158   -1.0724    0.0128 C.3       1 GTP         0.1111
     20 O2'         1.5141   -1.2448   -0.5513 O.3       1 GTP        -0.2728
     21 C1'        -0.7897   -1.9176   -0.7583 C.3       1 GTP         0.2693
     22 N9         -2.1040   -1.3333   -0.7704 N.pl3     1 GTP        -0.3222
     23 C8         -3.0597   -1.5109    0.1345 C.ar      1 GTP         0.1640
     24 N7         -4.1618   -0.8291   -0.1607 N.pl3     1 GTP        -0.3688
     25 C5         -3.8764   -0.1805   -1.3310 C.ar      1 GTP         0.0648
     26 C6         -4.7187    0.7111   -2.1152 C.ar      1 GTP         0.3597
     27 O6         -5.8617    1.0043   -1.7939 O.2       1 GTP        -0.2755
     28 N1         -4.0405    1.1608   -3.2468 N.pl3     1 GTP        -0.1604
     29 C2         -2.7239    0.8013   -3.5822 C.ar      1 GTP         0.4468
     30 N2         -2.2399    1.3534   -4.7394 N.pl3     1 GTP        -0.5618
     31 N3         -2.0053   -0.0071   -2.8402 N.2       1 GTP        -0.4283
     32 C4         -2.6290   -0.4727   -1.7210 C.ar      1 GTP         0.2226
     33 HOB2        0.6441   -8.5718    3.3793 H         1 GTP         0.2010
     34 H5'        -1.7618   -3.4448    2.4164 H         1 GTP        -0.0393
     35 H5''       -0.1874   -3.8744    3.1341 H         1 GTP        -0.0393
     36 H4'         0.8874   -3.6466    0.8805 H         1 GTP        -0.0393
     37 H3'        -0.7376   -1.2333    1.9867 H         1 GTP        -0.0393
     38 HO3'        1.3408   -0.4870    2.3219 H         1 GTP         0.2010
     39 H2'        -0.0384   -0.0310    0.0096 H         1 GTP        -0.0393
     40 HO2'        2.1463   -0.7958    0.0370 H         1 GTP         0.2010
     41 H1'        -0.4769   -2.1002   -1.8093 H         1 GTP        -0.0393
     42 H8         -2.9610   -2.1316    1.0079 H         1 GTP         0.0000
     43 HN1        -4.5320    1.7923   -3.8726 H         1 GTP         0.0865
     44 HN21       -1.3128    1.1277   -5.0171 H         1 GTP         0.2048
     45 HN22       -2.8342    1.9586   -5.2572 H         1 GTP         0.2048
     46 H46        -5.0195   -0.8034    0.3729 H         1 GTP         0.2048
@<TRIPOS>BOND
     1    1    2 2
     2    1    3 1
     3    1    4 1
     4    1    5 1
     5    5    6 1
     6    6    7 2
     7    6    8 1
     8    6    9 1
     9    8   33 1
    10    9   10 1
    11   10   11 2
    12   10   12 1
    13   10   13 1
    14   13   14 1
    15   14   15 1
    16   14   34 1
    17   14   35 1
    18   15   16 1
    19   15   17 1
    20   15   36 1
    21   16   21 1
    22   17   18 1
    23   17   19 1
    24   17   37 1
    25   18   38 1
    26   19   20 1
    27   19   21 1
    28   19   39 1
    29   20   40 1
    30   21   22 1
    31   21   41 1
    32   22   23 ar
    33   22   32 ar
    34   23   24 ar
    35   23   42 1
    36   24   25 ar
    37   24   46 1
    38   25   26 ar
    39   25   32 ar
    40   26   27 2
    41   26   28 ar
    42   28   29 ar
    43   28   43 1
    44   29   30 1
    45   29   31 ar
    46   30   44 1
    47   30   45 1
    48   31   32 ar
@<TRIPOS>SUBSTRUCTURE
     1 GTP         1 GROUP 0 A     ****
@<TRIPOS>MOLECULE
[[[5-(2-amino-6-oxo-7,8-dihydro-1~{H}-purin-8-ylium-9-yl)-3,4-dihydroxy-tetrahydrofuran-2-yl]methoxy-oxido-phosphoryl]oxy-hydroxy-phosphoryl] phosphate
   46    48     1     0     0
SMALL
USER_CHARGES

@<TRIPOS>ATOM
      1 PG         -1.3377   -0.1870   -5.6907 P.3       1 GTP        -1.1921
      2 O1G        -1.9374   -1.4263   -6.3471 O.co2     1 GTP         0.3195
      3 O2G        -1.9718    1.1266   -6.1365 O.co2     1 GTP         0.3195
      4 O3G        -1.1408   -0.3069   -4.1831 O.co2     1 GTP         0.3195
      5 O3B         0.1937   -0.1104   -6.2961 O.3       1 GTP         0.4672
      6 PB          1.4153   -1.1663   -6.2008 P.3       1 GTP        -0.9715
      7 O1B         1.0178   -2.6056   -6.3457 O.2       1 GTP         0.2707
      8 O2B         2.4496   -0.6280   -7.3209 O.3       1 GTP         0.0326
      9 O3A         2.1354   -0.7826   -4.8066 O.3       1 GTP         0.4672
     10 PA          2.8307    0.6109   -4.3192 P.3       1 GTP        -1.1062
     11 O1A         4.0646    0.8503   -5.1617 O.co2     1 GTP         0.3195
     12 O2A         1.7538    1.6661   -4.1908 O.co2     1 GTP         0.3195
     13 O5'         3.2903    0.1346   -2.8241 O.3       1 GTP         0.1618
     14 C5'         2.2816   -0.2918   -1.9206 C.3       1 GTP         0.1504
     15 C4'         2.7248    0.0226   -0.4980 C.3       1 GTP         0.1111
     16 O4'         2.4697    1.4219   -0.2462 O.3       1 GTP        -0.1436
     17 C3'         1.9404   -0.7419    0.5596 C.3       1 GTP         0.1111
     18 O3'         2.7418   -0.8086    1.7389 O.3       1 GTP        -0.2728
     19 C2'         0.7477    0.1630    0.7858 C.3       1 GTP         0.1111
     20 O2'         0.1373   -0.0577    2.0407 O.3       1 GTP        -0.2728
     21 C1'         1.3733    1.5427    0.6747 C.3       1 GTP         0.2693
     22 N9          0.4520    2.5240    0.1767 N.pl3     1 GTP        -0.3222
     23 C8          0.2203    2.8205   -1.0970 C.ar      1 GTP         0.1640
     24 N7         -0.6947    3.7752   -1.2304 N.pl3     1 GTP        -0.3688
     25 C5         -1.0607    4.0987    0.0476 C.ar      1 GTP         0.0648
     26 C6         -2.0310    5.0839    0.5029 C.ar      1 GTP         0.3597
     27 O6         -2.6779    5.7867   -0.2609 O.2       1 GTP        -0.2755
     28 N1         -2.1030    5.0975    1.8948 N.pl3     1 GTP        -0.1604
     29 C2         -1.3422    4.2721    2.7403 C.ar      1 GTP         0.4468
     30 N2         -1.5624    4.4419    4.0823 N.pl3     1 GTP        -0.5618
     31 N3         -0.4796    3.3981    2.2792 N.2       1 GTP        -0.4283
     32 C4         -0.3754    3.3496    0.9208 C.ar      1 GTP         0.2226
     33 HOB2        2.7480    0.3055   -7.2808 H         1 GTP         0.2010
     34 H5'         1.3514    0.2330   -2.1577 H         1 GTP        -0.0393
     35 H5''        2.1280   -1.3678   -2.0460 H         1 GTP        -0.0393
     36 H4'         3.8044   -0.1397   -0.4040 H         1 GTP        -0.0393
     37 H3'         1.6764   -1.7639    0.2728 H         1 GTP        -0.0393
     38 HO3'        2.2232   -1.2979    2.3953 H         1 GTP         0.2010
     39 H2'        -0.0011    0.0027    0.0003 H         1 GTP        -0.0393
     40 HO2'       -0.1563   -0.9855    2.0596 H         1 GTP         0.2010
     41 H1'         1.7826    1.9024    1.6451 H         1 GTP        -0.0393
     42 H8          0.7110    2.3472   -1.9295 H         1 GTP         0.0000
     43 HN1        -2.7504    5.7495    2.3282 H         1 GTP         0.0865
     44 HN21       -1.0467    3.8796    4.7190 H         1 GTP         0.2048
     45 HN22       -2.2294    5.1209    4.3680 H         1 GTP         0.2048
     46 H46        -1.0382    4.1687   -2.0954 H         1 GTP         0.2048
@<TRIPOS>BOND
     1    1    2 2
     2    1    3 1
     3    1    4 1
     4    1    5 1
     5    5    6 1
     6    6    7 2
     7    6    8 1
     8    6    9 1
     9    8   33 1
    10    9   10 1
    11   10   11 2
    12   10   12 1
    13   10   13 1
    14   13   14 1
    15   14   15 1
    16   14   34 1
    17   14   35 1
    18   15   16 1
    19   15   17 1
    20   15   36 1
    21   16   21 1
    22   17   18 1
    23   17   19 1
    24   17   37 1
    25   18   38 1
    26   19   20 1
    27   19   21 1
    28   19   39 1
    29   20   40 1
    30   21   22 1
    31   21   41 1
    32   22   23 ar
    33   22   32 ar
    34   23   24 ar
    35   23   42 1
    36   24   25 ar
    37   24   46 1
    38   25   26 ar
    39   25   32 ar
    40   26   27 2
    41   26   28 ar
    42   28   29 ar
    43   28   43 1
    44   29   30 1
    45   29   31 ar
    46   30   44 1
    47   30   45 1
    48   31   32 ar
@<TRIPOS>SUBSTRUCTURE
     1 GTP         1 GROUP 0 A     ****
@<TRIPOS>MOLECULE
[[[5-(2-amino-6-oxo-7,8-dihydro-1~{H}-purin-8-ylium-9-yl)-3,4-dihydroxy-tetrahydrofuran-2-yl]methoxy-oxido-phosphoryl]oxy-hydroxy-phosphoryl] phosphate
   46    48     1     0     0
SMALL
USER_CHARGES

@<TRIPOS>ATOM
      1 PG          2.4450   -3.2292   -8.3251 P.3       1 GTP        -1.1921
      2 O1G         1.4598   -2.2792   -8.9983 O.co2     1 GTP         0.3195
      3 O2G         1.9290   -4.6553   -8.1638 O.co2     1 GTP         0.3195
      4 O3G         3.8714   -3.1362   -8.8570 O.co2     1 GTP         0.3195
      5 O3B         2.5508   -2.6712   -6.7776 O.3       1 GTP         0.4672
      6 PB          3.0273   -1.2338   -6.2092 P.3       1 GTP        -0.9715
      7 O1B         4.4360   -0.8532   -6.5573 O.2       1 GTP         0.2707
      8 O2B         1.8911   -0.2274   -6.7665 O.3       1 GTP         0.0326
      9 O3A         2.7049   -1.3291   -4.6292 O.3       1 GTP         0.4672
     10 PA          3.5344   -2.0410   -3.4175 P.3       1 GTP        -1.1062
     11 O1A         3.5097   -3.5381   -3.6357 O.co2     1 GTP         0.3195
     12 O2A         4.8394   -1.2990   -3.2278 O.co2     1 GTP         0.3195
     13 O5'         2.5245   -1.6648   -2.1878 O.3       1 GTP         0.1618
     14 C5'         2.2816   -0.2918   -1.9206 C.3       1 GTP         0.1504
     15 C4'         2.7248    0.0226   -0.4980 C.3       1 GTP         0.1111
     16 O4'         2.4697    1.4219   -0.2462 O.3       1 GTP        -0.1436
     17 C3'         1.9404   -0.7419    0.5596 C.3       1 GTP         0.1111
     18 O3'         2.7418   -0.8086    1.7389 O.3       1 GTP        -0.2728
     19 C2'         0.7477    0.1630    0.7858 C.3       1 GTP         0.1111
     20 O2'         0.1373   -0.0577    2.0407 O.3       1 GTP        -0.2728
     21 C1'         1.3733    1.5427    0.6747 C.3       1 GTP         0.2693
     22 N9          0.4520    2.5240    0.1767 N.pl3     1 GTP        -0.3222
     23 C8          0.2203    2.8205   -1.0970 C.ar      1 GTP         0.1640
     24 N7         -0.6947    3.7752   -1.2304 N.pl3     1 GTP        -0.3688
     25 C5         -1.0607    4.0987    0.0476 C.ar      1 GTP         0.0648
     26 C6         -2.0310    5.0839    0.5029 C.ar      1 GTP         0.3597
     27 O6         -2.6779    5.7867   -0.2609 O.2       1 GTP        -0.2755
     28 N1         -2.1030    5.0975    1.8948 N.pl3     1 GTP        -0.1604
     29 C2         -1.3422    4.2721    2.7403 C.ar      1 GTP         0.4468
     30 N2         -1.5624    4.4419    4.0823 N.pl3     1 GTP        -0.5618
     31 N3         -0.4796    3.3981    2.2792 N.2       1 GTP        -0.4283
     32 C4         -0.3754    3.3496    0.9208 C.ar      1 GTP         0.2226
     33 HOB2        1.8157   -0.0873   -7.7344 H         1 GTP         0.2010
     34 H5'         2.8432    0.3119   -2.6398 H         1 GTP        -0.0393
     35 H5''        1.2128   -0.0927   -2.0428 H         1 GTP        -0.0393
     36 H4'         3.8044   -0.1397   -0.4040 H         1 GTP        -0.0393
     37 H3'         1.6764   -1.7639    0.2728 H         1 GTP        -0.0393
     38 HO3'        2.2232   -1.2979    2.3953 H         1 GTP         0.2010
     39 H2'        -0.0011    0.0027    0.0003 H         1 GTP        -0.0393
     40 HO2'       -0.6141    0.5574    2.1082 H         1 GTP         0.2010
     41 H1'         1.7826    1.9024    1.6451 H         1 GTP        -0.0393
     42 H8          0.7110    2.3472   -1.9295 H         1 GTP         0.0000
     43 HN1        -2.7504    5.7495    2.3282 H         1 GTP         0.0865
     44 HN21       -1.0467    3.8796    4.7190 H         1 GTP         0.2048
     45 HN22       -2.2294    5.1209    4.3680 H         1 GTP         0.2048
     46 H46        -1.0382    4.1687   -2.0954 H         1 GTP         0.2048
@<TRIPOS>BOND
     1    1    2 2
     2    1    3 1
     3    1    4 1
     4    1    5 1
     5    5    6 1
     6    6    7 2
     7    6    8 1
     8    6    9 1
     9    8   33 1
    10    9   10 1
    11   10   11 2
    12   10   12 1
    13   10   13 1
    14   13   14 1
    15   14   15 1
    16   14   34 1
    17   14   35 1
    18   15   16 1
    19   15   17 1
    20   15   36 1
    21   16   21 1
    22   17   18 1
    23   17   19 1
    24   17   37 1
    25   18   38 1
    26   19   20 1
    27   19   21 1
    28   19   39 1
    29   20   40 1
    30   21   22 1
    31   21   41 1
    32   22   23 ar
    33   22   32 ar
    34   23   24 ar
    35   23   42 1
    36   24   25 ar
    37   24   46 1
    38   25   26 ar
    39   25   32 ar
    40   26   27 2
    41   26   28 ar
    42   28   29 ar
    43   28   43 1
    44   29   30 1
    45   29   31 ar
    46   30   44 1
    47   30   45 1
    48   31   32 ar
@<TRIPOS>SUBSTRUCTURE
     1 GTP         1 GROUP 0 A     ****
@<TRIPOS>MOLECULE
[[[5-(2-amino-6-oxo-7,8-dihydro-1~{H}-purin-8-ylium-9-yl)-3,4-dihydroxy-tetrahydrofuran-2-yl]methoxy-oxido-phosphoryl]oxy-hydroxy-phosphoryl] phosphate
   46    48     1     0     0
SMALL
USER_CHARGES

@<TRIPOS>ATOM
      1 PG         -0.8862    1.1239    5.1578 P.3       1 GTP        -1.1921
      2 O1G        -0.2777    1.3626    6.5358 O.co2     1 GTP         0.3195
      3 O2G        -1.6260    2.3275    4.5830 O.co2     1 GTP         0.3195
      4 O3G         0.0472    0.4326    4.1694 O.co2     1 GTP         0.3195
      5 O3B        -2.0805    0.0206    5.4293 O.3       1 GTP         0.4672
      6 PB         -2.0083   -1.4796    6.0298 P.3       1 GTP        -0.9715
      7 O1B        -1.4541   -1.5764    7.4205 O.2       1 GTP         0.2707
      8 O2B        -3.5256   -2.0122    5.8614 O.3       1 GTP         0.0326
      9 O3A        -1.1935   -2.2976    4.9000 O.3       1 GTP         0.4672
     10 PA         -0.7506   -3.8669    4.8378 P.3       1 GTP        -1.1062
     11 O1A         0.2681   -4.1202    5.9277 O.co2     1 GTP         0.3195
     12 O2A        -1.9987   -4.7143    4.7208 O.co2     1 GTP         0.3195
     13 O5'         0.0118   -3.8395    3.3916 O.3       1 GTP         0.1618
     14 C5'        -0.7840   -3.8935    2.2172 C.3       1 GTP         0.1504
     15 C4'        -0.0724   -3.1466    1.1027 C.3       1 GTP         0.1111
     16 O4'        -0.8674   -3.1929   -0.0945 O.3       1 GTP        -0.1436
     17 C3'         0.1338   -1.6715    1.4027 C.3       1 GTP         0.1111
     18 O3'         1.2893   -1.4445    2.1808 O.3       1 GTP        -0.2728
     19 C2'         0.2158   -1.0724    0.0128 C.3       1 GTP         0.1111
     20 O2'         1.5141   -1.2448   -0.5513 O.3       1 GTP        -0.2728
     21 C1'        -0.7897   -1.9176   -0.7583 C.3       1 GTP         0.2693
     22 N9         -2.1040   -1.3333   -0.7704 N.pl3     1 GTP        -0.3222
     23 C8         -3.0597   -1.5109    0.1345 C.ar      1 GTP         0.1640
     24 N7         -4.1618   -0.8291   -0.1607 N.pl3     1 GTP        -0.3688
     25 C5         -3.8764   -0.1805   -1.3310 C.ar      1 GTP         0.0648
     26 C6         -4.7187    0.7111   -2.1152 C.ar      1 GTP         0.3597
     27 O6         -5.8617    1.0043   -1.7939 O.2       1 GTP        -0.2755
     28 N1         -4.0405    1.1608   -3.2468 N.pl3     1 GTP        -0.1604
     29 C2         -2.7239    0.8013   -3.5822 C.ar      1 GTP         0.4468
     30 N2         -2.2399    1.3534   -4.7394 N.pl3     1 GTP        -0.5618
     31 N3         -2.0053   -0.0071   -2.8402 N.2       1 GTP        -0.4283
     32 C4         -2.6290   -0.4727   -1.7210 C.ar      1 GTP         0.2226
     33 HOB2       -3.7268   -2.9469    6.0808 H         1 GTP         0.2010
     34 H5'        -0.9348   -4.9415    1.9415 H         1 GTP        -0.0393
     35 H5''       -1.7548   -3.4350    2.4278 H         1 GTP        -0.0393
     36 H4'         0.8874   -3.6466    0.8805 H         1 GTP        -0.0393
     37 H3'        -0.7376   -1.2333    1.9867 H         1 GTP        -0.0393
     38 HO3'        1.1626   -1.9325    3.0084 H         1 GTP         0.2010
     39 H2'        -0.0384   -0.0310    0.0096 H         1 GTP        -0.0393
     40 HO2'        2.1463   -0.7958    0.0370 H         1 GTP         0.2010
     41 H1'        -0.4769   -2.1002   -1.8093 H         1 GTP        -0.0393
     42 H8         -2.9610   -2.1316    1.0079 H         1 GTP         0.0000
     43 HN1        -4.5320    1.7923   -3.8726 H         1 GTP         0.0865
     44 HN21       -1.3128    1.1277   -5.0171 H         1 GTP         0.2048
     45 HN22       -2.8342    1.9586   -5.2572 H         1 GTP         0.2048
     46 H46        -5.0195   -0.8034    0.3729 H         1 GTP         0.2048
@<TRIPOS>BOND
     1    1    2 2
     2    1    3 1
     3    1    4 1
     4    1    5 1
     5    5    6 1
     6    6    7 2
     7    6    8 1
     8    6    9 1
     9    8   33 1
    10    9   10 1
    11   10   11 2
    12   10   12 1
    13   10   13 1
    14   13   14 1
    15   14   15 1
    16   14   34 1
    17   14   35 1
    18   15   16 1
    19   15   17 1
    20   15   36 1
    21   16   21 1
    22   17   18 1
    23   17   19 1
    24   17   37 1
    25   18   38 1
    26   19   20 1
    27   19   21 1
    28   19   39 1
    29   20   40 1
    30   21   22 1
    31   21   41 1
    32   22   23 ar
    33   22   32 ar
    34   23   24 ar
    35   23   42 1
    36   24   25 ar
    37   24   46 1
    38   25   26 ar
    39   25   32 ar
    40   26   27 2
    41   26   28 ar
    42   28   29 ar
    43   28   43 1
    44   29   30 1
    45   29   31 ar
    46   30   44 1
    47   30   45 1
    48   31   32 ar
@<TRIPOS>SUBSTRUCTURE
     1 GTP         1 GROUP 0 A     ****
@<TRIPOS>MOLECULE
[[[5-(2-amino-6-oxo-7,8-dihydro-1~{H}-purin-8-ylium-9-yl)-3,4-dihydroxy-tetrahydrofuran-2-yl]methoxy-oxido-phosphoryl]oxy-hydroxy-phosphoryl] phosphate
   46    48     1     0     0
SMALL
USER_CHARGES

@<TRIPOS>ATOM
      1 PG          6.1970   -5.0385   -3.8644 P.3       1 GTP        -1.1921
      2 O1G         5.1077   -5.9144   -4.4746 O.co2     1 GTP         0.3195
      3 O2G         6.5921   -5.4291   -2.4439 O.co2     1 GTP         0.3195
      4 O3G         7.3783   -4.7675   -4.7903 O.co2     1 GTP         0.3195
      5 O3B         5.4770   -3.5668   -3.6822 O.3       1 GTP         0.4672
      6 PB          4.8222   -2.5745   -4.7790 P.3       1 GTP        -0.9715
      7 O1B         5.7660   -2.1014   -5.8448 O.2       1 GTP         0.2707
      8 O2B         3.5510   -3.4159   -5.3177 O.3       1 GTP         0.0326
      9 O3A         4.1516   -1.4116   -3.8803 O.3       1 GTP         0.4672
     10 PA          3.3181   -0.0790   -4.3186 P.3       1 GTP        -1.1062
     11 O1A         4.2597    0.8575   -5.0438 O.co2     1 GTP         0.3195
     12 O2A         2.0109   -0.5139   -4.9444 O.co2     1 GTP         0.3195
     13 O5'         3.0213    0.5153   -2.8245 O.3       1 GTP         0.1618
     14 C5'         2.2816   -0.2918   -1.9206 C.3       1 GTP         0.1504
     15 C4'         2.7248    0.0226   -0.4980 C.3       1 GTP         0.1111
     16 O4'         2.4697    1.4219   -0.2462 O.3       1 GTP        -0.1436
     17 C3'         1.9404   -0.7419    0.5596 C.3       1 GTP         0.1111
     18 O3'         2.7418   -0.8086    1.7389 O.3       1 GTP        -0.2728
     19 C2'         0.7477    0.1630    0.7858 C.3       1 GTP         0.1111
     20 O2'         0.1373   -0.0577    2.0407 O.3       1 GTP        -0.2728
     21 C1'         1.3733    1.5427    0.6747 C.3       1 GTP         0.2693
     22 N9          0.4520    2.5240    0.1767 N.pl3     1 GTP        -0.3222
     23 C8         -0.2009    2.4849   -0.9792 C.ar      1 GTP         0.1640
     24 N7         -0.9840    3.5454   -1.1481 N.pl3     1 GTP        -0.3688
     25 C5         -0.8090    4.3005   -0.0206 C.ar      1 GTP         0.0648
     26 C6         -1.4206    5.5724    0.3362 C.ar      1 GTP         0.3597
     27 O6         -2.2199    6.1544   -0.3836 O.2       1 GTP        -0.2755
     28 N1         -0.9680    6.0043    1.5817 N.pl3     1 GTP        -0.1604
     29 C2         -0.0474    5.3055    2.3814 C.ar      1 GTP         0.4468
     30 N2          0.2680    5.9024    3.5740 N.pl3     1 GTP        -0.5618
     31 N3          0.4755    4.1601    2.0138 N.2       1 GTP        -0.4283
     32 C4          0.0611    3.6981    0.8001 C.ar      1 GTP         0.2226
     33 HOB2        3.7088   -4.2475   -5.8136 H         1 GTP         0.2010
     34 H5'         1.2163   -0.0770   -2.0471 H         1 GTP        -0.0393
     35 H5''        2.4655   -1.3443   -2.1563 H         1 GTP        -0.0393
     36 H4'         3.8044   -0.1397   -0.4040 H         1 GTP        -0.0393
     37 H3'         1.6764   -1.7639    0.2728 H         1 GTP        -0.0393
     38 HO3'        2.2232   -1.2979    2.3953 H         1 GTP         0.2010
     39 H2'        -0.0011    0.0027    0.0003 H         1 GTP        -0.0393
     40 HO2'       -0.6141    0.5574    2.1082 H         1 GTP         0.2010
     41 H1'         1.7826    1.9024    1.6451 H         1 GTP        -0.0393
     42 H8         -0.1126    1.6906   -1.6997 H         1 GTP         0.0000
     43 HN1        -1.3285    6.8855    1.9361 H         1 GTP         0.0865
     44 HN21        0.9153    5.4446    4.1732 H         1 GTP         0.2048
     45 HN22       -0.1624    6.7706    3.7948 H         1 GTP         0.2048
     46 H46        -1.5768    3.7405   -1.9429 H         1 GTP         0.2048
@<TRIPOS>BOND
     1    1    2 2
     2    1    3 1
     3    1    4 1
     4    1    5 1
     5    5    6 1
     6    6    7 2
     7    6    8 1
     8    6    9 1
     9    8   33 1
    10    9   10 1
    11   10   11 2
    12   10   12 1
    13   10   13 1
    14   13   14 1
    15   14   15 1
    16   14   34 1
    17   14   35 1
    18   15   16 1
    19   15   17 1
    20   15   36 1
    21   16   21 1
    22   17   18 1
    23   17   19 1
    24   17   37 1
    25   18   38 1
    26   19   20 1
    27   19   21 1
    28   19   39 1
    29   20   40 1
    30   21   22 1
    31   21   41 1
    32   22   23 ar
    33   22   32 ar
    34   23   24 ar
    35   23   42 1
    36   24   25 ar
    37   24   46 1
    38   25   26 ar
    39   25   32 ar
    40   26   27 2
    41   26   28 ar
    42   28   29 ar
    43   28   43 1
    44   29   30 1
    45   29   31 ar
    46   30   44 1
    47   30   45 1
    48   31   32 ar
@<TRIPOS>SUBSTRUCTURE
     1 GTP         1 GROUP 0 A     ****
@<TRIPOS>MOLECULE
[[[5-(2-amino-6-oxo-7,8-dihydro-1~{H}-purin-8-ylium-9-yl)-3,4-dihydroxy-tetrahydrofuran-2-yl]methoxy-oxido-phosphoryl]oxy-hydroxy-phosphoryl] phosphate
   46    48     1     0     0
SMALL
USER_CHARGES

@<TRIPOS>ATOM
      1 PG         -1.4008   -0.6003   -7.0162 P.3       1 GTP        -1.1921
      2 O1G        -2.4496    0.4539   -6.6770 O.co2     1 GTP         0.3195
      3 O2G        -1.7952   -2.0225   -6.6313 O.co2     1 GTP         0.3195
      4 O3G        -0.8103   -0.4720   -8.4165 O.co2     1 GTP         0.3195
      5 O3B        -0.1413   -0.2550   -6.0103 O.3       1 GTP         0.4672
      6 PB          0.7579    1.0825   -5.8734 P.3       1 GTP        -0.9715
      7 O1B         1.5027    1.4720   -7.1161 O.2       1 GTP         0.2707
      8 O2B        -0.3026    2.1808   -5.3411 O.3       1 GTP         0.0326
      9 O3A         1.6767    0.7864   -4.5782 O.3       1 GTP         0.4672
     10 PA          3.0383   -0.0994   -4.4226 P.3       1 GTP        -1.1062
     11 O1A         2.6929   -1.5534   -4.6599 O.co2     1 GTP         0.3195
     12 O2A         4.1447    0.5793   -5.2003 O.co2     1 GTP         0.3195
     13 O5'         3.2903    0.1346   -2.8241 O.3       1 GTP         0.1618
     14 C5'         2.2816   -0.2918   -1.9206 C.3       1 GTP         0.1504
     15 C4'         2.7248    0.0226   -0.4980 C.3       1 GTP         0.1111
     16 O4'         2.4697    1.4219   -0.2462 O.3       1 GTP        -0.1436
     17 C3'         1.9404   -0.7419    0.5596 C.3       1 GTP         0.1111
     18 O3'         2.7418   -0.8086    1.7389 O.3       1 GTP        -0.2728
     19 C2'         0.7477    0.1630    0.7858 C.3       1 GTP         0.1111
     20 O2'         0.1373   -0.0577    2.0407 O.3       1 GTP        -0.2728
     21 C1'         1.3733    1.5427    0.6747 C.3       1 GTP         0.2693
     22 N9          0.4520    2.5240    0.1767 N.pl3     1 GTP        -0.3222
     23 C8          0.5671    3.2221   -0.9473 C.ar      1 GTP         0.1640
     24 N7         -0.4560    4.0508   -1.1290 N.pl3     1 GTP        -0.3688
     25 C5         -1.2671    3.8585   -0.0441 C.ar      1 GTP         0.0648
     26 C6         -2.5318    4.5014    0.2817 C.ar      1 GTP         0.3597
     27 O6         -3.0527    5.3493   -0.4293 O.2       1 GTP        -0.2755
     28 N1         -3.0357    4.0149    1.4868 N.pl3     1 GTP        -0.1604
     29 C2         -2.4069    3.0373    2.2768 C.ar      1 GTP         0.4468
     30 N2         -3.0679    2.6964    3.4278 N.pl3     1 GTP        -0.5618
     31 N3         -1.2653    2.4872    1.9379 N.2       1 GTP        -0.4283
     32 C4         -0.7342    2.9334    0.7643 C.ar      1 GTP         0.2226
     33 HOB2        0.0223    3.0731   -5.0953 H         1 GTP         0.2010
     34 H5'         1.3514    0.2330   -2.1577 H         1 GTP        -0.0393
     35 H5''        2.1280   -1.3678   -2.0460 H         1 GTP        -0.0393
     36 H4'         3.8044   -0.1397   -0.4040 H         1 GTP        -0.0393
     37 H3'         1.6764   -1.7639    0.2728 H         1 GTP        -0.0393
     38 HO3'        3.5554   -1.2733    1.4914 H         1 GTP         0.2010
     39 H2'        -0.0011    0.0027    0.0003 H         1 GTP        -0.0393
     40 HO2'       -0.1563   -0.9855    2.0596 H         1 GTP         0.2010
     41 H1'         1.7826    1.9024    1.6451 H         1 GTP        -0.0393
     42 H8          1.3888    3.1325   -1.6361 H         1 GTP         0.0000
     43 HN1        -3.9188    4.3932    1.8170 H         1 GTP         0.0865
     44 HN21       -2.6609    2.0087    4.0186 H         1 GTP         0.2048
     45 HN22       -3.9293    3.1496    3.6283 H         1 GTP         0.2048
     46 H46        -0.5938    4.6820   -1.9060 H         1 GTP         0.2048
@<TRIPOS>BOND
     1    1    2 2
     2    1    3 1
     3    1    4 1
     4    1    5 1
     5    5    6 1
     6    6    7 2
     7    6    8 1
     8    6    9 1
     9    8   33 1
    10    9   10 1
    11   10   11 2
    12   10   12 1
    13   10   13 1
    14   13   14 1
    15   14   15 1
    16   14   34 1
    17   14   35 1
    18   15   16 1
    19   15   17 1
    20   15   36 1
    21   16   21 1
    22   17   18 1
    23   17   19 1
    24   17   37 1
    25   18   38 1
    26   19   20 1
    27   19   21 1
    28   19   39 1
    29   20   40 1
    30   21   22 1
    31   21   41 1
    32   22   23 ar
    33   22   32 ar
    34   23   24 ar
    35   23   42 1
    36   24   25 ar
    37   24   46 1
    38   25   26 ar
    39   25   32 ar
    40   26   27 2
    41   26   28 ar
    42   28   29 ar
    43   28   43 1
    44   29   30 1
    45   29   31 ar
    46   30   44 1
    47   30   45 1
    48   31   32 ar
@<TRIPOS>SUBSTRUCTURE
     1 GTP         1 GROUP 0 A     ****
@<TRIPOS>MOLECULE
[[[5-(2-amino-6-oxo-7,8-dihydro-1~{H}-purin-8-ylium-9-yl)-3,4-dihydroxy-tetrahydrofuran-2-yl]methoxy-oxido-phosphoryl]oxy-hydroxy-phosphoryl] phosphate
   46    48     1     0     0
SMALL
USER_CHARGES

@<TRIPOS>ATOM
      1 PG          4.6844   -1.9839   -8.3508 P.3       1 GTP        -1.1921
      2 O1G         5.4025   -3.2920   -8.0350 O.co2     1 GTP         0.3195
      3 O2G         5.6088   -0.8513   -8.7854 O.co2     1 GTP         0.3195
      4 O3G         3.4397   -2.1433   -9.2177 O.co2     1 GTP         0.3195
      5 O3B         4.1030   -1.4803   -6.8929 O.3       1 GTP         0.4672
      6 PB          3.0715   -2.1922   -5.8703 P.3       1 GTP        -0.9715
      7 O1B         1.7112   -2.4706   -6.4383 O.2       1 GTP         0.2707
      8 O2B         3.8876   -3.4998   -5.3820 O.3       1 GTP         0.0326
      9 O3A         3.0982   -1.2256   -4.5763 O.3       1 GTP         0.4672
     10 PA          2.7180    0.3539   -4.4230 P.3       1 GTP        -1.1062
     11 O1A         3.7292    1.1672   -5.2015 O.co2     1 GTP         0.3195
     12 O2A         1.2326    0.5160   -4.6616 O.co2     1 GTP         0.3195
     13 O5'         3.0213    0.5153   -2.8245 O.3       1 GTP         0.1618
     14 C5'         2.2816   -0.2918   -1.9206 C.3       1 GTP         0.1504
     15 C4'         2.7248    0.0226   -0.4980 C.3       1 GTP         0.1111
     16 O4'         2.4697    1.4219   -0.2462 O.3       1 GTP        -0.1436
     17 C3'         1.9404   -0.7419    0.5596 C.3       1 GTP         0.1111
     18 O3'         2.7418   -0.8086    1.7389 O.3       1 GTP        -0.2728
     19 C2'         0.7477    0.1630    0.7858 C.3       1 GTP         0.1111
     20 O2'         0.1373   -0.0577    2.0407 O.3       1 GTP        -0.2728
     21 C1'         1.3733    1.5427    0.6747 C.3       1 GTP         0.2693
     22 N9          0.4520    2.5240    0.1767 N.pl3     1 GTP        -0.3222
     23 C8         -0.6818    2.9109    0.7501 C.ar      1 GTP         0.1640
     24 N7         -1.3103    3.8415    0.0391 N.pl3     1 GTP        -0.3688
     25 C5         -0.5155    4.0512   -1.0547 C.ar      1 GTP         0.0648
     26 C6         -0.7125    4.9651   -2.1705 C.ar      1 GTP         0.3597
     27 O6         -1.6819    5.7047   -2.2651 O.2       1 GTP        -0.2755
     28 N1          0.3401    4.8672   -3.0790 N.pl3     1 GTP        -0.1604
     29 C2          1.4396    4.0039   -2.9348 C.ar      1 GTP         0.4468
     30 N2          2.3679    4.0602   -3.9414 N.pl3     1 GTP        -0.5618
     31 N3          1.5708    3.1983   -1.9080 N.2       1 GTP        -0.4283
     32 C4          0.5630    3.2599   -0.9921 C.ar      1 GTP         0.2226
     33 HOB2        4.0954   -4.2004   -6.0363 H         1 GTP         0.2010
     34 H5'         1.2163   -0.0770   -2.0471 H         1 GTP        -0.0393
     35 H5''        2.4655   -1.3443   -2.1563 H         1 GTP        -0.0393
     36 H4'         3.8044   -0.1397   -0.4040 H         1 GTP        -0.0393
     37 H3'         1.6764   -1.7639    0.2728 H         1 GTP        -0.0393
     38 HO3'        2.2232   -1.2979    2.3953 H         1 GTP         0.2010
     39 H2'        -0.0011    0.0027    0.0003 H         1 GTP        -0.0393
     40 HO2'       -0.1563   -0.9855    2.0596 H         1 GTP         0.2010
     41 H1'         1.7826    1.9024    1.6451 H         1 GTP        -0.0393
     42 H8         -1.0545    2.5222    1.6816 H         1 GTP         0.0000
     43 HN1         0.3104    5.4612   -3.9026 H         1 GTP         0.0865
     44 HN21        3.1632    3.4672   -3.8824 H         1 GTP         0.2048
     45 HN22        2.2108    4.6918   -4.6924 H         1 GTP         0.2048
     46 H46        -2.1863    4.2902    0.2681 H         1 GTP         0.2048
@<TRIPOS>BOND
     1    1    2 2
     2    1    3 1
     3    1    4 1
     4    1    5 1
     5    5    6 1
     6    6    7 2
     7    6    8 1
     8    6    9 1
     9    8   33 1
    10    9   10 1
    11   10   11 2
    12   10   12 1
    13   10   13 1
    14   13   14 1
    15   14   15 1
    16   14   34 1
    17   14   35 1
    18   15   16 1
    19   15   17 1
    20   15   36 1
    21   16   21 1
    22   17   18 1
    23   17   19 1
    24   17   37 1
    25   18   38 1
    26   19   20 1
    27   19   21 1
    28   19   39 1
    29   20   40 1
    30   21   22 1
    31   21   41 1
    32   22   23 ar
    33   22   32 ar
    34   23   24 ar
    35   23   42 1
    36   24   25 ar
    37   24   46 1
    38   25   26 ar
    39   25   32 ar
    40   26   27 2
    41   26   28 ar
    42   28   29 ar
    43   28   43 1
    44   29   30 1
    45   29   31 ar
    46   30   44 1
    47   30   45 1
    48   31   32 ar
@<TRIPOS>SUBSTRUCTURE
     1 GTP         1 GROUP 0 A     ****
@<TRIPOS>MOLECULE
[[[5-(2-amino-6-oxo-7,8-dihydro-1~{H}-purin-8-ylium-9-yl)-3,4-dihydroxy-tetrahydrofuran-2-yl]methoxy-oxido-phosphoryl]oxy-hydroxy-phosphoryl] phosphate
   46    48     1     0     0
SMALL
USER_CHARGES

@<TRIPOS>ATOM
      1 PG          2.2473   -6.4926    5.9007 P.3       1 GTP        -1.1921
      2 O1G         2.4388   -7.9991    6.0415 O.co2     1 GTP         0.3195
      3 O2G         2.9911   -5.6665    6.9450 O.co2     1 GTP         0.3195
      4 O3G         2.3881   -5.9714    4.4742 O.co2     1 GTP         0.3195
      5 O3B         0.6582   -6.2515    6.2667 O.3       1 GTP         0.4672
      6 PB         -0.6807   -6.8280    5.5658 P.3       1 GTP        -0.9715
      7 O1B        -0.7968   -8.3237    5.5619 O.2       1 GTP         0.2707
      8 O2B        -1.8640   -6.0538    6.3498 O.3       1 GTP         0.0326
      9 O3A        -0.6728   -6.1292    4.1093 O.3       1 GTP         0.4672
     10 PA         -1.7238   -6.2523    2.8671 P.3       1 GTP        -1.1062
     11 O1A        -1.6594   -7.6631    2.3238 O.co2     1 GTP         0.3195
     12 O2A        -3.0395   -5.6347    3.2878 O.co2     1 GTP         0.3195
     13 O5'        -0.9724   -5.2440    1.8220 O.3       1 GTP         0.1618
     14 C5'        -0.7840   -3.8935    2.2172 C.3       1 GTP         0.1504
     15 C4'        -0.0724   -3.1466    1.1027 C.3       1 GTP         0.1111
     16 O4'        -0.8674   -3.1929   -0.0945 O.3       1 GTP        -0.1436
     17 C3'         0.1338   -1.6715    1.4027 C.3       1 GTP         0.1111
     18 O3'         1.2893   -1.4445    2.1808 O.3       1 GTP        -0.2728
     19 C2'         0.2158   -1.0724    0.0128 C.3       1 GTP         0.1111
     20 O2'         1.5141   -1.2448   -0.5513 O.3       1 GTP        -0.2728
     21 C1'        -0.7897   -1.9176   -0.7583 C.3       1 GTP         0.2693
     22 N9         -2.1040   -1.3333   -0.7704 N.pl3     1 GTP        -0.3222
     23 C8         -3.0597   -1.5109    0.1345 C.ar      1 GTP         0.1640
     24 N7         -4.1618   -0.8291   -0.1607 N.pl3     1 GTP        -0.3688
     25 C5         -3.8764   -0.1805   -1.3310 C.ar      1 GTP         0.0648
     26 C6         -4.7187    0.7111   -2.1152 C.ar      1 GTP         0.3597
     27 O6         -5.8617    1.0043   -1.7939 O.2       1 GTP        -0.2755
     28 N1         -4.0405    1.1608   -3.2468 N.pl3     1 GTP        -0.1604
     29 C2         -2.7239    0.8013   -3.5822 C.ar      1 GTP         0.4468
     30 N2         -2.2399    1.3534   -4.7394 N.pl3     1 GTP        -0.5618
     31 N3         -2.0053   -0.0071   -2.8402 N.2       1 GTP        -0.4283
     32 C4         -2.6290   -0.4727   -1.7210 C.ar      1 GTP         0.2226
     33 HOB2       -2.7894   -6.1711    6.0462 H         1 GTP         0.2010
     34 H5'        -1.7618   -3.4448    2.4164 H         1 GTP        -0.0393
     35 H5''       -0.1874   -3.8744    3.1341 H         1 GTP        -0.0393
     36 H4'         0.8874   -3.6466    0.8805 H         1 GTP        -0.0393
     37 H3'        -0.7376   -1.2333    1.9867 H         1 GTP        -0.0393
     38 HO3'        1.3408   -0.4870    2.3219 H         1 GTP         0.2010
     39 H2'        -0.0384   -0.0310    0.0096 H         1 GTP        -0.0393
     40 HO2'        2.1463   -0.7958    0.0370 H         1 GTP         0.2010
     41 H1'        -0.4769   -2.1002   -1.8093 H         1 GTP        -0.0393
     42 H8         -2.9610   -2.1316    1.0079 H         1 GTP         0.0000
     43 HN1        -4.5320    1.7923   -3.8726 H         1 GTP         0.0865
     44 HN21       -1.3128    1.1277   -5.0171 H         1 GTP         0.2048
     45 HN22       -2.8342    1.9586   -5.2572 H         1 GTP         0.2048
     46 H46        -5.0195   -0.8034    0.3729 H         1 GTP         0.2048
@<TRIPOS>BOND
     1    1    2 2
     2    1    3 1
     3    1    4 1
     4    1    5 1
     5    5    6 1
     6    6    7 2
     7    6    8 1
     8    6    9 1
     9    8   33 1
    10    9   10 1
    11   10   11 2
    12   10   12 1
    13   10   13 1
    14   13   14 1
    15   14   15 1
    16   14   34 1
    17   14   35 1
    18   15   16 1
    19   15   17 1
    20   15   36 1
    21   16   21 1
    22   17   18 1
    23   17   19 1
    24   17   37 1
    25   18   38 1
    26   19   20 1
    27   19   21 1
    28   19   39 1
    29   20   40 1
    30   21   22 1
    31   21   41 1
    32   22   23 ar
    33   22   32 ar
    34   23   24 ar
    35   23   42 1
    36   24   25 ar
    37   24   46 1
    38   25   26 ar
    39   25   32 ar
    40   26   27 2
    41   26   28 ar
    42   28   29 ar
    43   28   43 1
    44   29   30 1
    45   29   31 ar
    46   30   44 1
    47   30   45 1
    48   31   32 ar
@<TRIPOS>SUBSTRUCTURE
     1 GTP         1 GROUP 0 A     ****
@<TRIPOS>MOLECULE
[[[5-(2-amino-6-oxo-7,8-dihydro-1~{H}-purin-8-ylium-9-yl)-3,4-dihydroxy-tetrahydrofuran-2-yl]methoxy-oxido-phosphoryl]oxy-hydroxy-phosphoryl] phosphate
   46    48     1     0     0
SMALL
USER_CHARGES

@<TRIPOS>ATOM
      1 PG         -2.9356   -4.0282   -1.2427 P.3       1 GTP        -1.1921
      2 O1G        -3.7929   -3.3076   -2.2781 O.co2     1 GTP         0.3195
      3 O2G        -3.1875   -3.5868    0.1953 O.co2     1 GTP         0.3195
      4 O3G        -2.8621   -5.5401   -1.4296 O.co2     1 GTP         0.3195
      5 O3B        -1.4034   -3.5050   -1.5525 O.3       1 GTP         0.4672
      6 PB         -0.4988   -3.6340   -2.8872 P.3       1 GTP        -0.9715
      7 O1B        -0.2236   -5.0409   -3.3292 O.2       1 GTP         0.2707
      8 O2B        -1.3001   -2.7266   -3.9589 O.3       1 GTP         0.0326
      9 O3A         0.8069   -2.7472   -2.5432 O.3       1 GTP         0.4672
     10 PA          2.1381   -2.4286   -3.4316 P.3       1 GTP        -1.1062
     11 O1A         2.9118   -3.7163   -3.6129 O.co2     1 GTP         0.3195
     12 O2A         1.7319   -1.5855   -4.6206 O.co2     1 GTP         0.3195
     13 O5'         2.9216   -1.4836   -2.3516 O.3       1 GTP         0.1618
     14 C5'         2.2816   -0.2918   -1.9206 C.3       1 GTP         0.1504
     15 C4'         2.7248    0.0226   -0.4980 C.3       1 GTP         0.1111
     16 O4'         2.4697    1.4219   -0.2462 O.3       1 GTP        -0.1436
     17 C3'         1.9404   -0.7419    0.5596 C.3       1 GTP         0.1111
     18 O3'         2.7418   -0.8086    1.7389 O.3       1 GTP        -0.2728
     19 C2'         0.7477    0.1630    0.7858 C.3       1 GTP         0.1111
     20 O2'         0.1373   -0.0577    2.0407 O.3       1 GTP        -0.2728
     21 C1'         1.3733    1.5427    0.6747 C.3       1 GTP         0.2693
     22 N9          0.4520    2.5240    0.1767 N.pl3     1 GTP        -0.3222
     23 C8         -0.2009    2.4849   -0.9792 C.ar      1 GTP         0.1640
     24 N7         -0.9840    3.5454   -1.1481 N.pl3     1 GTP        -0.3688
     25 C5         -0.8090    4.3005   -0.0206 C.ar      1 GTP         0.0648
     26 C6         -1.4206    5.5724    0.3362 C.ar      1 GTP         0.3597
     27 O6         -2.2199    6.1544   -0.3836 O.2       1 GTP        -0.2755
     28 N1         -0.9680    6.0043    1.5817 N.pl3     1 GTP        -0.1604
     29 C2         -0.0474    5.3055    2.3814 C.ar      1 GTP         0.4468
     30 N2          0.2680    5.9024    3.5740 N.pl3     1 GTP        -0.5618
     31 N3          0.4755    4.1601    2.0138 N.2       1 GTP        -0.4283
     32 C4          0.0611    3.6981    0.8001 C.ar      1 GTP         0.2226
     33 HOB2       -0.9015   -2.5731   -4.8420 H         1 GTP         0.2010
     34 H5'         2.5589    0.5217   -2.5976 H         1 GTP        -0.0393
     35 H5''        1.1982   -0.4388   -1.9617 H         1 GTP        -0.0393
     36 H4'         3.8044   -0.1397   -0.4040 H         1 GTP        -0.0393
     37 H3'         1.6764   -1.7639    0.2728 H         1 GTP        -0.0393
     38 HO3'        2.2232   -1.2979    2.3953 H         1 GTP         0.2010
     39 H2'        -0.0011    0.0027    0.0003 H         1 GTP        -0.0393
     40 HO2'       -0.6141    0.5574    2.1082 H         1 GTP         0.2010
     41 H1'         1.7826    1.9024    1.6451 H         1 GTP        -0.0393
     42 H8         -0.1126    1.6906   -1.6997 H         1 GTP         0.0000
     43 HN1        -1.3285    6.8855    1.9361 H         1 GTP         0.0865
     44 HN21        0.9153    5.4446    4.1732 H         1 GTP         0.2048
     45 HN22       -0.1624    6.7706    3.7948 H         1 GTP         0.2048
     46 H46        -1.5768    3.7405   -1.9429 H         1 GTP         0.2048
@<TRIPOS>BOND
     1    1    2 2
     2    1    3 1
     3    1    4 1
     4    1    5 1
     5    5    6 1
     6    6    7 2
     7    6    8 1
     8    6    9 1
     9    8   33 1
    10    9   10 1
    11   10   11 2
    12   10   12 1
    13   10   13 1
    14   13   14 1
    15   14   15 1
    16   14   34 1
    17   14   35 1
    18   15   16 1
    19   15   17 1
    20   15   36 1
    21   16   21 1
    22   17   18 1
    23   17   19 1
    24   17   37 1
    25   18   38 1
    26   19   20 1
    27   19   21 1
    28   19   39 1
    29   20   40 1
    30   21   22 1
    31   21   41 1
    32   22   23 ar
    33   22   32 ar
    34   23   24 ar
    35   23   42 1
    36   24   25 ar
    37   24   46 1
    38   25   26 ar
    39   25   32 ar
    40   26   27 2
    41   26   28 ar
    42   28   29 ar
    43   28   43 1
    44   29   30 1
    45   29   31 ar
    46   30   44 1
    47   30   45 1
    48   31   32 ar
@<TRIPOS>SUBSTRUCTURE
     1 GTP         1 GROUP 0 A     ****
@<TRIPOS>MOLECULE
[[[5-(2-amino-6-oxo-7,8-dihydro-1~{H}-purin-8-ylium-9-yl)-3,4-dihydroxy-tetrahydrofuran-2-yl]methoxy-oxido-phosphoryl]oxy-hydroxy-phosphoryl] phosphate
   46    48     1     0     0
SMALL
USER_CHARGES

@<TRIPOS>ATOM
      1 PG          0.8161   -3.7823   -7.1463 P.3       1 GTP        -1.1921
      2 O1G        -0.6884   -3.5368   -7.0948 O.co2     1 GTP         0.3195
      3 O2G         1.2578   -5.0981   -6.5139 O.co2     1 GTP         0.3195
      4 O3G         1.4542   -3.4940   -8.5012 O.co2     1 GTP         0.3195
      5 O3B         1.4472   -2.6335   -6.1467 O.3       1 GTP         0.4672
      6 PB          1.3669   -1.0195   -6.2182 P.3       1 GTP        -0.9715
      7 O1B         1.9498   -0.4133   -7.4604 O.2       1 GTP         0.2707
      8 O2B        -0.2057   -0.7230   -5.9874 O.3       1 GTP         0.0326
      9 O3A         2.0474   -0.5479   -4.8311 O.3       1 GTP         0.4672
     10 PA          2.3065    0.9470   -4.2302 P.3       1 GTP        -1.1062
     11 O1A         3.3234    1.6453   -5.1065 O.co2     1 GTP         0.3195
     12 O2A         0.9669    1.5820   -3.9271 O.co2     1 GTP         0.3195
     13 O5'         3.0213    0.5153   -2.8245 O.3       1 GTP         0.1618
     14 C5'         2.2816   -0.2918   -1.9206 C.3       1 GTP         0.1504
     15 C4'         2.7248    0.0226   -0.4980 C.3       1 GTP         0.1111
     16 O4'         2.4697    1.4219   -0.2462 O.3       1 GTP        -0.1436
     17 C3'         1.9404   -0.7419    0.5596 C.3       1 GTP         0.1111
     18 O3'         2.7418   -0.8086    1.7389 O.3       1 GTP        -0.2728
     19 C2'         0.7477    0.1630    0.7858 C.3       1 GTP         0.1111
     20 O2'         0.1373   -0.0577    2.0407 O.3       1 GTP        -0.2728
     21 C1'         1.3733    1.5427    0.6747 C.3       1 GTP         0.2693
     22 N9          0.4520    2.5240    0.1767 N.pl3     1 GTP        -0.3222
     23 C8         -0.2009    2.4849   -0.9792 C.ar      1 GTP         0.1640
     24 N7         -0.9840    3.5454   -1.1481 N.pl3     1 GTP        -0.3688
     25 C5         -0.8090    4.3005   -0.0206 C.ar      1 GTP         0.0648
     26 C6         -1.4206    5.5724    0.3362 C.ar      1 GTP         0.3597
     27 O6         -2.2199    6.1544   -0.3836 O.2       1 GTP        -0.2755
     28 N1         -0.9680    6.0043    1.5817 N.pl3     1 GTP        -0.1604
     29 C2         -0.0474    5.3055    2.3814 C.ar      1 GTP         0.4468
     30 N2          0.2680    5.9024    3.5740 N.pl3     1 GTP        -0.5618
     31 N3          0.4755    4.1601    2.0138 N.2       1 GTP        -0.4283
     32 C4          0.0611    3.6981    0.8001 C.ar      1 GTP         0.2226
     33 HOB2       -0.8489   -1.0233   -6.6644 H         1 GTP         0.2010
     34 H5'         1.2163   -0.0770   -2.0471 H         1 GTP        -0.0393
     35 H5''        2.4655   -1.3443   -2.1563 H         1 GTP        -0.0393
     36 H4'         3.8044   -0.1397   -0.4040 H         1 GTP        -0.0393
     37 H3'         1.6764   -1.7639    0.2728 H         1 GTP        -0.0393
     38 HO3'        2.2232   -1.2979    2.3953 H         1 GTP         0.2010
     39 H2'        -0.0011    0.0027    0.0003 H         1 GTP        -0.0393
     40 HO2'       -0.1563   -0.9855    2.0596 H         1 GTP         0.2010
     41 H1'         1.7826    1.9024    1.6451 H         1 GTP        -0.0393
     42 H8         -0.1126    1.6906   -1.6997 H         1 GTP         0.0000
     43 HN1        -1.3285    6.8855    1.9361 H         1 GTP         0.0865
     44 HN21        0.9153    5.4446    4.1732 H         1 GTP         0.2048
     45 HN22       -0.1624    6.7706    3.7948 H         1 GTP         0.2048
     46 H46        -1.5768    3.7405   -1.9429 H         1 GTP         0.2048
@<TRIPOS>BOND
     1    1    2 2
     2    1    3 1
     3    1    4 1
     4    1    5 1
     5    5    6 1
     6    6    7 2
     7    6    8 1
     8    6    9 1
     9    8   33 1
    10    9   10 1
    11   10   11 2
    12   10   12 1
    13   10   13 1
    14   13   14 1
    15   14   15 1
    16   14   34 1
    17   14   35 1
    18   15   16 1
    19   15   17 1
    20   15   36 1
    21   16   21 1
    22   17   18 1
    23   17   19 1
    24   17   37 1
    25   18   38 1
    26   19   20 1
    27   19   21 1
    28   19   39 1
    29   20   40 1
    30   21   22 1
    31   21   41 1
    32   22   23 ar
    33   22   32 ar
    34   23   24 ar
    35   23   42 1
    36   24   25 ar
    37   24   46 1
    38   25   26 ar
    39   25   32 ar
    40   26   27 2
    41   26   28 ar
    42   28   29 ar
    43   28   43 1
    44   29   30 1
    45   29   31 ar
    46   30   44 1
    47   30   45 1
    48   31   32 ar
@<TRIPOS>SUBSTRUCTURE
     1 GTP         1 GROUP 0 A     ****
@<TRIPOS>MOLECULE
[[[5-(2-amino-6-oxo-7,8-dihydro-1~{H}-purin-8-ylium-9-yl)-3,4-dihydroxy-tetrahydrofuran-2-yl]methoxy-oxido-phosphoryl]oxy-hydroxy-phosphoryl] phosphate
   46    48     1     0     0
SMALL
USER_CHARGES

@<TRIPOS>ATOM
      1 PG          4.2229   -4.6940   -6.1369 P.3       1 GTP        -1.1921
      2 O1G         2.8943   -5.4284   -6.2844 O.co2     1 GTP         0.3195
      3 O2G         5.1793   -5.3258   -5.1308 O.co2     1 GTP         0.3195
      4 O3G         4.8747   -4.3018   -7.4588 O.co2     1 GTP         0.3195
      5 O3B         3.8144   -3.2559   -5.4423 O.3       1 GTP         0.4672
      6 PB          2.8348   -2.0785   -5.9625 P.3       1 GTP        -0.9715
      7 O1B         3.2329   -1.4578   -7.2690 O.2       1 GTP         0.2707
      8 O2B         1.3811   -2.7864   -5.9583 O.3       1 GTP         0.0326
      9 O3A         2.7650   -1.0656   -4.7061 O.3       1 GTP         0.4672
     10 PA          3.9458   -0.2356   -3.9447 P.3       1 GTP        -1.1062
     11 O1A         4.8553   -1.2258   -3.2504 O.co2     1 GTP         0.3195
     12 O2A         4.4992    0.7987   -4.9005 O.co2     1 GTP         0.3195
     13 O5'         3.0213    0.5153   -2.8245 O.3       1 GTP         0.1618
     14 C5'         2.2816   -0.2918   -1.9206 C.3       1 GTP         0.1504
     15 C4'         2.7248    0.0226   -0.4980 C.3       1 GTP         0.1111
     16 O4'         2.4697    1.4219   -0.2462 O.3       1 GTP        -0.1436
     17 C3'         1.9404   -0.7419    0.5596 C.3       1 GTP         0.1111
     18 O3'         2.7418   -0.8086    1.7389 O.3       1 GTP        -0.2728
     19 C2'         0.7477    0.1630    0.7858 C.3       1 GTP         0.1111
     20 O2'         0.1373   -0.0577    2.0407 O.3       1 GTP        -0.2728
     21 C1'         1.3733    1.5427    0.6747 C.3       1 GTP         0.2693
     22 N9          0.4520    2.5240    0.1767 N.pl3     1 GTP        -0.3222
     23 C8         -0.2009    2.4849   -0.9792 C.ar      1 GTP         0.1640
     24 N7         -0.9840    3.5454   -1.1481 N.pl3     1 GTP        -0.3688
     25 C5         -0.8090    4.3005   -0.0206 C.ar      1 GTP         0.0648
     26 C6         -1.4206    5.5724    0.3362 C.ar      1 GTP         0.3597
     27 O6         -2.2199    6.1544   -0.3836 O.2       1 GTP        -0.2755
     28 N1         -0.9680    6.0043    1.5817 N.pl3     1 GTP        -0.1604
     29 C2         -0.0474    5.3055    2.3814 C.ar      1 GTP         0.4468
     30 N2          0.2680    5.9024    3.5740 N.pl3     1 GTP        -0.5618
     31 N3          0.4755    4.1601    2.0138 N.2       1 GTP        -0.4283
     32 C4          0.0611    3.6981    0.8001 C.ar      1 GTP         0.2226
     33 HOB2        1.2129   -3.5272   -6.5789 H         1 GTP         0.2010
     34 H5'         1.2163   -0.0770   -2.0471 H         1 GTP        -0.0393
     35 H5''        2.4655   -1.3443   -2.1563 H         1 GTP        -0.0393
     36 H4'         3.8044   -0.1397   -0.4040 H         1 GTP        -0.0393
     37 H3'         1.6764   -1.7639    0.2728 H         1 GTP        -0.0393
     38 HO3'        2.2232   -1.2979    2.3953 H         1 GTP         0.2010
     39 H2'        -0.0011    0.0027    0.0003 H         1 GTP        -0.0393
     40 HO2'       -0.6141    0.5574    2.1082 H         1 GTP         0.2010
     41 H1'         1.7826    1.9024    1.6451 H         1 GTP        -0.0393
     42 H8         -0.1126    1.6906   -1.6997 H         1 GTP         0.0000
     43 HN1        -1.3285    6.8855    1.9361 H         1 GTP         0.0865
     44 HN21        0.9153    5.4446    4.1732 H         1 GTP         0.2048
     45 HN22       -0.1624    6.7706    3.7948 H         1 GTP         0.2048
     46 H46        -1.5768    3.7405   -1.9429 H         1 GTP         0.2048
@<TRIPOS>BOND
     1    1    2 2
     2    1    3 1
     3    1    4 1
     4    1    5 1
     5    5    6 1
     6    6    7 2
     7    6    8 1
     8    6    9 1
     9    8   33 1
    10    9   10 1
    11   10   11 2
    12   10   12 1
    13   10   13 1
    14   13   14 1
    15   14   15 1
    16   14   34 1
    17   14   35 1
    18   15   16 1
    19   15   17 1
    20   15   36 1
    21   16   21 1
    22   17   18 1
    23   17   19 1
    24   17   37 1
    25   18   38 1
    26   19   20 1
    27   19   21 1
    28   19   39 1
    29   20   40 1
    30   21   22 1
    31   21   41 1
    32   22   23 ar
    33   22   32 ar
    34   23   24 ar
    35   23   42 1
    36   24   25 ar
    37   24   46 1
    38   25   26 ar
    39   25   32 ar
    40   26   27 2
    41   26   28 ar
    42   28   29 ar
    43   28   43 1
    44   29   30 1
    45   29   31 ar
    46   30   44 1
    47   30   45 1
    48   31   32 ar
@<TRIPOS>SUBSTRUCTURE
     1 GTP         1 GROUP 0 A     ****
@<TRIPOS>MOLECULE
[[[5-(2-amino-6-oxo-7,8-dihydro-1~{H}-purin-8-ylium-9-yl)-3,4-dihydroxy-tetrahydrofuran-2-yl]methoxy-oxido-phosphoryl]oxy-hydroxy-phosphoryl] phosphate
   46    48     1     0     0
SMALL
USER_CHARGES

@<TRIPOS>ATOM
      1 PG         -1.6278    2.8340   -6.0700 P.3       1 GTP        -1.1921
      2 O1G        -0.8978    3.7805   -7.0174 O.co2     1 GTP         0.3195
      3 O2G        -2.3825    3.5338   -4.9444 O.co2     1 GTP         0.3195
      4 O3G        -2.4228    1.7354   -6.7679 O.co2     1 GTP         0.3195
      5 O3B        -0.4179    2.0290   -5.2919 O.3       1 GTP         0.4672
      6 PB          0.7579    1.0825   -5.8734 P.3       1 GTP        -0.9715
      7 O1B         0.2818   -0.1307   -6.6163 O.2       1 GTP         0.2707
      8 O2B         1.6531    2.1086   -6.7451 O.3       1 GTP         0.0326
      9 O3A         1.6767    0.7864   -4.5782 O.3       1 GTP         0.4672
     10 PA          3.0383   -0.0994   -4.4226 P.3       1 GTP        -1.1062
     11 O1A         2.6929   -1.5534   -4.6599 O.co2     1 GTP         0.3195
     12 O2A         4.1447    0.5793   -5.2003 O.co2     1 GTP         0.3195
     13 O5'         3.2903    0.1346   -2.8241 O.3       1 GTP         0.1618
     14 C5'         2.2816   -0.2918   -1.9206 C.3       1 GTP         0.1504
     15 C4'         2.7248    0.0226   -0.4980 C.3       1 GTP         0.1111
     16 O4'         2.4697    1.4219   -0.2462 O.3       1 GTP        -0.1436
     17 C3'         1.9404   -0.7419    0.5596 C.3       1 GTP         0.1111
     18 O3'         2.7418   -0.8086    1.7389 O.3       1 GTP        -0.2728
     19 C2'         0.7477    0.1630    0.7858 C.3       1 GTP         0.1111
     20 O2'         0.1373   -0.0577    2.0407 O.3       1 GTP        -0.2728
     21 C1'         1.3733    1.5427    0.6747 C.3       1 GTP         0.2693
     22 N9          0.4520    2.5240    0.1767 N.pl3     1 GTP        -0.3222
     23 C8         -0.8613    2.5511    0.3730 C.ar      1 GTP         0.1640
     24 N7         -1.4346    3.5939   -0.2188 N.pl3     1 GTP        -0.3688
     25 C5         -0.4099    4.2657   -0.8276 C.ar      1 GTP         0.0648
     26 C6         -0.4554    5.4854   -1.6209 C.ar      1 GTP         0.3597
     27 O6         -1.4907    6.0944   -1.8508 O.2       1 GTP        -0.2755
     28 N1          0.8205    5.8357   -2.0593 N.pl3     1 GTP        -0.1604
     29 C2          1.9890    5.1091   -1.7730 C.ar      1 GTP         0.4468
     30 N2          3.1452    5.6230   -2.2997 N.pl3     1 GTP        -0.5618
     31 N3          1.9765    4.0139   -1.0514 N.2       1 GTP        -0.4283
     32 C4          0.7480    3.6324   -0.6003 C.ar      1 GTP         0.2226
     33 HOB2        2.4914    1.7878   -7.1408 H         1 GTP         0.2010
     34 H5'         1.3514    0.2330   -2.1577 H         1 GTP        -0.0393
     35 H5''        2.1280   -1.3678   -2.0460 H         1 GTP        -0.0393
     36 H4'         3.8044   -0.1397   -0.4040 H         1 GTP        -0.0393
     37 H3'         1.6764   -1.7639    0.2728 H         1 GTP        -0.0393
     38 HO3'        2.2232   -1.2979    2.3953 H         1 GTP         0.2010
     39 H2'        -0.0011    0.0027    0.0003 H         1 GTP        -0.0393
     40 HO2'       -0.1563   -0.9855    2.0596 H         1 GTP         0.2010
     41 H1'         1.7826    1.9024    1.6451 H         1 GTP        -0.0393
     42 H8         -1.4050    1.8187    0.9438 H         1 GTP         0.0000
     43 HN1         0.9121    6.6744   -2.6251 H         1 GTP         0.0865
     44 HN21        3.9971    5.1427   -2.1235 H         1 GTP         0.2048
     45 HN22        3.0881    6.4564   -2.8380 H         1 GTP         0.2048
     46 H46        -2.4173    3.8294   -0.2127 H         1 GTP         0.2048
@<TRIPOS>BOND
     1    1    2 2
     2    1    3 1
     3    1    4 1
     4    1    5 1
     5    5    6 1
     6    6    7 2
     7    6    8 1
     8    6    9 1
     9    8   33 1
    10    9   10 1
    11   10   11 2
    12   10   12 1
    13   10   13 1
    14   13   14 1
    15   14   15 1
    16   14   34 1
    17   14   35 1
    18   15   16 1
    19   15   17 1
    20   15   36 1
    21   16   21 1
    22   17   18 1
    23   17   19 1
    24   17   37 1
    25   18   38 1
    26   19   20 1
    27   19   21 1
    28   19   39 1
    29   20   40 1
    30   21   22 1
    31   21   41 1
    32   22   23 ar
    33   22   32 ar
    34   23   24 ar
    35   23   42 1
    36   24   25 ar
    37   24   46 1
    38   25   26 ar
    39   25   32 ar
    40   26   27 2
    41   26   28 ar
    42   28   29 ar
    43   28   43 1
    44   29   30 1
    45   29   31 ar
    46   30   44 1
    47   30   45 1
    48   31   32 ar
@<TRIPOS>SUBSTRUCTURE
     1 GTP         1 GROUP 0 A     ****
@<TRIPOS>MOLECULE
[[[5-(2-amino-6-oxo-7,8-dihydro-1~{H}-purin-8-ylium-9-yl)-3,4-dihydroxy-tetrahydrofuran-2-yl]methoxy-oxido-phosphoryl]oxy-hydroxy-phosphoryl] phosphate
   46    48     1     0     0
SMALL
USER_CHARGES

@<TRIPOS>ATOM
      1 PG          0.0525   -3.6988   -6.9269 P.3       1 GTP        -1.1921
      2 O1G        -1.2924   -2.9865   -7.0283 O.co2     1 GTP         0.3195
      3 O2G         0.0104   -5.0078   -6.1452 O.co2     1 GTP         0.3195
      4 O3G         0.8220   -3.7793   -8.2412 O.co2     1 GTP         0.3195
      5 O3B         0.9658   -2.7045   -5.9810 O.3       1 GTP         0.4672
      6 PB          1.4153   -1.1663   -6.2008 P.3       1 GTP        -0.9715
      7 O1B         2.2293   -0.9173   -7.4361 O.2       1 GTP         0.2707
      8 O2B         0.0128   -0.3645   -6.1347 O.3       1 GTP         0.0326
      9 O3A         2.1354   -0.7826   -4.8066 O.3       1 GTP         0.4672
     10 PA          2.8307    0.6109   -4.3192 P.3       1 GTP        -1.1062
     11 O1A         4.0646    0.8503   -5.1617 O.co2     1 GTP         0.3195
     12 O2A         1.7538    1.6661   -4.1908 O.co2     1 GTP         0.3195
     13 O5'         3.2903    0.1346   -2.8241 O.3       1 GTP         0.1618
     14 C5'         2.2816   -0.2918   -1.9206 C.3       1 GTP         0.1504
     15 C4'         2.7248    0.0226   -0.4980 C.3       1 GTP         0.1111
     16 O4'         2.4697    1.4219   -0.2462 O.3       1 GTP        -0.1436
     17 C3'         1.9404   -0.7419    0.5596 C.3       1 GTP         0.1111
     18 O3'         2.7418   -0.8086    1.7389 O.3       1 GTP        -0.2728
     19 C2'         0.7477    0.1630    0.7858 C.3       1 GTP         0.1111
     20 O2'         0.1373   -0.0577    2.0407 O.3       1 GTP        -0.2728
     21 C1'         1.3733    1.5427    0.6747 C.3       1 GTP         0.2693
     22 N9          0.4520    2.5240    0.1767 N.pl3     1 GTP        -0.3222
     23 C8          0.5671    3.2221   -0.9473 C.ar      1 GTP         0.1640
     24 N7         -0.4560    4.0508   -1.1290 N.pl3     1 GTP        -0.3688
     25 C5         -1.2671    3.8585   -0.0441 C.ar      1 GTP         0.0648
     26 C6         -2.5318    4.5014    0.2817 C.ar      1 GTP         0.3597
     27 O6         -3.0527    5.3493   -0.4293 O.2       1 GTP        -0.2755
     28 N1         -3.0357    4.0149    1.4868 N.pl3     1 GTP        -0.1604
     29 C2         -2.4069    3.0373    2.2768 C.ar      1 GTP         0.4468
     30 N2         -3.0679    2.6964    3.4278 N.pl3     1 GTP        -0.5618
     31 N3         -1.2653    2.4872    1.9379 N.2       1 GTP        -0.4283
     32 C4         -0.7342    2.9334    0.7643 C.ar      1 GTP         0.2226
     33 HOB2       -0.6552   -0.5195   -6.8361 H         1 GTP         0.2010
     34 H5'         1.3514    0.2330   -2.1577 H         1 GTP        -0.0393
     35 H5''        2.1280   -1.3678   -2.0460 H         1 GTP        -0.0393
     36 H4'         3.8044   -0.1397   -0.4040 H         1 GTP        -0.0393
     37 H3'         1.6764   -1.7639    0.2728 H         1 GTP        -0.0393
     38 HO3'        2.2232   -1.2979    2.3953 H         1 GTP         0.2010
     39 H2'        -0.0011    0.0027    0.0003 H         1 GTP        -0.0393
     40 HO2'       -0.1563   -0.9855    2.0596 H         1 GTP         0.2010
     41 H1'         1.7826    1.9024    1.6451 H         1 GTP        -0.0393
     42 H8          1.3888    3.1325   -1.6361 H         1 GTP         0.0000
     43 HN1        -3.9188    4.3932    1.8170 H         1 GTP         0.0865
     44 HN21       -2.6609    2.0087    4.0186 H         1 GTP         0.2048
     45 HN22       -3.9293    3.1496    3.6283 H         1 GTP         0.2048
     46 H46        -0.5938    4.6820   -1.9060 H         1 GTP         0.2048
@<TRIPOS>BOND
     1    1    2 2
     2    1    3 1
     3    1    4 1
     4    1    5 1
     5    5    6 1
     6    6    7 2
     7    6    8 1
     8    6    9 1
     9    8   33 1
    10    9   10 1
    11   10   11 2
    12   10   12 1
    13   10   13 1
    14   13   14 1
    15   14   15 1
    16   14   34 1
    17   14   35 1
    18   15   16 1
    19   15   17 1
    20   15   36 1
    21   16   21 1
    22   17   18 1
    23   17   19 1
    24   17   37 1
    25   18   38 1
    26   19   20 1
    27   19   21 1
    28   19   39 1
    29   20   40 1
    30   21   22 1
    31   21   41 1
    32   22   23 ar
    33   22   32 ar
    34   23   24 ar
    35   23   42 1
    36   24   25 ar
    37   24   46 1
    38   25   26 ar
    39   25   32 ar
    40   26   27 2
    41   26   28 ar
    42   28   29 ar
    43   28   43 1
    44   29   30 1
    45   29   31 ar
    46   30   44 1
    47   30   45 1
    48   31   32 ar
@<TRIPOS>SUBSTRUCTURE
     1 GTP         1 GROUP 0 A     ****
@<TRIPOS>MOLECULE
[[[5-(2-amino-6-oxo-7,8-dihydro-1~{H}-purin-8-ylium-9-yl)-3,4-dihydroxy-tetrahydrofuran-2-yl]methoxy-oxido-phosphoryl]oxy-hydroxy-phosphoryl] phosphate
   46    48     1     0     0
SMALL
USER_CHARGES

@<TRIPOS>ATOM
      1 PG         -2.5001   -1.1170   -5.5780 P.3       1 GTP        -1.1921
      2 O1G        -2.7478   -2.5241   -6.1117 O.co2     1 GTP         0.3195
      3 O2G        -2.6305   -0.0174   -6.6269 O.co2     1 GTP         0.3195
      4 O3G        -3.2044   -0.8113   -4.2602 O.co2     1 GTP         0.3195
      5 O3B        -0.8970   -1.1070   -5.1943 O.3       1 GTP         0.4672
      6 PB         -0.0611   -2.0155   -4.1491 P.3       1 GTP        -0.9715
      7 O1B        -0.5138   -1.9141   -2.7225 O.2       1 GTP         0.2707
      8 O2B        -0.1605   -3.4953   -4.7929 O.3       1 GTP         0.0326
      9 O3A         1.4724   -1.5874   -4.4222 O.3       1 GTP         0.4672
     10 PA          2.8575   -2.1002   -3.7283 P.3       1 GTP        -1.1062
     11 O1A         2.9055   -3.6102   -3.8147 O.co2     1 GTP         0.3195
     12 O2A         3.9974   -1.2500   -4.2452 O.co2     1 GTP         0.3195
     13 O5'         2.5245   -1.6648   -2.1878 O.3       1 GTP         0.1618
     14 C5'         2.2816   -0.2918   -1.9206 C.3       1 GTP         0.1504
     15 C4'         2.7248    0.0226   -0.4980 C.3       1 GTP         0.1111
     16 O4'         2.4697    1.4219   -0.2462 O.3       1 GTP        -0.1436
     17 C3'         1.9404   -0.7419    0.5596 C.3       1 GTP         0.1111
     18 O3'         2.7418   -0.8086    1.7389 O.3       1 GTP        -0.2728
     19 C2'         0.7477    0.1630    0.7858 C.3       1 GTP         0.1111
     20 O2'         0.1373   -0.0577    2.0407 O.3       1 GTP        -0.2728
     21 C1'         1.3733    1.5427    0.6747 C.3       1 GTP         0.2693
     22 N9          0.4520    2.5240    0.1767 N.pl3     1 GTP        -0.3222
     23 C8         -0.2009    2.4849   -0.9792 C.ar      1 GTP         0.1640
     24 N7         -0.9840    3.5454   -1.1481 N.pl3     1 GTP        -0.3688
     25 C5         -0.8090    4.3005   -0.0206 C.ar      1 GTP         0.0648
     26 C6         -1.4206    5.5724    0.3362 C.ar      1 GTP         0.3597
     27 O6         -2.2199    6.1544   -0.3836 O.2       1 GTP        -0.2755
     28 N1         -0.9680    6.0043    1.5817 N.pl3     1 GTP        -0.1604
     29 C2         -0.0474    5.3055    2.3814 C.ar      1 GTP         0.4468
     30 N2          0.2680    5.9024    3.5740 N.pl3     1 GTP        -0.5618
     31 N3          0.4755    4.1601    2.0138 N.2       1 GTP        -0.4283
     32 C4          0.0611    3.6981    0.8001 C.ar      1 GTP         0.2226
     33 HOB2       -1.0369   -3.9334   -4.8408 H         1 GTP         0.2010
     34 H5'         2.8432    0.3119   -2.6398 H         1 GTP        -0.0393
     35 H5''        1.2128   -0.0927   -2.0428 H         1 GTP        -0.0393
     36 H4'         3.8044   -0.1397   -0.4040 H         1 GTP        -0.0393
     37 H3'         1.6764   -1.7639    0.2728 H         1 GTP        -0.0393
     38 HO3'        2.2232   -1.2979    2.3953 H         1 GTP         0.2010
     39 H2'        -0.0011    0.0027    0.0003 H         1 GTP        -0.0393
     40 HO2'       -0.6141    0.5574    2.1082 H         1 GTP         0.2010
     41 H1'         1.7826    1.9024    1.6451 H         1 GTP        -0.0393
     42 H8         -0.1126    1.6906   -1.6997 H         1 GTP         0.0000
     43 HN1        -1.3285    6.8855    1.9361 H         1 GTP         0.0865
     44 HN21        0.9153    5.4446    4.1732 H         1 GTP         0.2048
     45 HN22       -0.1624    6.7706    3.7948 H         1 GTP         0.2048
     46 H46        -1.5768    3.7405   -1.9429 H         1 GTP         0.2048
@<TRIPOS>BOND
     1    1    2 2
     2    1    3 1
     3    1    4 1
     4    1    5 1
     5    5    6 1
     6    6    7 2
     7    6    8 1
     8    6    9 1
     9    8   33 1
    10    9   10 1
    11   10   11 2
    12   10   12 1
    13   10   13 1
    14   13   14 1
    15   14   15 1
    16   14   34 1
    17   14   35 1
    18   15   16 1
    19   15   17 1
    20   15   36 1
    21   16   21 1
    22   17   18 1
    23   17   19 1
    24   17   37 1
    25   18   38 1
    26   19   20 1
    27   19   21 1
    28   19   39 1
    29   20   40 1
    30   21   22 1
    31   21   41 1
    32   22   23 ar
    33   22   32 ar
    34   23   24 ar
    35   23   42 1
    36   24   25 ar
    37   24   46 1
    38   25   26 ar
    39   25   32 ar
    40   26   27 2
    41   26   28 ar
    42   28   29 ar
    43   28   43 1
    44   29   30 1
    45   29   31 ar
    46   30   44 1
    47   30   45 1
    48   31   32 ar
@<TRIPOS>SUBSTRUCTURE
     1 GTP         1 GROUP 0 A     ****
@<TRIPOS>MOLECULE
[[[5-(2-amino-6-oxo-7,8-dihydro-1~{H}-purin-8-ylium-9-yl)-3,4-dihydroxy-tetrahydrofuran-2-yl]methoxy-oxido-phosphoryl]oxy-hydroxy-phosphoryl] phosphate
   46    48     1     0     0
SMALL
USER_CHARGES

@<TRIPOS>ATOM
      1 PG          0.1816   -0.7732   -6.9076 P.3       1 GTP        -1.1921
      2 O1G         0.1583   -2.0221   -7.7829 O.co2     1 GTP         0.3195
      3 O2G        -0.4460    0.4570   -7.5551 O.co2     1 GTP         0.3195
      4 O3G        -0.2494   -1.0091   -5.4638 O.co2     1 GTP         0.3195
      5 O3B         1.7805   -0.3874   -6.7970 O.3       1 GTP         0.4672
      6 PB          3.0273   -1.2338   -6.2092 P.3       1 GTP        -0.9715
      7 O1B         3.2798   -2.5438   -6.8952 O.2       1 GTP         0.2707
      8 O2B         4.2500   -0.1784   -6.2823 O.3       1 GTP         0.0326
      9 O3A         2.7049   -1.3291   -4.6292 O.3       1 GTP         0.4672
     10 PA          3.5344   -2.0410   -3.4175 P.3       1 GTP        -1.1062
     11 O1A         3.5097   -3.5381   -3.6357 O.co2     1 GTP         0.3195
     12 O2A         4.8394   -1.2990   -3.2278 O.co2     1 GTP         0.3195
     13 O5'         2.5245   -1.6648   -2.1878 O.3       1 GTP         0.1618
     14 C5'         2.2816   -0.2918   -1.9206 C.3       1 GTP         0.1504
     15 C4'         2.7248    0.0226   -0.4980 C.3       1 GTP         0.1111
     16 O4'         2.4697    1.4219   -0.2462 O.3       1 GTP        -0.1436
     17 C3'         1.9404   -0.7419    0.5596 C.3       1 GTP         0.1111
     18 O3'         2.7418   -0.8086    1.7389 O.3       1 GTP        -0.2728
     19 C2'         0.7477    0.1630    0.7858 C.3       1 GTP         0.1111
     20 O2'         0.1373   -0.0577    2.0407 O.3       1 GTP        -0.2728
     21 C1'         1.3733    1.5427    0.6747 C.3       1 GTP         0.2693
     22 N9          0.4520    2.5240    0.1767 N.pl3     1 GTP        -0.3222
     23 C8         -0.2009    2.4849   -0.9792 C.ar      1 GTP         0.1640
     24 N7         -0.9840    3.5454   -1.1481 N.pl3     1 GTP        -0.3688
     25 C5         -0.8090    4.3005   -0.0206 C.ar      1 GTP         0.0648
     26 C6         -1.4206    5.5724    0.3362 C.ar      1 GTP         0.3597
     27 O6         -2.2199    6.1544   -0.3836 O.2       1 GTP        -0.2755
     28 N1         -0.9680    6.0043    1.5817 N.pl3     1 GTP        -0.1604
     29 C2         -0.0474    5.3055    2.3814 C.ar      1 GTP         0.4468
     30 N2          0.2680    5.9024    3.5740 N.pl3     1 GTP        -0.5618
     31 N3          0.4755    4.1601    2.0138 N.2       1 GTP        -0.4283
     32 C4          0.0611    3.6981    0.8001 C.ar      1 GTP         0.2226
     33 HOB2        5.1166   -0.4297   -5.8974 H         1 GTP         0.2010
     34 H5'         2.8432    0.3119   -2.6398 H         1 GTP        -0.0393
     35 H5''        1.2128   -0.0927   -2.0428 H         1 GTP        -0.0393
     36 H4'         3.8044   -0.1397   -0.4040 H         1 GTP        -0.0393
     37 H3'         1.6764   -1.7639    0.2728 H         1 GTP        -0.0393
     38 HO3'        2.2232   -1.2979    2.3953 H         1 GTP         0.2010
     39 H2'        -0.0011    0.0027    0.0003 H         1 GTP        -0.0393
     40 HO2'       -0.1563   -0.9855    2.0596 H         1 GTP         0.2010
     41 H1'         1.7826    1.9024    1.6451 H         1 GTP        -0.0393
     42 H8         -0.1126    1.6906   -1.6997 H         1 GTP         0.0000
     43 HN1        -1.3285    6.8855    1.9361 H         1 GTP         0.0865
     44 HN21        0.9153    5.4446    4.1732 H         1 GTP         0.2048
     45 HN22       -0.1624    6.7706    3.7948 H         1 GTP         0.2048
     46 H46        -1.5768    3.7405   -1.9429 H         1 GTP         0.2048
@<TRIPOS>BOND
     1    1    2 2
     2    1    3 1
     3    1    4 1
     4    1    5 1
     5    5    6 1
     6    6    7 2
     7    6    8 1
     8    6    9 1
     9    8   33 1
    10    9   10 1
    11   10   11 2
    12   10   12 1
    13   10   13 1
    14   13   14 1
    15   14   15 1
    16   14   34 1
    17   14   35 1
    18   15   16 1
    19   15   17 1
    20   15   36 1
    21   16   21 1
    22   17   18 1
    23   17   19 1
    24   17   37 1
    25   18   38 1
    26   19   20 1
    27   19   21 1
    28   19   39 1
    29   20   40 1
    30   21   22 1
    31   21   41 1
    32   22   23 ar
    33   22   32 ar
    34   23   24 ar
    35   23   42 1
    36   24   25 ar
    37   24   46 1
    38   25   26 ar
    39   25   32 ar
    40   26   27 2
    41   26   28 ar
    42   28   29 ar
    43   28   43 1
    44   29   30 1
    45   29   31 ar
    46   30   44 1
    47   30   45 1
    48   31   32 ar
@<TRIPOS>SUBSTRUCTURE
     1 GTP         1 GROUP 0 A     ****
@<TRIPOS>MOLECULE
[[[5-(2-amino-6-oxo-7,8-dihydro-1~{H}-purin-8-ylium-9-yl)-3,4-dihydroxy-tetrahydrofuran-2-yl]methoxy-oxido-phosphoryl]oxy-hydroxy-phosphoryl] phosphate
   46    48     1     0     0
SMALL
USER_CHARGES

@<TRIPOS>ATOM
      1 PG          4.5852   -4.9571   -1.7627 P.3       1 GTP        -1.1921
      2 O1G         6.0044   -5.3200   -2.1875 O.co2     1 GTP         0.3195
      3 O2G         3.8001   -6.1126   -1.1504 O.co2     1 GTP         0.3195
      4 O3G         4.4758   -3.6470   -0.9895 O.co2     1 GTP         0.3195
      5 O3B         3.8027   -4.6581   -3.1825 O.3       1 GTP         0.4672
      6 PB          4.0993   -3.5630   -4.3353 P.3       1 GTP        -0.9715
      7 O1B         5.4502   -3.6740   -4.9783 O.2       1 GTP         0.2707
      8 O2B         2.8474   -3.7462   -5.3420 O.3       1 GTP         0.0326
      9 O3A         3.7928   -2.1555   -3.6041 O.3       1 GTP         0.4672
     10 PA          3.4597   -0.6852   -4.2287 P.3       1 GTP        -1.1062
     11 O1A         4.6913   -0.1809   -4.9487 O.co2     1 GTP         0.3195
     12 O2A         2.1180   -0.7517   -4.9252 O.co2     1 GTP         0.3195
     13 O5'         3.2903    0.1346   -2.8241 O.3       1 GTP         0.1618
     14 C5'         2.2816   -0.2918   -1.9206 C.3       1 GTP         0.1504
     15 C4'         2.7248    0.0226   -0.4980 C.3       1 GTP         0.1111
     16 O4'         2.4697    1.4219   -0.2462 O.3       1 GTP        -0.1436
     17 C3'         1.9404   -0.7419    0.5596 C.3       1 GTP         0.1111
     18 O3'         2.7418   -0.8086    1.7389 O.3       1 GTP        -0.2728
     19 C2'         0.7477    0.1630    0.7858 C.3       1 GTP         0.1111
     20 O2'         0.1373   -0.0577    2.0407 O.3       1 GTP        -0.2728
     21 C1'         1.3733    1.5427    0.6747 C.3       1 GTP         0.2693
     22 N9          0.4520    2.5240    0.1767 N.pl3     1 GTP        -0.3222
     23 C8          0.5671    3.2221   -0.9473 C.ar      1 GTP         0.1640
     24 N7         -0.4560    4.0508   -1.1290 N.pl3     1 GTP        -0.3688
     25 C5         -1.2671    3.8585   -0.0441 C.ar      1 GTP         0.0648
     26 C6         -2.5318    4.5014    0.2817 C.ar      1 GTP         0.3597
     27 O6         -3.0527    5.3493   -0.4293 O.2       1 GTP        -0.2755
     28 N1         -3.0357    4.0149    1.4868 N.pl3     1 GTP        -0.1604
     29 C2         -2.4069    3.0373    2.2768 C.ar      1 GTP         0.4468
     30 N2         -3.0679    2.6964    3.4278 N.pl3     1 GTP        -0.5618
     31 N3         -1.2653    2.4872    1.9379 N.2       1 GTP        -0.4283
     32 C4         -0.7342    2.9334    0.7643 C.ar      1 GTP         0.2226
     33 HOB2        2.7502   -3.1255   -6.0952 H         1 GTP         0.2010
     34 H5'         1.3514    0.2330   -2.1577 H         1 GTP        -0.0393
     35 H5''        2.1280   -1.3678   -2.0460 H         1 GTP        -0.0393
     36 H4'         3.8044   -0.1397   -0.4040 H         1 GTP        -0.0393
     37 H3'         1.6764   -1.7639    0.2728 H         1 GTP        -0.0393
     38 HO3'        2.2232   -1.2979    2.3953 H         1 GTP         0.2010
     39 H2'        -0.0011    0.0027    0.0003 H         1 GTP        -0.0393
     40 HO2'       -0.1563   -0.9855    2.0596 H         1 GTP         0.2010
     41 H1'         1.7826    1.9024    1.6451 H         1 GTP        -0.0393
     42 H8          1.3888    3.1325   -1.6361 H         1 GTP         0.0000
     43 HN1        -3.9188    4.3932    1.8170 H         1 GTP         0.0865
     44 HN21       -2.6609    2.0087    4.0186 H         1 GTP         0.2048
     45 HN22       -3.9293    3.1496    3.6283 H         1 GTP         0.2048
     46 H46        -0.5938    4.6820   -1.9060 H         1 GTP         0.2048
@<TRIPOS>BOND
     1    1    2 2
     2    1    3 1
     3    1    4 1
     4    1    5 1
     5    5    6 1
     6    6    7 2
     7    6    8 1
     8    6    9 1
     9    8   33 1
    10    9   10 1
    11   10   11 2
    12   10   12 1
    13   10   13 1
    14   13   14 1
    15   14   15 1
    16   14   34 1
    17   14   35 1
    18   15   16 1
    19   15   17 1
    20   15   36 1
    21   16   21 1
    22   17   18 1
    23   17   19 1
    24   17   37 1
    25   18   38 1
    26   19   20 1
    27   19   21 1
    28   19   39 1
    29   20   40 1
    30   21   22 1
    31   21   41 1
    32   22   23 ar
    33   22   32 ar
    34   23   24 ar
    35   23   42 1
    36   24   25 ar
    37   24   46 1
    38   25   26 ar
    39   25   32 ar
    40   26   27 2
    41   26   28 ar
    42   28   29 ar
    43   28   43 1
    44   29   30 1
    45   29   31 ar
    46   30   44 1
    47   30   45 1
    48   31   32 ar
@<TRIPOS>SUBSTRUCTURE
     1 GTP         1 GROUP 0 A     ****
@<TRIPOS>MOLECULE
[[[5-(2-amino-6-oxo-7,8-dihydro-1~{H}-purin-8-ylium-9-yl)-3,4-dihydroxy-tetrahydrofuran-2-yl]methoxy-oxido-phosphoryl]oxy-hydroxy-phosphoryl] phosphate
   46    48     1     0     0
SMALL
USER_CHARGES

@<TRIPOS>ATOM
      1 PG          0.4519    3.1264   -6.8227 P.3       1 GTP        -1.1921
      2 O1G        -0.7133    2.4994   -7.5812 O.co2     1 GTP         0.3195
      3 O2G         1.5533    3.6854   -7.7177 O.co2     1 GTP         0.3195
      4 O3G         0.0358    4.0561   -5.6876 O.co2     1 GTP         0.3195
      5 O3B         1.1710    1.8526   -6.0625 O.3       1 GTP         0.4672
      6 PB          0.5829    0.8103   -4.9743 P.3       1 GTP        -0.9715
      7 O1B         0.0968    1.4356   -3.7003 O.2       1 GTP         0.2707
      8 O2B        -0.5421    0.0059   -5.8121 O.3       1 GTP         0.0326
      9 O3A         1.7728   -0.2694   -4.8071 O.3       1 GTP         0.4672
     10 PA          3.3181   -0.0790   -4.3186 P.3       1 GTP        -1.1062
     11 O1A         3.9508   -1.4473   -4.1884 O.co2     1 GTP         0.3195
     12 O2A         3.9586    1.0027   -5.1608 O.co2     1 GTP         0.3195
     13 O5'         3.0213    0.5153   -2.8245 O.3       1 GTP         0.1618
     14 C5'         2.2816   -0.2918   -1.9206 C.3       1 GTP         0.1504
     15 C4'         2.7248    0.0226   -0.4980 C.3       1 GTP         0.1111
     16 O4'         2.4697    1.4219   -0.2462 O.3       1 GTP        -0.1436
     17 C3'         1.9404   -0.7419    0.5596 C.3       1 GTP         0.1111
     18 O3'         2.7418   -0.8086    1.7389 O.3       1 GTP        -0.2728
     19 C2'         0.7477    0.1630    0.7858 C.3       1 GTP         0.1111
     20 O2'         0.1373   -0.0577    2.0407 O.3       1 GTP        -0.2728
     21 C1'         1.3733    1.5427    0.6747 C.3       1 GTP         0.2693
     22 N9          0.4520    2.5240    0.1767 N.pl3     1 GTP        -0.3222
     23 C8          0.5671    3.2221   -0.9473 C.ar      1 GTP         0.1640
     24 N7         -0.4560    4.0508   -1.1290 N.pl3     1 GTP        -0.3688
     25 C5         -1.2671    3.8585   -0.0441 C.ar      1 GTP         0.0648
     26 C6         -2.5318    4.5014    0.2817 C.ar      1 GTP         0.3597
     27 O6         -3.0527    5.3493   -0.4293 O.2       1 GTP        -0.2755
     28 N1         -3.0357    4.0149    1.4868 N.pl3     1 GTP        -0.1604
     29 C2         -2.4069    3.0373    2.2768 C.ar      1 GTP         0.4468
     30 N2         -3.0679    2.6964    3.4278 N.pl3     1 GTP        -0.5618
     31 N3         -1.2653    2.4872    1.9379 N.2       1 GTP        -0.4283
     32 C4         -0.7342    2.9334    0.7643 C.ar      1 GTP         0.2226
     33 HOB2       -1.3337    0.4907   -6.1290 H         1 GTP         0.2010
     34 H5'         1.2163   -0.0770   -2.0471 H         1 GTP        -0.0393
     35 H5''        2.4655   -1.3443   -2.1563 H         1 GTP        -0.0393
     36 H4'         3.8044   -0.1397   -0.4040 H         1 GTP        -0.0393
     37 H3'         1.6764   -1.7639    0.2728 H         1 GTP        -0.0393
     38 HO3'        2.2232   -1.2979    2.3953 H         1 GTP         0.2010
     39 H2'        -0.0011    0.0027    0.0003 H         1 GTP        -0.0393
     40 HO2'       -0.1563   -0.9855    2.0596 H         1 GTP         0.2010
     41 H1'         1.7826    1.9024    1.6451 H         1 GTP        -0.0393
     42 H8          1.3888    3.1325   -1.6361 H         1 GTP         0.0000
     43 HN1        -3.9188    4.3932    1.8170 H         1 GTP         0.0865
     44 HN21       -2.6609    2.0087    4.0186 H         1 GTP         0.2048
     45 HN22       -3.9293    3.1496    3.6283 H         1 GTP         0.2048
     46 H46        -0.5938    4.6820   -1.9060 H         1 GTP         0.2048
@<TRIPOS>BOND
     1    1    2 2
     2    1    3 1
     3    1    4 1
     4    1    5 1
     5    5    6 1
     6    6    7 2
     7    6    8 1
     8    6    9 1
     9    8   33 1
    10    9   10 1
    11   10   11 2
    12   10   12 1
    13   10   13 1
    14   13   14 1
    15   14   15 1
    16   14   34 1
    17   14   35 1
    18   15   16 1
    19   15   17 1
    20   15   36 1
    21   16   21 1
    22   17   18 1
    23   17   19 1
    24   17   37 1
    25   18   38 1
    26   19   20 1
    27   19   21 1
    28   19   39 1
    29   20   40 1
    30   21   22 1
    31   21   41 1
    32   22   23 ar
    33   22   32 ar
    34   23   24 ar
    35   23   42 1
    36   24   25 ar
    37   24   46 1
    38   25   26 ar
    39   25   32 ar
    40   26   27 2
    41   26   28 ar
    42   28   29 ar
    43   28   43 1
    44   29   30 1
    45   29   31 ar
    46   30   44 1
    47   30   45 1
    48   31   32 ar
@<TRIPOS>SUBSTRUCTURE
     1 GTP         1 GROUP 0 A     ****
@<TRIPOS>MOLECULE
[[[5-(2-amino-6-oxo-7,8-dihydro-1~{H}-purin-8-ylium-9-yl)-3,4-dihydroxy-tetrahydrofuran-2-yl]methoxy-oxido-phosphoryl]oxy-hydroxy-phosphoryl] phosphate
   46    48     1     0     0
SMALL
USER_CHARGES

@<TRIPOS>ATOM
      1 PG          5.6662   -0.9325   -7.5294 P.3       1 GTP        -1.1921
      2 O1G         5.5436   -2.3125   -8.1671 O.co2     1 GTP         0.3195
      3 O2G         7.0208   -0.6592   -6.8839 O.co2     1 GTP         0.3195
      4 O3G         5.1441    0.2091   -8.3956 O.co2     1 GTP         0.3195
      5 O3B         4.6247   -0.9836   -6.2527 O.3       1 GTP         0.4672
      6 PB          3.0273   -1.2338   -6.2092 P.3       1 GTP        -0.9715
      7 O1B         2.2111   -0.2339   -6.9739 O.2       1 GTP         0.2707
      8 O2B         2.8845   -2.7622   -6.7168 O.3       1 GTP         0.0326
      9 O3A         2.7049   -1.3291   -4.6292 O.3       1 GTP         0.4672
     10 PA          3.5344   -2.0410   -3.4175 P.3       1 GTP        -1.1062
     11 O1A         3.5097   -3.5381   -3.6357 O.co2     1 GTP         0.3195
     12 O2A         4.8394   -1.2990   -3.2278 O.co2     1 GTP         0.3195
     13 O5'         2.5245   -1.6648   -2.1878 O.3       1 GTP         0.1618
     14 C5'         2.2816   -0.2918   -1.9206 C.3       1 GTP         0.1504
     15 C4'         2.7248    0.0226   -0.4980 C.3       1 GTP         0.1111
     16 O4'         2.4697    1.4219   -0.2462 O.3       1 GTP        -0.1436
     17 C3'         1.9404   -0.7419    0.5596 C.3       1 GTP         0.1111
     18 O3'         2.7418   -0.8086    1.7389 O.3       1 GTP        -0.2728
     19 C2'         0.7477    0.1630    0.7858 C.3       1 GTP         0.1111
     20 O2'         0.1373   -0.0577    2.0407 O.3       1 GTP        -0.2728
     21 C1'         1.3733    1.5427    0.6747 C.3       1 GTP         0.2693
     22 N9          0.4520    2.5240    0.1767 N.pl3     1 GTP        -0.3222
     23 C8          0.2203    2.8205   -1.0970 C.ar      1 GTP         0.1640
     24 N7         -0.6947    3.7752   -1.2304 N.pl3     1 GTP        -0.3688
     25 C5         -1.0607    4.0987    0.0476 C.ar      1 GTP         0.0648
     26 C6         -2.0310    5.0839    0.5029 C.ar      1 GTP         0.3597
     27 O6         -2.6779    5.7867   -0.2609 O.2       1 GTP        -0.2755
     28 N1         -2.1030    5.0975    1.8948 N.pl3     1 GTP        -0.1604
     29 C2         -1.3422    4.2721    2.7403 C.ar      1 GTP         0.4468
     30 N2         -1.5624    4.4419    4.0823 N.pl3     1 GTP        -0.5618
     31 N3         -0.4796    3.3981    2.2792 N.2       1 GTP        -0.4283
     32 C4         -0.3754    3.3496    0.9208 C.ar      1 GTP         0.2226
     33 HOB2        3.1343   -2.9803   -7.6399 H         1 GTP         0.2010
     34 H5'         2.8432    0.3119   -2.6398 H         1 GTP        -0.0393
     35 H5''        1.2128   -0.0927   -2.0428 H         1 GTP        -0.0393
     36 H4'         3.8044   -0.1397   -0.4040 H         1 GTP        -0.0393
     37 H3'         1.6764   -1.7639    0.2728 H         1 GTP        -0.0393
     38 HO3'        2.2232   -1.2979    2.3953 H         1 GTP         0.2010
     39 H2'        -0.0011    0.0027    0.0003 H         1 GTP        -0.0393
     40 HO2'       -0.1563   -0.9855    2.0596 H         1 GTP         0.2010
     41 H1'         1.7826    1.9024    1.6451 H         1 GTP        -0.0393
     42 H8          0.7110    2.3472   -1.9295 H         1 GTP         0.0000
     43 HN1        -2.7504    5.7495    2.3282 H         1 GTP         0.0865
     44 HN21       -1.0467    3.8796    4.7190 H         1 GTP         0.2048
     45 HN22       -2.2294    5.1209    4.3680 H         1 GTP         0.2048
     46 H46        -1.0382    4.1687   -2.0954 H         1 GTP         0.2048
@<TRIPOS>BOND
     1    1    2 2
     2    1    3 1
     3    1    4 1
     4    1    5 1
     5    5    6 1
     6    6    7 2
     7    6    8 1
     8    6    9 1
     9    8   33 1
    10    9   10 1
    11   10   11 2
    12   10   12 1
    13   10   13 1
    14   13   14 1
    15   14   15 1
    16   14   34 1
    17   14   35 1
    18   15   16 1
    19   15   17 1
    20   15   36 1
    21   16   21 1
    22   17   18 1
    23   17   19 1
    24   17   37 1
    25   18   38 1
    26   19   20 1
    27   19   21 1
    28   19   39 1
    29   20   40 1
    30   21   22 1
    31   21   41 1
    32   22   23 ar
    33   22   32 ar
    34   23   24 ar
    35   23   42 1
    36   24   25 ar
    37   24   46 1
    38   25   26 ar
    39   25   32 ar
    40   26   27 2
    41   26   28 ar
    42   28   29 ar
    43   28   43 1
    44   29   30 1
    45   29   31 ar
    46   30   44 1
    47   30   45 1
    48   31   32 ar
@<TRIPOS>SUBSTRUCTURE
     1 GTP         1 GROUP 0 A     ****
@<TRIPOS>MOLECULE
[[[5-(2-amino-6-oxo-7,8-dihydro-1~{H}-purin-8-ylium-9-yl)-3,4-dihydroxy-tetrahydrofuran-2-yl]methoxy-oxido-phosphoryl]oxy-hydroxy-phosphoryl] phosphate
   46    48     1     0     0
SMALL
USER_CHARGES

@<TRIPOS>ATOM
      1 PG          0.7896   -2.7895   -7.6686 P.3       1 GTP        -1.1921
      2 O1G         1.4887   -2.1067   -8.8396 O.co2     1 GTP         0.3195
      3 O2G        -0.6750   -2.3987   -7.4996 O.co2     1 GTP         0.3195
      4 O3G         1.0532   -4.2882   -7.5661 O.co2     1 GTP         0.3195
      5 O3B         1.5227   -2.1555   -6.3352 O.3       1 GTP         0.4672
      6 PB          3.0715   -2.1922   -5.8703 P.3       1 GTP        -0.9715
      7 O1B         3.6344   -3.5667   -5.6592 O.2       1 GTP         0.2707
      8 O2B         3.8142   -1.3183   -7.0100 O.3       1 GTP         0.0326
      9 O3A         3.0982   -1.2256   -4.5763 O.3       1 GTP         0.4672
     10 PA          2.7180    0.3539   -4.4230 P.3       1 GTP        -1.1062
     11 O1A         3.7292    1.1672   -5.2015 O.co2     1 GTP         0.3195
     12 O2A         1.2326    0.5160   -4.6616 O.co2     1 GTP         0.3195
     13 O5'         3.0213    0.5153   -2.8245 O.3       1 GTP         0.1618
     14 C5'         2.2816   -0.2918   -1.9206 C.3       1 GTP         0.1504
     15 C4'         2.7248    0.0226   -0.4980 C.3       1 GTP         0.1111
     16 O4'         2.4697    1.4219   -0.2462 O.3       1 GTP        -0.1436
     17 C3'         1.9404   -0.7419    0.5596 C.3       1 GTP         0.1111
     18 O3'         2.7418   -0.8086    1.7389 O.3       1 GTP        -0.2728
     19 C2'         0.7477    0.1630    0.7858 C.3       1 GTP         0.1111
     20 O2'         0.1373   -0.0577    2.0407 O.3       1 GTP        -0.2728
     21 C1'         1.3733    1.5427    0.6747 C.3       1 GTP         0.2693
     22 N9          0.4520    2.5240    0.1767 N.pl3     1 GTP        -0.3222
     23 C8         -0.6818    2.9109    0.7501 C.ar      1 GTP         0.1640
     24 N7         -1.3103    3.8415    0.0391 N.pl3     1 GTP        -0.3688
     25 C5         -0.5155    4.0512   -1.0547 C.ar      1 GTP         0.0648
     26 C6         -0.7125    4.9651   -2.1705 C.ar      1 GTP         0.3597
     27 O6         -1.6819    5.7047   -2.2651 O.2       1 GTP        -0.2755
     28 N1          0.3401    4.8672   -3.0790 N.pl3     1 GTP        -0.1604
     29 C2          1.4396    4.0039   -2.9348 C.ar      1 GTP         0.4468
     30 N2          2.3679    4.0602   -3.9414 N.pl3     1 GTP        -0.5618
     31 N3          1.5708    3.1983   -1.9080 N.2       1 GTP        -0.4283
     32 C4          0.5630    3.2599   -0.9921 C.ar      1 GTP         0.2226
     33 HOB2        4.7689   -1.1182   -6.9067 H         1 GTP         0.2010
     34 H5'         1.2163   -0.0770   -2.0471 H         1 GTP        -0.0393
     35 H5''        2.4655   -1.3443   -2.1563 H         1 GTP        -0.0393
     36 H4'         3.8044   -0.1397   -0.4040 H         1 GTP        -0.0393
     37 H3'         1.6764   -1.7639    0.2728 H         1 GTP        -0.0393
     38 HO3'        2.2232   -1.2979    2.3953 H         1 GTP         0.2010
     39 H2'        -0.0011    0.0027    0.0003 H         1 GTP        -0.0393
     40 HO2'       -0.1563   -0.9855    2.0596 H         1 GTP         0.2010
     41 H1'         1.7826    1.9024    1.6451 H         1 GTP        -0.0393
     42 H8         -1.0545    2.5222    1.6816 H         1 GTP         0.0000
     43 HN1         0.3104    5.4612   -3.9026 H         1 GTP         0.0865
     44 HN21        3.1632    3.4672   -3.8824 H         1 GTP         0.2048
     45 HN22        2.2108    4.6918   -4.6924 H         1 GTP         0.2048
     46 H46        -2.1863    4.2902    0.2681 H         1 GTP         0.2048
@<TRIPOS>BOND
     1    1    2 2
     2    1    3 1
     3    1    4 1
     4    1    5 1
     5    5    6 1
     6    6    7 2
     7    6    8 1
     8    6    9 1
     9    8   33 1
    10    9   10 1
    11   10   11 2
    12   10   12 1
    13   10   13 1
    14   13   14 1
    15   14   15 1
    16   14   34 1
    17   14   35 1
    18   15   16 1
    19   15   17 1
    20   15   36 1
    21   16   21 1
    22   17   18 1
    23   17   19 1
    24   17   37 1
    25   18   38 1
    26   19   20 1
    27   19   21 1
    28   19   39 1
    29   20   40 1
    30   21   22 1
    31   21   41 1
    32   22   23 ar
    33   22   32 ar
    34   23   24 ar
    35   23   42 1
    36   24   25 ar
    37   24   46 1
    38   25   26 ar
    39   25   32 ar
    40   26   27 2
    41   26   28 ar
    42   28   29 ar
    43   28   43 1
    44   29   30 1
    45   29   31 ar
    46   30   44 1
    47   30   45 1
    48   31   32 ar
@<TRIPOS>SUBSTRUCTURE
     1 GTP         1 GROUP 0 A     ****
@<TRIPOS>MOLECULE
[[[5-(2-amino-6-oxo-7,8-dihydro-1~{H}-purin-8-ylium-9-yl)-3,4-dihydroxy-tetrahydrofuran-2-yl]methoxy-oxido-phosphoryl]oxy-hydroxy-phosphoryl] phosphate
   46    48     1     0     0
SMALL
USER_CHARGES

@<TRIPOS>ATOM
      1 PG          4.5852   -4.9571   -1.7627 P.3       1 GTP        -1.1921
      2 O1G         6.0044   -5.3200   -2.1875 O.co2     1 GTP         0.3195
      3 O2G         3.8001   -6.1126   -1.1504 O.co2     1 GTP         0.3195
      4 O3G         4.4758   -3.6470   -0.9895 O.co2     1 GTP         0.3195
      5 O3B         3.8027   -4.6581   -3.1825 O.3       1 GTP         0.4672
      6 PB          4.0993   -3.5630   -4.3353 P.3       1 GTP        -0.9715
      7 O1B         5.4502   -3.6740   -4.9783 O.2       1 GTP         0.2707
      8 O2B         2.8474   -3.7462   -5.3420 O.3       1 GTP         0.0326
      9 O3A         3.7928   -2.1555   -3.6041 O.3       1 GTP         0.4672
     10 PA          3.4597   -0.6852   -4.2287 P.3       1 GTP        -1.1062
     11 O1A         4.6913   -0.1809   -4.9487 O.co2     1 GTP         0.3195
     12 O2A         2.1180   -0.7517   -4.9252 O.co2     1 GTP         0.3195
     13 O5'         3.2903    0.1346   -2.8241 O.3       1 GTP         0.1618
     14 C5'         2.2816   -0.2918   -1.9206 C.3       1 GTP         0.1504
     15 C4'         2.7248    0.0226   -0.4980 C.3       1 GTP         0.1111
     16 O4'         2.4697    1.4219   -0.2462 O.3       1 GTP        -0.1436
     17 C3'         1.9404   -0.7419    0.5596 C.3       1 GTP         0.1111
     18 O3'         2.7418   -0.8086    1.7389 O.3       1 GTP        -0.2728
     19 C2'         0.7477    0.1630    0.7858 C.3       1 GTP         0.1111
     20 O2'         0.1373   -0.0577    2.0407 O.3       1 GTP        -0.2728
     21 C1'         1.3733    1.5427    0.6747 C.3       1 GTP         0.2693
     22 N9          0.4520    2.5240    0.1767 N.pl3     1 GTP        -0.3222
     23 C8         -0.2009    2.4849   -0.9792 C.ar      1 GTP         0.1640
     24 N7         -0.9840    3.5454   -1.1481 N.pl3     1 GTP        -0.3688
     25 C5         -0.8090    4.3005   -0.0206 C.ar      1 GTP         0.0648
     26 C6         -1.4206    5.5724    0.3362 C.ar      1 GTP         0.3597
     27 O6         -2.2199    6.1544   -0.3836 O.2       1 GTP        -0.2755
     28 N1         -0.9680    6.0043    1.5817 N.pl3     1 GTP        -0.1604
     29 C2         -0.0474    5.3055    2.3814 C.ar      1 GTP         0.4468
     30 N2          0.2680    5.9024    3.5740 N.pl3     1 GTP        -0.5618
     31 N3          0.4755    4.1601    2.0138 N.2       1 GTP        -0.4283
     32 C4          0.0611    3.6981    0.8001 C.ar      1 GTP         0.2226
     33 HOB2        2.7502   -3.1255   -6.0952 H         1 GTP         0.2010
     34 H5'         1.3514    0.2330   -2.1577 H         1 GTP        -0.0393
     35 H5''        2.1280   -1.3678   -2.0460 H         1 GTP        -0.0393
     36 H4'         3.8044   -0.1397   -0.4040 H         1 GTP        -0.0393
     37 H3'         1.6764   -1.7639    0.2728 H         1 GTP        -0.0393
     38 HO3'        3.5554   -1.2733    1.4914 H         1 GTP         0.2010
     39 H2'        -0.0011    0.0027    0.0003 H         1 GTP        -0.0393
     40 HO2'       -0.6141    0.5574    2.1082 H         1 GTP         0.2010
     41 H1'         1.7826    1.9024    1.6451 H         1 GTP        -0.0393
     42 H8         -0.1126    1.6906   -1.6997 H         1 GTP         0.0000
     43 HN1        -1.3285    6.8855    1.9361 H         1 GTP         0.0865
     44 HN21        0.9153    5.4446    4.1732 H         1 GTP         0.2048
     45 HN22       -0.1624    6.7706    3.7948 H         1 GTP         0.2048
     46 H46        -1.5768    3.7405   -1.9429 H         1 GTP         0.2048
@<TRIPOS>BOND
     1    1    2 2
     2    1    3 1
     3    1    4 1
     4    1    5 1
     5    5    6 1
     6    6    7 2
     7    6    8 1
     8    6    9 1
     9    8   33 1
    10    9   10 1
    11   10   11 2
    12   10   12 1
    13   10   13 1
    14   13   14 1
    15   14   15 1
    16   14   34 1
    17   14   35 1
    18   15   16 1
    19   15   17 1
    20   15   36 1
    21   16   21 1
    22   17   18 1
    23   17   19 1
    24   17   37 1
    25   18   38 1
    26   19   20 1
    27   19   21 1
    28   19   39 1
    29   20   40 1
    30   21   22 1
    31   21   41 1
    32   22   23 ar
    33   22   32 ar
    34   23   24 ar
    35   23   42 1
    36   24   25 ar
    37   24   46 1
    38   25   26 ar
    39   25   32 ar
    40   26   27 2
    41   26   28 ar
    42   28   29 ar
    43   28   43 1
    44   29   30 1
    45   29   31 ar
    46   30   44 1
    47   30   45 1
    48   31   32 ar
@<TRIPOS>SUBSTRUCTURE
     1 GTP         1 GROUP 0 A     ****
@<TRIPOS>MOLECULE
[[[5-(2-amino-6-oxo-7,8-dihydro-1~{H}-purin-8-ylium-9-yl)-3,4-dihydroxy-tetrahydrofuran-2-yl]methoxy-oxido-phosphoryl]oxy-hydroxy-phosphoryl] phosphate
   46    48     1     0     0
SMALL
USER_CHARGES

@<TRIPOS>ATOM
      1 PG         -5.8995   -5.1960    1.6836 P.3       1 GTP        -1.1921
      2 O1G        -6.5610   -4.8347    3.0095 O.co2     1 GTP         0.3195
      3 O2G        -6.8806   -5.4665    0.5476 O.co2     1 GTP         0.3195
      4 O3G        -4.7293   -4.2967    1.2990 O.co2     1 GTP         0.3195
      5 O3B        -5.2078   -6.6657    1.9647 O.3       1 GTP         0.4672
      6 PB         -4.0791   -7.1082    3.0356 P.3       1 GTP        -0.9715
      7 O1B        -4.4517   -6.8880    4.4720 O.2       1 GTP         0.2707
      8 O2B        -3.7817   -8.6463    2.6359 O.3       1 GTP         0.0326
      9 O3A        -2.7580   -6.3256    2.5339 O.3       1 GTP         0.4672
     10 PA         -1.2430   -6.3034    3.1398 P.3       1 GTP        -1.1062
     11 O1A        -1.2783   -5.6250    4.4920 O.co2     1 GTP         0.3195
     12 O2A        -0.6373   -7.6795    2.9701 O.co2     1 GTP         0.3195
     13 O5'        -0.5687   -5.2869    2.0510 O.3       1 GTP         0.1618
     14 C5'        -0.7840   -3.8935    2.2172 C.3       1 GTP         0.1504
     15 C4'        -0.0724   -3.1466    1.1027 C.3       1 GTP         0.1111
     16 O4'        -0.8674   -3.1929   -0.0945 O.3       1 GTP        -0.1436
     17 C3'         0.1338   -1.6715    1.4027 C.3       1 GTP         0.1111
     18 O3'         1.2893   -1.4445    2.1808 O.3       1 GTP        -0.2728
     19 C2'         0.2158   -1.0724    0.0128 C.3       1 GTP         0.1111
     20 O2'         1.5141   -1.2448   -0.5513 O.3       1 GTP        -0.2728
     21 C1'        -0.7897   -1.9176   -0.7583 C.3       1 GTP         0.2693
     22 N9         -2.1040   -1.3333   -0.7704 N.pl3     1 GTP        -0.3222
     23 C8         -3.0597   -1.5109    0.1345 C.ar      1 GTP         0.1640
     24 N7         -4.1618   -0.8291   -0.1607 N.pl3     1 GTP        -0.3688
     25 C5         -3.8764   -0.1805   -1.3310 C.ar      1 GTP         0.0648
     26 C6         -4.7187    0.7111   -2.1152 C.ar      1 GTP         0.3597
     27 O6         -5.8617    1.0043   -1.7939 O.2       1 GTP        -0.2755
     28 N1         -4.0405    1.1608   -3.2468 N.pl3     1 GTP        -0.1604
     29 C2         -2.7239    0.8013   -3.5822 C.ar      1 GTP         0.4468
     30 N2         -2.2399    1.3534   -4.7394 N.pl3     1 GTP        -0.5618
     31 N3         -2.0053   -0.0071   -2.8402 N.2       1 GTP        -0.4283
     32 C4         -2.6290   -0.4727   -1.7210 C.ar      1 GTP         0.2226
     33 HOB2       -3.0577   -9.1236    3.0946 H         1 GTP         0.2010
     34 H5'        -1.8598   -3.6968    2.1850 H         1 GTP        -0.0393
     35 H5''       -0.3933   -3.5903    3.1931 H         1 GTP        -0.0393
     36 H4'         0.8874   -3.6466    0.8805 H         1 GTP        -0.0393
     37 H3'        -0.7376   -1.2333    1.9867 H         1 GTP        -0.0393
     38 HO3'        1.1626   -1.9325    3.0084 H         1 GTP         0.2010
     39 H2'        -0.0384   -0.0310    0.0096 H         1 GTP        -0.0393
     40 HO2'        1.4998   -0.8412   -1.4369 H         1 GTP         0.2010
     41 H1'        -0.4769   -2.1002   -1.8093 H         1 GTP        -0.0393
     42 H8         -2.9610   -2.1316    1.0079 H         1 GTP         0.0000
     43 HN1        -4.5320    1.7923   -3.8726 H         1 GTP         0.0865
     44 HN21       -1.3128    1.1277   -5.0171 H         1 GTP         0.2048
     45 HN22       -2.8342    1.9586   -5.2572 H         1 GTP         0.2048
     46 H46        -5.0195   -0.8034    0.3729 H         1 GTP         0.2048
@<TRIPOS>BOND
     1    1    2 2
     2    1    3 1
     3    1    4 1
     4    1    5 1
     5    5    6 1
     6    6    7 2
     7    6    8 1
     8    6    9 1
     9    8   33 1
    10    9   10 1
    11   10   11 2
    12   10   12 1
    13   10   13 1
    14   13   14 1
    15   14   15 1
    16   14   34 1
    17   14   35 1
    18   15   16 1
    19   15   17 1
    20   15   36 1
    21   16   21 1
    22   17   18 1
    23   17   19 1
    24   17   37 1
    25   18   38 1
    26   19   20 1
    27   19   21 1
    28   19   39 1
    29   20   40 1
    30   21   22 1
    31   21   41 1
    32   22   23 ar
    33   22   32 ar
    34   23   24 ar
    35   23   42 1
    36   24   25 ar
    37   24   46 1
    38   25   26 ar
    39   25   32 ar
    40   26   27 2
    41   26   28 ar
    42   28   29 ar
    43   28   43 1
    44   29   30 1
    45   29   31 ar
    46   30   44 1
    47   30   45 1
    48   31   32 ar
@<TRIPOS>SUBSTRUCTURE
     1 GTP         1 GROUP 0 A     ****
@<TRIPOS>MOLECULE
[[[5-(2-amino-6-oxo-7,8-dihydro-1~{H}-purin-8-ylium-9-yl)-3,4-dihydroxy-tetrahydrofuran-2-yl]methoxy-oxido-phosphoryl]oxy-hydroxy-phosphoryl] phosphate
   46    48     1     0     0
SMALL
USER_CHARGES

@<TRIPOS>ATOM
      1 PG          6.9749    1.2852   -1.9583 P.3       1 GTP        -1.1921
      2 O1G         7.2101    2.0717   -3.2438 O.co2     1 GTP         0.3195
      3 O2G         8.0487    1.4885   -0.8944 O.co2     1 GTP         0.3195
      4 O3G         5.5468    1.3594   -1.4282 O.co2     1 GTP         0.3195
      5 O3B         7.1602   -0.2897   -2.4088 O.3       1 GTP         0.4672
      6 PB          6.3527   -1.1733   -3.4967 P.3       1 GTP        -0.9715
      7 O1B         6.4116   -0.6517   -4.9021 O.2       1 GTP         0.2707
      8 O2B         6.9690   -2.6541   -3.2922 O.3       1 GTP         0.0326
      9 O3A         4.8720   -1.2897   -2.8615 O.3       1 GTP         0.4672
     10 PA          3.5344   -2.0410   -3.4175 P.3       1 GTP        -1.1062
     11 O1A         3.0721   -1.3297   -4.6706 O.co2     1 GTP         0.3195
     12 O2A         3.7838   -3.5334   -3.4114 O.co2     1 GTP         0.3195
     13 O5'         2.5245   -1.6648   -2.1878 O.3       1 GTP         0.1618
     14 C5'         2.2816   -0.2918   -1.9206 C.3       1 GTP         0.1504
     15 C4'         2.7248    0.0226   -0.4980 C.3       1 GTP         0.1111
     16 O4'         2.4697    1.4219   -0.2462 O.3       1 GTP        -0.1436
     17 C3'         1.9404   -0.7419    0.5596 C.3       1 GTP         0.1111
     18 O3'         2.7418   -0.8086    1.7389 O.3       1 GTP        -0.2728
     19 C2'         0.7477    0.1630    0.7858 C.3       1 GTP         0.1111
     20 O2'         0.1373   -0.0577    2.0407 O.3       1 GTP        -0.2728
     21 C1'         1.3733    1.5427    0.6747 C.3       1 GTP         0.2693
     22 N9          0.4520    2.5240    0.1767 N.pl3     1 GTP        -0.3222
     23 C8         -0.2009    2.4849   -0.9792 C.ar      1 GTP         0.1640
     24 N7         -0.9840    3.5454   -1.1481 N.pl3     1 GTP        -0.3688
     25 C5         -0.8090    4.3005   -0.0206 C.ar      1 GTP         0.0648
     26 C6         -1.4206    5.5724    0.3362 C.ar      1 GTP         0.3597
     27 O6         -2.2199    6.1544   -0.3836 O.2       1 GTP        -0.2755
     28 N1         -0.9680    6.0043    1.5817 N.pl3     1 GTP        -0.1604
     29 C2         -0.0474    5.3055    2.3814 C.ar      1 GTP         0.4468
     30 N2          0.2680    5.9024    3.5740 N.pl3     1 GTP        -0.5618
     31 N3          0.4755    4.1601    2.0138 N.2       1 GTP        -0.4283
     32 C4          0.0611    3.6981    0.8001 C.ar      1 GTP         0.2226
     33 HOB2        6.5766   -3.4034   -3.7889 H         1 GTP         0.2010
     34 H5'         2.8432    0.3119   -2.6398 H         1 GTP        -0.0393
     35 H5''        1.2128   -0.0927   -2.0428 H         1 GTP        -0.0393
     36 H4'         3.8044   -0.1397   -0.4040 H         1 GTP        -0.0393
     37 H3'         1.6764   -1.7639    0.2728 H         1 GTP        -0.0393
     38 HO3'        2.2232   -1.2979    2.3953 H         1 GTP         0.2010
     39 H2'        -0.0011    0.0027    0.0003 H         1 GTP        -0.0393
     40 HO2'       -0.6141    0.5574    2.1082 H         1 GTP         0.2010
     41 H1'         1.7826    1.9024    1.6451 H         1 GTP        -0.0393
     42 H8         -0.1126    1.6906   -1.6997 H         1 GTP         0.0000
     43 HN1        -1.3285    6.8855    1.9361 H         1 GTP         0.0865
     44 HN21        0.9153    5.4446    4.1732 H         1 GTP         0.2048
     45 HN22       -0.1624    6.7706    3.7948 H         1 GTP         0.2048
     46 H46        -1.5768    3.7405   -1.9429 H         1 GTP         0.2048
@<TRIPOS>BOND
     1    1    2 2
     2    1    3 1
     3    1    4 1
     4    1    5 1
     5    5    6 1
     6    6    7 2
     7    6    8 1
     8    6    9 1
     9    8   33 1
    10    9   10 1
    11   10   11 2
    12   10   12 1
    13   10   13 1
    14   13   14 1
    15   14   15 1
    16   14   34 1
    17   14   35 1
    18   15   16 1
    19   15   17 1
    20   15   36 1
    21   16   21 1
    22   17   18 1
    23   17   19 1
    24   17   37 1
    25   18   38 1
    26   19   20 1
    27   19   21 1
    28   19   39 1
    29   20   40 1
    30   21   22 1
    31   21   41 1
    32   22   23 ar
    33   22   32 ar
    34   23   24 ar
    35   23   42 1
    36   24   25 ar
    37   24   46 1
    38   25   26 ar
    39   25   32 ar
    40   26   27 2
    41   26   28 ar
    42   28   29 ar
    43   28   43 1
    44   29   30 1
    45   29   31 ar
    46   30   44 1
    47   30   45 1
    48   31   32 ar
@<TRIPOS>SUBSTRUCTURE
     1 GTP         1 GROUP 0 A     ****
@<TRIPOS>MOLECULE
[[[5-(2-amino-6-oxo-7,8-dihydro-1~{H}-purin-8-ylium-9-yl)-3,4-dihydroxy-tetrahydrofuran-2-yl]methoxy-oxido-phosphoryl]oxy-hydroxy-phosphoryl] phosphate
   46    48     1     0     0
SMALL
USER_CHARGES

@<TRIPOS>ATOM
      1 PG          0.5927   -3.4259   -7.3610 P.3       1 GTP        -1.1921
      2 O1G         0.8760   -2.6454   -8.6404 O.co2     1 GTP         0.3195
      3 O2G        -0.8798   -3.4674   -6.9658 O.co2     1 GTP         0.3195
      4 O3G         1.3014   -4.7738   -7.2768 O.co2     1 GTP         0.3195
      5 O3B         1.2938   -2.5228   -6.1734 O.3       1 GTP         0.4672
      6 PB          2.8348   -2.0785   -5.9625 P.3       1 GTP        -0.9715
      7 O1B         3.8050   -3.2140   -5.8213 O.2       1 GTP         0.2707
      8 O2B         3.1070   -1.1010   -7.2213 O.3       1 GTP         0.0326
      9 O3A         2.7650   -1.0656   -4.7061 O.3       1 GTP         0.4672
     10 PA          3.9458   -0.2356   -3.9447 P.3       1 GTP        -1.1062
     11 O1A         4.8553   -1.2258   -3.2504 O.co2     1 GTP         0.3195
     12 O2A         4.4992    0.7987   -4.9005 O.co2     1 GTP         0.3195
     13 O5'         3.0213    0.5153   -2.8245 O.3       1 GTP         0.1618
     14 C5'         2.2816   -0.2918   -1.9206 C.3       1 GTP         0.1504
     15 C4'         2.7248    0.0226   -0.4980 C.3       1 GTP         0.1111
     16 O4'         2.4697    1.4219   -0.2462 O.3       1 GTP        -0.1436
     17 C3'         1.9404   -0.7419    0.5596 C.3       1 GTP         0.1111
     18 O3'         2.7418   -0.8086    1.7389 O.3       1 GTP        -0.2728
     19 C2'         0.7477    0.1630    0.7858 C.3       1 GTP         0.1111
     20 O2'         0.1373   -0.0577    2.0407 O.3       1 GTP        -0.2728
     21 C1'         1.3733    1.5427    0.6747 C.3       1 GTP         0.2693
     22 N9          0.4520    2.5240    0.1767 N.pl3     1 GTP        -0.3222
     23 C8         -0.2009    2.4849   -0.9792 C.ar      1 GTP         0.1640
     24 N7         -0.9840    3.5454   -1.1481 N.pl3     1 GTP        -0.3688
     25 C5         -0.8090    4.3005   -0.0206 C.ar      1 GTP         0.0648
     26 C6         -1.4206    5.5724    0.3362 C.ar      1 GTP         0.3597
     27 O6         -2.2199    6.1544   -0.3836 O.2       1 GTP        -0.2755
     28 N1         -0.9680    6.0043    1.5817 N.pl3     1 GTP        -0.1604
     29 C2         -0.0474    5.3055    2.3814 C.ar      1 GTP         0.4468
     30 N2          0.2680    5.9024    3.5740 N.pl3     1 GTP        -0.5618
     31 N3          0.4755    4.1601    2.0138 N.2       1 GTP        -0.4283
     32 C4          0.0611    3.6981    0.8001 C.ar      1 GTP         0.2226
     33 HOB2        3.0901   -1.4782   -8.1266 H         1 GTP         0.2010
     34 H5'         1.2163   -0.0770   -2.0471 H         1 GTP        -0.0393
     35 H5''        2.4655   -1.3443   -2.1563 H         1 GTP        -0.0393
     36 H4'         3.8044   -0.1397   -0.4040 H         1 GTP        -0.0393
     37 H3'         1.6764   -1.7639    0.2728 H         1 GTP        -0.0393
     38 HO3'        2.2232   -1.2979    2.3953 H         1 GTP         0.2010
     39 H2'        -0.0011    0.0027    0.0003 H         1 GTP        -0.0393
     40 HO2'       -0.6141    0.5574    2.1082 H         1 GTP         0.2010
     41 H1'         1.7826    1.9024    1.6451 H         1 GTP        -0.0393
     42 H8         -0.1126    1.6906   -1.6997 H         1 GTP         0.0000
     43 HN1        -1.3285    6.8855    1.9361 H         1 GTP         0.0865
     44 HN21        0.9153    5.4446    4.1732 H         1 GTP         0.2048
     45 HN22       -0.1624    6.7706    3.7948 H         1 GTP         0.2048
     46 H46        -1.5768    3.7405   -1.9429 H         1 GTP         0.2048
@<TRIPOS>BOND
     1    1    2 2
     2    1    3 1
     3    1    4 1
     4    1    5 1
     5    5    6 1
     6    6    7 2
     7    6    8 1
     8    6    9 1
     9    8   33 1
    10    9   10 1
    11   10   11 2
    12   10   12 1
    13   10   13 1
    14   13   14 1
    15   14   15 1
    16   14   34 1
    17   14   35 1
    18   15   16 1
    19   15   17 1
    20   15   36 1
    21   16   21 1
    22   17   18 1
    23   17   19 1
    24   17   37 1
    25   18   38 1
    26   19   20 1
    27   19   21 1
    28   19   39 1
    29   20   40 1
    30   21   22 1
    31   21   41 1
    32   22   23 ar
    33   22   32 ar
    34   23   24 ar
    35   23   42 1
    36   24   25 ar
    37   24   46 1
    38   25   26 ar
    39   25   32 ar
    40   26   27 2
    41   26   28 ar
    42   28   29 ar
    43   28   43 1
    44   29   30 1
    45   29   31 ar
    46   30   44 1
    47   30   45 1
    48   31   32 ar
@<TRIPOS>SUBSTRUCTURE
     1 GTP         1 GROUP 0 A     ****
@<TRIPOS>MOLECULE
[[[5-(2-amino-6-oxo-7,8-dihydro-1~{H}-purin-8-ylium-9-yl)-3,4-dihydroxy-tetrahydrofuran-2-yl]methoxy-oxido-phosphoryl]oxy-hydroxy-phosphoryl] phosphate
   46    48     1     0     0
SMALL
USER_CHARGES

@<TRIPOS>ATOM
      1 PG         -6.8283   -7.3983    1.1623 P.3       1 GTP        -1.1921
      2 O1G        -7.2269   -7.6218    2.6175 O.co2     1 GTP         0.3195
      3 O2G        -6.4715   -8.6748    0.4077 O.co2     1 GTP         0.3195
      4 O3G        -7.7496   -6.4550    0.3958 O.co2     1 GTP         0.3195
      5 O3B        -5.3984   -6.5834    1.2559 O.3       1 GTP         0.4672
      6 PB         -5.0456   -5.1536    1.9249 P.3       1 GTP        -0.9715
      7 O1B        -5.7970   -3.9874    1.3539 O.2       1 GTP         0.2707
      8 O2B        -5.2922   -5.4186    3.5007 O.3       1 GTP         0.0326
      9 O3A        -3.4370   -5.0689    1.8036 O.3       1 GTP         0.4672
     10 PA         -2.2742   -6.0411    2.4080 P.3       1 GTP        -1.1062
     11 O1A        -2.2874   -5.9224    3.9164 O.co2     1 GTP         0.3195
     12 O2A        -2.3735   -7.3893    1.7280 O.co2     1 GTP         0.3195
     13 O5'        -0.9724   -5.2440    1.8220 O.3       1 GTP         0.1618
     14 C5'        -0.7840   -3.8935    2.2172 C.3       1 GTP         0.1504
     15 C4'        -0.0724   -3.1466    1.1027 C.3       1 GTP         0.1111
     16 O4'        -0.8674   -3.1929   -0.0945 O.3       1 GTP        -0.1436
     17 C3'         0.1338   -1.6715    1.4027 C.3       1 GTP         0.1111
     18 O3'         1.2893   -1.4445    2.1808 O.3       1 GTP        -0.2728
     19 C2'         0.2158   -1.0724    0.0128 C.3       1 GTP         0.1111
     20 O2'         1.5141   -1.2448   -0.5513 O.3       1 GTP        -0.2728
     21 C1'        -0.7897   -1.9176   -0.7583 C.3       1 GTP         0.2693
     22 N9         -2.1040   -1.3333   -0.7704 N.pl3     1 GTP        -0.3222
     23 C8         -3.0597   -1.5109    0.1345 C.ar      1 GTP         0.1640
     24 N7         -4.1618   -0.8291   -0.1607 N.pl3     1 GTP        -0.3688
     25 C5         -3.8764   -0.1805   -1.3310 C.ar      1 GTP         0.0648
     26 C6         -4.7187    0.7111   -2.1152 C.ar      1 GTP         0.3597
     27 O6         -5.8617    1.0043   -1.7939 O.2       1 GTP        -0.2755
     28 N1         -4.0405    1.1608   -3.2468 N.pl3     1 GTP        -0.1604
     29 C2         -2.7239    0.8013   -3.5822 C.ar      1 GTP         0.4468
     30 N2         -2.2399    1.3534   -4.7394 N.pl3     1 GTP        -0.5618
     31 N3         -2.0053   -0.0071   -2.8402 N.2       1 GTP        -0.4283
     32 C4         -2.6290   -0.4727   -1.7210 C.ar      1 GTP         0.2226
     33 HOB2       -5.0618   -4.7128    4.1417 H         1 GTP         0.2010
     34 H5'        -1.7618   -3.4448    2.4164 H         1 GTP        -0.0393
     35 H5''       -0.1874   -3.8744    3.1341 H         1 GTP        -0.0393
     36 H4'         0.8874   -3.6466    0.8805 H         1 GTP        -0.0393
     37 H3'        -0.7376   -1.2333    1.9867 H         1 GTP        -0.0393
     38 HO3'        1.3408   -0.4870    2.3219 H         1 GTP         0.2010
     39 H2'        -0.0384   -0.0310    0.0096 H         1 GTP        -0.0393
     40 HO2'        2.1463   -0.7958    0.0370 H         1 GTP         0.2010
     41 H1'        -0.4769   -2.1002   -1.8093 H         1 GTP        -0.0393
     42 H8         -2.9610   -2.1316    1.0079 H         1 GTP         0.0000
     43 HN1        -4.5320    1.7923   -3.8726 H         1 GTP         0.0865
     44 HN21       -1.3128    1.1277   -5.0171 H         1 GTP         0.2048
     45 HN22       -2.8342    1.9586   -5.2572 H         1 GTP         0.2048
     46 H46        -5.0195   -0.8034    0.3729 H         1 GTP         0.2048
@<TRIPOS>BOND
     1    1    2 2
     2    1    3 1
     3    1    4 1
     4    1    5 1
     5    5    6 1
     6    6    7 2
     7    6    8 1
     8    6    9 1
     9    8   33 1
    10    9   10 1
    11   10   11 2
    12   10   12 1
    13   10   13 1
    14   13   14 1
    15   14   15 1
    16   14   34 1
    17   14   35 1
    18   15   16 1
    19   15   17 1
    20   15   36 1
    21   16   21 1
    22   17   18 1
    23   17   19 1
    24   17   37 1
    25   18   38 1
    26   19   20 1
    27   19   21 1
    28   19   39 1
    29   20   40 1
    30   21   22 1
    31   21   41 1
    32   22   23 ar
    33   22   32 ar
    34   23   24 ar
    35   23   42 1
    36   24   25 ar
    37   24   46 1
    38   25   26 ar
    39   25   32 ar
    40   26   27 2
    41   26   28 ar
    42   28   29 ar
    43   28   43 1
    44   29   30 1
    45   29   31 ar
    46   30   44 1
    47   30   45 1
    48   31   32 ar
@<TRIPOS>SUBSTRUCTURE
     1 GTP         1 GROUP 0 A     ****
@<TRIPOS>MOLECULE
[[[5-(2-amino-6-oxo-7,8-dihydro-1~{H}-purin-8-ylium-9-yl)-3,4-dihydroxy-tetrahydrofuran-2-yl]methoxy-oxido-phosphoryl]oxy-hydroxy-phosphoryl] phosphate
   46    48     1     0     0
SMALL
USER_CHARGES

@<TRIPOS>ATOM
      1 PG         -4.7724   -5.9282    6.7863 P.3       1 GTP        -1.1921
      2 O1G        -5.7125   -4.7272    6.7797 O.co2     1 GTP         0.3195
      3 O2G        -3.6831   -5.8649    7.8520 O.co2     1 GTP         0.3195
      4 O3G        -5.4759   -7.2779    6.6900 O.co2     1 GTP         0.3195
      5 O3B        -3.9431   -5.7996    5.3675 O.3       1 GTP         0.4672
      6 PB         -4.4711   -5.7938    3.8386 P.3       1 GTP        -0.9715
      7 O1B        -5.2077   -7.0321    3.4209 O.2       1 GTP         0.2707
      8 O2B        -5.3318   -4.4275    3.7562 O.3       1 GTP         0.0326
      9 O3A        -3.1429   -5.4553    2.9838 O.3       1 GTP         0.4672
     10 PA         -1.7238   -6.2523    2.8671 P.3       1 GTP        -1.1062
     11 O1A        -1.0248   -6.1837    4.2074 O.co2     1 GTP         0.3195
     12 O2A        -1.9720   -7.5777    2.1807 O.co2     1 GTP         0.3195
     13 O5'        -0.9724   -5.2440    1.8220 O.3       1 GTP         0.1618
     14 C5'        -0.7840   -3.8935    2.2172 C.3       1 GTP         0.1504
     15 C4'        -0.0724   -3.1466    1.1027 C.3       1 GTP         0.1111
     16 O4'        -0.8674   -3.1929   -0.0945 O.3       1 GTP        -0.1436
     17 C3'         0.1338   -1.6715    1.4027 C.3       1 GTP         0.1111
     18 O3'         1.2893   -1.4445    2.1808 O.3       1 GTP        -0.2728
     19 C2'         0.2158   -1.0724    0.0128 C.3       1 GTP         0.1111
     20 O2'         1.5141   -1.2448   -0.5513 O.3       1 GTP        -0.2728
     21 C1'        -0.7897   -1.9176   -0.7583 C.3       1 GTP         0.2693
     22 N9         -2.1040   -1.3333   -0.7704 N.pl3     1 GTP        -0.3222
     23 C8         -3.0597   -1.5109    0.1345 C.ar      1 GTP         0.1640
     24 N7         -4.1618   -0.8291   -0.1607 N.pl3     1 GTP        -0.3688
     25 C5         -3.8764   -0.1805   -1.3310 C.ar      1 GTP         0.0648
     26 C6         -4.7187    0.7111   -2.1152 C.ar      1 GTP         0.3597
     27 O6         -5.8617    1.0043   -1.7939 O.2       1 GTP        -0.2755
     28 N1         -4.0405    1.1608   -3.2468 N.pl3     1 GTP        -0.1604
     29 C2         -2.7239    0.8013   -3.5822 C.ar      1 GTP         0.4468
     30 N2         -2.2399    1.3534   -4.7394 N.pl3     1 GTP        -0.5618
     31 N3         -2.0053   -0.0071   -2.8402 N.2       1 GTP        -0.4283
     32 C4         -2.6290   -0.4727   -1.7210 C.ar      1 GTP         0.2226
     33 HOB2       -6.1506   -4.3503    4.2908 H         1 GTP         0.2010
     34 H5'        -1.7618   -3.4448    2.4164 H         1 GTP        -0.0393
     35 H5''       -0.1874   -3.8744    3.1341 H         1 GTP        -0.0393
     36 H4'         0.8874   -3.6466    0.8805 H         1 GTP        -0.0393
     37 H3'        -0.7376   -1.2333    1.9867 H         1 GTP        -0.0393
     38 HO3'        1.3408   -0.4870    2.3219 H         1 GTP         0.2010
     39 H2'        -0.0384   -0.0310    0.0096 H         1 GTP        -0.0393
     40 HO2'        2.1463   -0.7958    0.0370 H         1 GTP         0.2010
     41 H1'        -0.4769   -2.1002   -1.8093 H         1 GTP        -0.0393
     42 H8         -2.9610   -2.1316    1.0079 H         1 GTP         0.0000
     43 HN1        -4.5320    1.7923   -3.8726 H         1 GTP         0.0865
     44 HN21       -1.3128    1.1277   -5.0171 H         1 GTP         0.2048
     45 HN22       -2.8342    1.9586   -5.2572 H         1 GTP         0.2048
     46 H46        -5.0195   -0.8034    0.3729 H         1 GTP         0.2048
@<TRIPOS>BOND
     1    1    2 2
     2    1    3 1
     3    1    4 1
     4    1    5 1
     5    5    6 1
     6    6    7 2
     7    6    8 1
     8    6    9 1
     9    8   33 1
    10    9   10 1
    11   10   11 2
    12   10   12 1
    13   10   13 1
    14   13   14 1
    15   14   15 1
    16   14   34 1
    17   14   35 1
    18   15   16 1
    19   15   17 1
    20   15   36 1
    21   16   21 1
    22   17   18 1
    23   17   19 1
    24   17   37 1
    25   18   38 1
    26   19   20 1
    27   19   21 1
    28   19   39 1
    29   20   40 1
    30   21   22 1
    31   21   41 1
    32   22   23 ar
    33   22   32 ar
    34   23   24 ar
    35   23   42 1
    36   24   25 ar
    37   24   46 1
    38   25   26 ar
    39   25   32 ar
    40   26   27 2
    41   26   28 ar
    42   28   29 ar
    43   28   43 1
    44   29   30 1
    45   29   31 ar
    46   30   44 1
    47   30   45 1
    48   31   32 ar
@<TRIPOS>SUBSTRUCTURE
     1 GTP         1 GROUP 0 A     ****
@<TRIPOS>MOLECULE
[[[5-(2-amino-6-oxo-7,8-dihydro-1~{H}-purin-8-ylium-9-yl)-3,4-dihydroxy-tetrahydrofuran-2-yl]methoxy-oxido-phosphoryl]oxy-hydroxy-phosphoryl] phosphate
   46    48     1     0     0
SMALL
USER_CHARGES

@<TRIPOS>ATOM
      1 PG          3.0122    4.9353   -5.3960 P.3       1 GTP        -1.1921
      2 O1G         1.9931    6.0482   -5.1740 O.co2     1 GTP         0.3195
      3 O2G         3.8486    5.0954   -6.6613 O.co2     1 GTP         0.3195
      4 O3G         3.8185    4.5645   -4.1556 O.co2     1 GTP         0.3195
      5 O3B         2.0931    3.6005   -5.6978 O.3       1 GTP         0.4672
      6 PB          0.9814    2.8617   -4.7841 P.3       1 GTP        -0.9715
      7 O1B         0.0777    3.7844   -4.0209 O.2       1 GTP         0.2707
      8 O2B         0.2325    1.8899   -5.8372 O.3       1 GTP         0.0326
      9 O3A         1.8527    1.8423   -3.8834 O.3       1 GTP         0.4672
     10 PA          2.8307    0.6109   -4.3192 P.3       1 GTP        -1.1062
     11 O1A         1.9827   -0.4755   -4.9441 O.co2     1 GTP         0.3195
     12 O2A         4.0294    1.1826   -5.0444 O.co2     1 GTP         0.3195
     13 O5'         3.2903    0.1346   -2.8241 O.3       1 GTP         0.1618
     14 C5'         2.2816   -0.2918   -1.9206 C.3       1 GTP         0.1504
     15 C4'         2.7248    0.0226   -0.4980 C.3       1 GTP         0.1111
     16 O4'         2.4697    1.4219   -0.2462 O.3       1 GTP        -0.1436
     17 C3'         1.9404   -0.7419    0.5596 C.3       1 GTP         0.1111
     18 O3'         2.7418   -0.8086    1.7389 O.3       1 GTP        -0.2728
     19 C2'         0.7477    0.1630    0.7858 C.3       1 GTP         0.1111
     20 O2'         0.1373   -0.0577    2.0407 O.3       1 GTP        -0.2728
     21 C1'         1.3733    1.5427    0.6747 C.3       1 GTP         0.2693
     22 N9          0.4520    2.5240    0.1767 N.pl3     1 GTP        -0.3222
     23 C8         -0.2009    2.4849   -0.9792 C.ar      1 GTP         0.1640
     24 N7         -0.9840    3.5454   -1.1481 N.pl3     1 GTP        -0.3688
     25 C5         -0.8090    4.3005   -0.0206 C.ar      1 GTP         0.0648
     26 C6         -1.4206    5.5724    0.3362 C.ar      1 GTP         0.3597
     27 O6         -2.2199    6.1544   -0.3836 O.2       1 GTP        -0.2755
     28 N1         -0.9680    6.0043    1.5817 N.pl3     1 GTP        -0.1604
     29 C2         -0.0474    5.3055    2.3814 C.ar      1 GTP         0.4468
     30 N2          0.2680    5.9024    3.5740 N.pl3     1 GTP        -0.5618
     31 N3          0.4755    4.1601    2.0138 N.2       1 GTP        -0.4283
     32 C4          0.0611    3.6981    0.8001 C.ar      1 GTP         0.2226
     33 HOB2        0.7689    1.2627   -6.3674 H         1 GTP         0.2010
     34 H5'         1.3514    0.2330   -2.1577 H         1 GTP        -0.0393
     35 H5''        2.1280   -1.3678   -2.0460 H         1 GTP        -0.0393
     36 H4'         3.8044   -0.1397   -0.4040 H         1 GTP        -0.0393
     37 H3'         1.6764   -1.7639    0.2728 H         1 GTP        -0.0393
     38 HO3'        3.5554   -1.2733    1.4914 H         1 GTP         0.2010
     39 H2'        -0.0011    0.0027    0.0003 H         1 GTP        -0.0393
     40 HO2'       -0.1563   -0.9855    2.0596 H         1 GTP         0.2010
     41 H1'         1.7826    1.9024    1.6451 H         1 GTP        -0.0393
     42 H8         -0.1126    1.6906   -1.6997 H         1 GTP         0.0000
     43 HN1        -1.3285    6.8855    1.9361 H         1 GTP         0.0865
     44 HN21        0.9153    5.4446    4.1732 H         1 GTP         0.2048
     45 HN22       -0.1624    6.7706    3.7948 H         1 GTP         0.2048
     46 H46        -1.5768    3.7405   -1.9429 H         1 GTP         0.2048
@<TRIPOS>BOND
     1    1    2 2
     2    1    3 1
     3    1    4 1
     4    1    5 1
     5    5    6 1
     6    6    7 2
     7    6    8 1
     8    6    9 1
     9    8   33 1
    10    9   10 1
    11   10   11 2
    12   10   12 1
    13   10   13 1
    14   13   14 1
    15   14   15 1
    16   14   34 1
    17   14   35 1
    18   15   16 1
    19   15   17 1
    20   15   36 1
    21   16   21 1
    22   17   18 1
    23   17   19 1
    24   17   37 1
    25   18   38 1
    26   19   20 1
    27   19   21 1
    28   19   39 1
    29   20   40 1
    30   21   22 1
    31   21   41 1
    32   22   23 ar
    33   22   32 ar
    34   23   24 ar
    35   23   42 1
    36   24   25 ar
    37   24   46 1
    38   25   26 ar
    39   25   32 ar
    40   26   27 2
    41   26   28 ar
    42   28   29 ar
    43   28   43 1
    44   29   30 1
    45   29   31 ar
    46   30   44 1
    47   30   45 1
    48   31   32 ar
@<TRIPOS>SUBSTRUCTURE
     1 GTP         1 GROUP 0 A     ****
@<TRIPOS>MOLECULE
[[[5-(2-amino-6-oxo-7,8-dihydro-1~{H}-purin-8-ylium-9-yl)-3,4-dihydroxy-tetrahydrofuran-2-yl]methoxy-oxido-phosphoryl]oxy-hydroxy-phosphoryl] phosphate
   46    48     1     0     0
SMALL
USER_CHARGES

@<TRIPOS>ATOM
      1 PG         -3.3659   -2.0503   -4.3572 P.3       1 GTP        -1.1921
      2 O1G        -3.5646   -0.8548   -5.2833 O.co2     1 GTP         0.3195
      3 O2G        -4.0604   -1.9177   -3.0058 O.co2     1 GTP         0.3195
      4 O3G        -3.5591   -3.4055   -5.0297 O.co2     1 GTP         0.3195
      5 O3B        -1.7615   -2.0077   -3.9813 O.3       1 GTP         0.4672
      6 PB         -0.4566   -2.0985   -4.9328 P.3       1 GTP        -0.9715
      7 O1B        -0.3461   -3.3626   -5.7331 O.2       1 GTP         0.2707
      8 O2B        -0.5499   -0.7426   -5.8085 O.3       1 GTP         0.0326
      9 O3A         0.7679   -1.8099   -3.9195 O.3       1 GTP         0.4672
     10 PA          1.2481   -2.6084   -2.5799 P.3       1 GTP        -1.1062
     11 O1A         0.1775   -2.4546   -1.5216 O.co2     1 GTP         0.3195
     12 O2A         1.7529   -3.9747   -2.9899 O.co2     1 GTP         0.3195
     13 O5'         2.5245   -1.6648   -2.1878 O.3       1 GTP         0.1618
     14 C5'         2.2816   -0.2918   -1.9206 C.3       1 GTP         0.1504
     15 C4'         2.7248    0.0226   -0.4980 C.3       1 GTP         0.1111
     16 O4'         2.4697    1.4219   -0.2462 O.3       1 GTP        -0.1436
     17 C3'         1.9404   -0.7419    0.5596 C.3       1 GTP         0.1111
     18 O3'         2.7418   -0.8086    1.7389 O.3       1 GTP        -0.2728
     19 C2'         0.7477    0.1630    0.7858 C.3       1 GTP         0.1111
     20 O2'         0.1373   -0.0577    2.0407 O.3       1 GTP        -0.2728
     21 C1'         1.3733    1.5427    0.6747 C.3       1 GTP         0.2693
     22 N9          0.4520    2.5240    0.1767 N.pl3     1 GTP        -0.3222
     23 C8          0.2203    2.8205   -1.0970 C.ar      1 GTP         0.1640
     24 N7         -0.6947    3.7752   -1.2304 N.pl3     1 GTP        -0.3688
     25 C5         -1.0607    4.0987    0.0476 C.ar      1 GTP         0.0648
     26 C6         -2.0310    5.0839    0.5029 C.ar      1 GTP         0.3597
     27 O6         -2.6779    5.7867   -0.2609 O.2       1 GTP        -0.2755
     28 N1         -2.1030    5.0975    1.8948 N.pl3     1 GTP        -0.1604
     29 C2         -1.3422    4.2721    2.7403 C.ar      1 GTP         0.4468
     30 N2         -1.5624    4.4419    4.0823 N.pl3     1 GTP        -0.5618
     31 N3         -0.4796    3.3981    2.2792 N.2       1 GTP        -0.4283
     32 C4         -0.3754    3.3496    0.9208 C.ar      1 GTP         0.2226
     33 HOB2       -1.2953   -0.6346   -6.4369 H         1 GTP         0.2010
     34 H5'         2.8432    0.3119   -2.6398 H         1 GTP        -0.0393
     35 H5''        1.2128   -0.0927   -2.0428 H         1 GTP        -0.0393
     36 H4'         3.8044   -0.1397   -0.4040 H         1 GTP        -0.0393
     37 H3'         1.6764   -1.7639    0.2728 H         1 GTP        -0.0393
     38 HO3'        2.2232   -1.2979    2.3953 H         1 GTP         0.2010
     39 H2'        -0.0011    0.0027    0.0003 H         1 GTP        -0.0393
     40 HO2'       -0.1563   -0.9855    2.0596 H         1 GTP         0.2010
     41 H1'         1.7826    1.9024    1.6451 H         1 GTP        -0.0393
     42 H8          0.7110    2.3472   -1.9295 H         1 GTP         0.0000
     43 HN1        -2.7504    5.7495    2.3282 H         1 GTP         0.0865
     44 HN21       -1.0467    3.8796    4.7190 H         1 GTP         0.2048
     45 HN22       -2.2294    5.1209    4.3680 H         1 GTP         0.2048
     46 H46        -1.0382    4.1687   -2.0954 H         1 GTP         0.2048
@<TRIPOS>BOND
     1    1    2 2
     2    1    3 1
     3    1    4 1
     4    1    5 1
     5    5    6 1
     6    6    7 2
     7    6    8 1
     8    6    9 1
     9    8   33 1
    10    9   10 1
    11   10   11 2
    12   10   12 1
    13   10   13 1
    14   13   14 1
    15   14   15 1
    16   14   34 1
    17   14   35 1
    18   15   16 1
    19   15   17 1
    20   15   36 1
    21   16   21 1
    22   17   18 1
    23   17   19 1
    24   17   37 1
    25   18   38 1
    26   19   20 1
    27   19   21 1
    28   19   39 1
    29   20   40 1
    30   21   22 1
    31   21   41 1
    32   22   23 ar
    33   22   32 ar
    34   23   24 ar
    35   23   42 1
    36   24   25 ar
    37   24   46 1
    38   25   26 ar
    39   25   32 ar
    40   26   27 2
    41   26   28 ar
    42   28   29 ar
    43   28   43 1
    44   29   30 1
    45   29   31 ar
    46   30   44 1
    47   30   45 1
    48   31   32 ar
@<TRIPOS>SUBSTRUCTURE
     1 GTP         1 GROUP 0 A     ****
@<TRIPOS>MOLECULE
[[[5-(2-amino-6-oxo-7,8-dihydro-1~{H}-purin-8-ylium-9-yl)-3,4-dihydroxy-tetrahydrofuran-2-yl]methoxy-oxido-phosphoryl]oxy-hydroxy-phosphoryl] phosphate
   46    48     1     0     0
SMALL
USER_CHARGES

@<TRIPOS>ATOM
      1 PG          3.8775   -5.5999    3.7785 P.3       1 GTP        -1.1921
      2 O1G         4.2409   -4.7028    2.5998 O.co2     1 GTP         0.3195
      3 O2G         5.0776   -6.2194    4.4873 O.co2     1 GTP         0.3195
      4 O3G         2.8315   -5.0099    4.7187 O.co2     1 GTP         0.3195
      5 O3B         3.1203   -6.8899    3.0858 O.3       1 GTP         0.4672
      6 PB          1.7801   -6.9611    2.1829 P.3       1 GTP        -0.9715
      7 O1B         1.8355   -6.1716    0.9084 O.2       1 GTP         0.2707
      8 O2B         1.5543   -8.5506    1.9916 O.3       1 GTP         0.0326
      9 O3A         0.6105   -6.5349    3.2124 O.3       1 GTP         0.4672
     10 PA         -0.9993   -6.3890    2.9889 P.3       1 GTP        -1.1062
     11 O1A        -1.5197   -7.6818    2.3994 O.co2     1 GTP         0.3195
     12 O2A        -1.6072   -5.8000    4.2432 O.co2     1 GTP         0.3195
     13 O5'        -0.9724   -5.2440    1.8220 O.3       1 GTP         0.1618
     14 C5'        -0.7840   -3.8935    2.2172 C.3       1 GTP         0.1504
     15 C4'        -0.0724   -3.1466    1.1027 C.3       1 GTP         0.1111
     16 O4'        -0.8674   -3.1929   -0.0945 O.3       1 GTP        -0.1436
     17 C3'         0.1338   -1.6715    1.4027 C.3       1 GTP         0.1111
     18 O3'         1.2893   -1.4445    2.1808 O.3       1 GTP        -0.2728
     19 C2'         0.2158   -1.0724    0.0128 C.3       1 GTP         0.1111
     20 O2'         1.5141   -1.2448   -0.5513 O.3       1 GTP        -0.2728
     21 C1'        -0.7897   -1.9176   -0.7583 C.3       1 GTP         0.2693
     22 N9         -2.1040   -1.3333   -0.7704 N.pl3     1 GTP        -0.3222
     23 C8         -3.0597   -1.5109    0.1345 C.ar      1 GTP         0.1640
     24 N7         -4.1618   -0.8291   -0.1607 N.pl3     1 GTP        -0.3688
     25 C5         -3.8764   -0.1805   -1.3310 C.ar      1 GTP         0.0648
     26 C6         -4.7187    0.7111   -2.1152 C.ar      1 GTP         0.3597
     27 O6         -5.8617    1.0043   -1.7939 O.2       1 GTP        -0.2755
     28 N1         -4.0405    1.1608   -3.2468 N.pl3     1 GTP        -0.1604
     29 C2         -2.7239    0.8013   -3.5822 C.ar      1 GTP         0.4468
     30 N2         -2.2399    1.3534   -4.7394 N.pl3     1 GTP        -0.5618
     31 N3         -2.0053   -0.0071   -2.8402 N.2       1 GTP        -0.4283
     32 C4         -2.6290   -0.4727   -1.7210 C.ar      1 GTP         0.2226
     33 HOB2        0.7414   -8.8628    1.5400 H         1 GTP         0.2010
     34 H5'        -1.7618   -3.4448    2.4164 H         1 GTP        -0.0393
     35 H5''       -0.1874   -3.8744    3.1341 H         1 GTP        -0.0393
     36 H4'         0.8874   -3.6466    0.8805 H         1 GTP        -0.0393
     37 H3'        -0.7376   -1.2333    1.9867 H         1 GTP        -0.0393
     38 HO3'        1.1626   -1.9325    3.0084 H         1 GTP         0.2010
     39 H2'        -0.0384   -0.0310    0.0096 H         1 GTP        -0.0393
     40 HO2'        2.1463   -0.7958    0.0370 H         1 GTP         0.2010
     41 H1'        -0.4769   -2.1002   -1.8093 H         1 GTP        -0.0393
     42 H8         -2.9610   -2.1316    1.0079 H         1 GTP         0.0000
     43 HN1        -4.5320    1.7923   -3.8726 H         1 GTP         0.0865
     44 HN21       -1.3128    1.1277   -5.0171 H         1 GTP         0.2048
     45 HN22       -2.8342    1.9586   -5.2572 H         1 GTP         0.2048
     46 H46        -5.0195   -0.8034    0.3729 H         1 GTP         0.2048
@<TRIPOS>BOND
     1    1    2 2
     2    1    3 1
     3    1    4 1
     4    1    5 1
     5    5    6 1
     6    6    7 2
     7    6    8 1
     8    6    9 1
     9    8   33 1
    10    9   10 1
    11   10   11 2
    12   10   12 1
    13   10   13 1
    14   13   14 1
    15   14   15 1
    16   14   34 1
    17   14   35 1
    18   15   16 1
    19   15   17 1
    20   15   36 1
    21   16   21 1
    22   17   18 1
    23   17   19 1
    24   17   37 1
    25   18   38 1
    26   19   20 1
    27   19   21 1
    28   19   39 1
    29   20   40 1
    30   21   22 1
    31   21   41 1
    32   22   23 ar
    33   22   32 ar
    34   23   24 ar
    35   23   42 1
    36   24   25 ar
    37   24   46 1
    38   25   26 ar
    39   25   32 ar
    40   26   27 2
    41   26   28 ar
    42   28   29 ar
    43   28   43 1
    44   29   30 1
    45   29   31 ar
    46   30   44 1
    47   30   45 1
    48   31   32 ar
@<TRIPOS>SUBSTRUCTURE
     1 GTP         1 GROUP 0 A     ****
@<TRIPOS>MOLECULE
[[[5-(2-amino-6-oxo-7,8-dihydro-1~{H}-purin-8-ylium-9-yl)-3,4-dihydroxy-tetrahydrofuran-2-yl]methoxy-oxido-phosphoryl]oxy-hydroxy-phosphoryl] phosphate
   46    48     1     0     0
SMALL
USER_CHARGES

@<TRIPOS>ATOM
      1 PG          2.6741   -2.0777   -8.7272 P.3       1 GTP        -1.1921
      2 O1G         2.0075   -3.4443   -8.6068 O.co2     1 GTP         0.3195
      3 O2G         4.1573   -2.1332   -9.0783 O.co2     1 GTP         0.3195
      4 O3G         1.8774   -1.0586   -9.5351 O.co2     1 GTP         0.3195
      5 O3B         2.6553   -1.4825   -7.1900 O.3       1 GTP         0.4672
      6 PB          1.4153   -1.1663   -6.2008 P.3       1 GTP        -0.9715
      7 O1B         0.4363   -0.1549   -6.7198 O.2       1 GTP         0.2707
      8 O2B         0.7951   -2.6318   -5.9149 O.3       1 GTP         0.0326
      9 O3A         2.1354   -0.7826   -4.8066 O.3       1 GTP         0.4672
     10 PA          2.8307    0.6109   -4.3192 P.3       1 GTP        -1.1062
     11 O1A         4.0646    0.8503   -5.1617 O.co2     1 GTP         0.3195
     12 O2A         1.7538    1.6661   -4.1908 O.co2     1 GTP         0.3195
     13 O5'         3.2903    0.1346   -2.8241 O.3       1 GTP         0.1618
     14 C5'         2.2816   -0.2918   -1.9206 C.3       1 GTP         0.1504
     15 C4'         2.7248    0.0226   -0.4980 C.3       1 GTP         0.1111
     16 O4'         2.4697    1.4219   -0.2462 O.3       1 GTP        -0.1436
     17 C3'         1.9404   -0.7419    0.5596 C.3       1 GTP         0.1111
     18 O3'         2.7418   -0.8086    1.7389 O.3       1 GTP        -0.2728
     19 C2'         0.7477    0.1630    0.7858 C.3       1 GTP         0.1111
     20 O2'         0.1373   -0.0577    2.0407 O.3       1 GTP        -0.2728
     21 C1'         1.3733    1.5427    0.6747 C.3       1 GTP         0.2693
     22 N9          0.4520    2.5240    0.1767 N.pl3     1 GTP        -0.3222
     23 C8         -0.2009    2.4849   -0.9792 C.ar      1 GTP         0.1640
     24 N7         -0.9840    3.5454   -1.1481 N.pl3     1 GTP        -0.3688
     25 C5         -0.8090    4.3005   -0.0206 C.ar      1 GTP         0.0648
     26 C6         -1.4206    5.5724    0.3362 C.ar      1 GTP         0.3597
     27 O6         -2.2199    6.1544   -0.3836 O.2       1 GTP        -0.2755
     28 N1         -0.9680    6.0043    1.5817 N.pl3     1 GTP        -0.1604
     29 C2         -0.0474    5.3055    2.3814 C.ar      1 GTP         0.4468
     30 N2          0.2680    5.9024    3.5740 N.pl3     1 GTP        -0.5618
     31 N3          0.4755    4.1601    2.0138 N.2       1 GTP        -0.4283
     32 C4          0.0611    3.6981    0.8001 C.ar      1 GTP         0.2226
     33 HOB2        0.0682   -2.7197   -5.2622 H         1 GTP         0.2010
     34 H5'         1.3514    0.2330   -2.1577 H         1 GTP        -0.0393
     35 H5''        2.1280   -1.3678   -2.0460 H         1 GTP        -0.0393
     36 H4'         3.8044   -0.1397   -0.4040 H         1 GTP        -0.0393
     37 H3'         1.6764   -1.7639    0.2728 H         1 GTP        -0.0393
     38 HO3'        3.5554   -1.2733    1.4914 H         1 GTP         0.2010
     39 H2'        -0.0011    0.0027    0.0003 H         1 GTP        -0.0393
     40 HO2'       -0.1563   -0.9855    2.0596 H         1 GTP         0.2010
     41 H1'         1.7826    1.9024    1.6451 H         1 GTP        -0.0393
     42 H8         -0.1126    1.6906   -1.6997 H         1 GTP         0.0000
     43 HN1        -1.3285    6.8855    1.9361 H         1 GTP         0.0865
     44 HN21        0.9153    5.4446    4.1732 H         1 GTP         0.2048
     45 HN22       -0.1624    6.7706    3.7948 H         1 GTP         0.2048
     46 H46        -1.5768    3.7405   -1.9429 H         1 GTP         0.2048
@<TRIPOS>BOND
     1    1    2 2
     2    1    3 1
     3    1    4 1
     4    1    5 1
     5    5    6 1
     6    6    7 2
     7    6    8 1
     8    6    9 1
     9    8   33 1
    10    9   10 1
    11   10   11 2
    12   10   12 1
    13   10   13 1
    14   13   14 1
    15   14   15 1
    16   14   34 1
    17   14   35 1
    18   15   16 1
    19   15   17 1
    20   15   36 1
    21   16   21 1
    22   17   18 1
    23   17   19 1
    24   17   37 1
    25   18   38 1
    26   19   20 1
    27   19   21 1
    28   19   39 1
    29   20   40 1
    30   21   22 1
    31   21   41 1
    32   22   23 ar
    33   22   32 ar
    34   23   24 ar
    35   23   42 1
    36   24   25 ar
    37   24   46 1
    38   25   26 ar
    39   25   32 ar
    40   26   27 2
    41   26   28 ar
    42   28   29 ar
    43   28   43 1
    44   29   30 1
    45   29   31 ar
    46   30   44 1
    47   30   45 1
    48   31   32 ar
@<TRIPOS>SUBSTRUCTURE
     1 GTP         1 GROUP 0 A     ****
@<TRIPOS>MOLECULE
[[[5-(2-amino-6-oxo-7,8-dihydro-1~{H}-purin-8-ylium-9-yl)-3,4-dihydroxy-tetrahydrofuran-2-yl]methoxy-oxido-phosphoryl]oxy-hydroxy-phosphoryl] phosphate
   46    48     1     0     0
SMALL
USER_CHARGES

@<TRIPOS>ATOM
      1 PG          3.8104   -3.7565   -7.3043 P.3       1 GTP        -1.1921
      2 O1G         4.9937   -3.1915   -8.0833 O.co2     1 GTP         0.3195
      3 O2G         2.4579   -3.5389   -7.9749 O.co2     1 GTP         0.3195
      4 O3G         4.0250   -5.1696   -6.7722 O.co2     1 GTP         0.3195
      5 O3B         3.7339   -2.8193   -5.9503 O.3       1 GTP         0.4672
      6 PB          4.8222   -2.5745   -4.7790 P.3       1 GTP        -0.9715
      7 O1B         5.2338   -3.8089   -4.0323 O.2       1 GTP         0.2707
      8 O2B         6.0214   -1.8119   -5.5501 O.3       1 GTP         0.0326
      9 O3A         4.1516   -1.4116   -3.8803 O.3       1 GTP         0.4672
     10 PA          3.3181   -0.0790   -4.3186 P.3       1 GTP        -1.1062
     11 O1A         4.2597    0.8575   -5.0438 O.co2     1 GTP         0.3195
     12 O2A         2.0109   -0.5139   -4.9444 O.co2     1 GTP         0.3195
     13 O5'         3.0213    0.5153   -2.8245 O.3       1 GTP         0.1618
     14 C5'         2.2816   -0.2918   -1.9206 C.3       1 GTP         0.1504
     15 C4'         2.7248    0.0226   -0.4980 C.3       1 GTP         0.1111
     16 O4'         2.4697    1.4219   -0.2462 O.3       1 GTP        -0.1436
     17 C3'         1.9404   -0.7419    0.5596 C.3       1 GTP         0.1111
     18 O3'         2.7418   -0.8086    1.7389 O.3       1 GTP        -0.2728
     19 C2'         0.7477    0.1630    0.7858 C.3       1 GTP         0.1111
     20 O2'         0.1373   -0.0577    2.0407 O.3       1 GTP        -0.2728
     21 C1'         1.3733    1.5427    0.6747 C.3       1 GTP         0.2693
     22 N9          0.4520    2.5240    0.1767 N.pl3     1 GTP        -0.3222
     23 C8         -0.2009    2.4849   -0.9792 C.ar      1 GTP         0.1640
     24 N7         -0.9840    3.5454   -1.1481 N.pl3     1 GTP        -0.3688
     25 C5         -0.8090    4.3005   -0.0206 C.ar      1 GTP         0.0648
     26 C6         -1.4206    5.5724    0.3362 C.ar      1 GTP         0.3597
     27 O6         -2.2199    6.1544   -0.3836 O.2       1 GTP        -0.2755
     28 N1         -0.9680    6.0043    1.5817 N.pl3     1 GTP        -0.1604
     29 C2         -0.0474    5.3055    2.3814 C.ar      1 GTP         0.4468
     30 N2          0.2680    5.9024    3.5740 N.pl3     1 GTP        -0.5618
     31 N3          0.4755    4.1601    2.0138 N.2       1 GTP        -0.4283
     32 C4          0.0611    3.6981    0.8001 C.ar      1 GTP         0.2226
     33 HOB2        6.5216   -2.2941   -6.2425 H         1 GTP         0.2010
     34 H5'         1.2163   -0.0770   -2.0471 H         1 GTP        -0.0393
     35 H5''        2.4655   -1.3443   -2.1563 H         1 GTP        -0.0393
     36 H4'         3.8044   -0.1397   -0.4040 H         1 GTP        -0.0393
     37 H3'         1.6764   -1.7639    0.2728 H         1 GTP        -0.0393
     38 HO3'        2.2232   -1.2979    2.3953 H         1 GTP         0.2010
     39 H2'        -0.0011    0.0027    0.0003 H         1 GTP        -0.0393
     40 HO2'       -0.6141    0.5574    2.1082 H         1 GTP         0.2010
     41 H1'         1.7826    1.9024    1.6451 H         1 GTP        -0.0393
     42 H8         -0.1126    1.6906   -1.6997 H         1 GTP         0.0000
     43 HN1        -1.3285    6.8855    1.9361 H         1 GTP         0.0865
     44 HN21        0.9153    5.4446    4.1732 H         1 GTP         0.2048
     45 HN22       -0.1624    6.7706    3.7948 H         1 GTP         0.2048
     46 H46        -1.5768    3.7405   -1.9429 H         1 GTP         0.2048
@<TRIPOS>BOND
     1    1    2 2
     2    1    3 1
     3    1    4 1
     4    1    5 1
     5    5    6 1
     6    6    7 2
     7    6    8 1
     8    6    9 1
     9    8   33 1
    10    9   10 1
    11   10   11 2
    12   10   12 1
    13   10   13 1
    14   13   14 1
    15   14   15 1
    16   14   34 1
    17   14   35 1
    18   15   16 1
    19   15   17 1
    20   15   36 1
    21   16   21 1
    22   17   18 1
    23   17   19 1
    24   17   37 1
    25   18   38 1
    26   19   20 1
    27   19   21 1
    28   19   39 1
    29   20   40 1
    30   21   22 1
    31   21   41 1
    32   22   23 ar
    33   22   32 ar
    34   23   24 ar
    35   23   42 1
    36   24   25 ar
    37   24   46 1
    38   25   26 ar
    39   25   32 ar
    40   26   27 2
    41   26   28 ar
    42   28   29 ar
    43   28   43 1
    44   29   30 1
    45   29   31 ar
    46   30   44 1
    47   30   45 1
    48   31   32 ar
@<TRIPOS>SUBSTRUCTURE
     1 GTP         1 GROUP 0 A     ****
@<TRIPOS>MOLECULE
[[[5-(2-amino-6-oxo-7,8-dihydro-1~{H}-purin-8-ylium-9-yl)-3,4-dihydroxy-tetrahydrofuran-2-yl]methoxy-oxido-phosphoryl]oxy-hydroxy-phosphoryl] phosphate
   46    48     1     0     0
SMALL
USER_CHARGES

@<TRIPOS>ATOM
      1 PG         -7.0579   -4.3426    3.8628 P.3       1 GTP        -1.1921
      2 O1G        -7.7757   -5.5414    3.2513 O.co2     1 GTP         0.3195
      3 O2G        -7.3995   -3.0078    3.2087 O.co2     1 GTP         0.3195
      4 O3G        -7.0696   -4.3135    5.3876 O.co2     1 GTP         0.3195
      5 O3B        -5.4738   -4.5784    3.4726 O.3       1 GTP         0.4672
      6 PB         -4.4711   -5.7938    3.8386 P.3       1 GTP        -0.9715
      7 O1B        -4.2539   -6.0120    5.3068 O.2       1 GTP         0.2707
      8 O2B        -5.1179   -7.0487    3.0506 O.3       1 GTP         0.0326
      9 O3A        -3.1429   -5.4553    2.9838 O.3       1 GTP         0.4672
     10 PA         -1.7238   -6.2523    2.8671 P.3       1 GTP        -1.1062
     11 O1A        -1.0248   -6.1837    4.2074 O.co2     1 GTP         0.3195
     12 O2A        -1.9720   -7.5777    2.1807 O.co2     1 GTP         0.3195
     13 O5'        -0.9724   -5.2440    1.8220 O.3       1 GTP         0.1618
     14 C5'        -0.7840   -3.8935    2.2172 C.3       1 GTP         0.1504
     15 C4'        -0.0724   -3.1466    1.1027 C.3       1 GTP         0.1111
     16 O4'        -0.8674   -3.1929   -0.0945 O.3       1 GTP        -0.1436
     17 C3'         0.1338   -1.6715    1.4027 C.3       1 GTP         0.1111
     18 O3'         1.2893   -1.4445    2.1808 O.3       1 GTP        -0.2728
     19 C2'         0.2158   -1.0724    0.0128 C.3       1 GTP         0.1111
     20 O2'         1.5141   -1.2448   -0.5513 O.3       1 GTP        -0.2728
     21 C1'        -0.7897   -1.9176   -0.7583 C.3       1 GTP         0.2693
     22 N9         -2.1040   -1.3333   -0.7704 N.pl3     1 GTP        -0.3222
     23 C8         -3.0597   -1.5109    0.1345 C.ar      1 GTP         0.1640
     24 N7         -4.1618   -0.8291   -0.1607 N.pl3     1 GTP        -0.3688
     25 C5         -3.8764   -0.1805   -1.3310 C.ar      1 GTP         0.0648
     26 C6         -4.7187    0.7111   -2.1152 C.ar      1 GTP         0.3597
     27 O6         -5.8617    1.0043   -1.7939 O.2       1 GTP        -0.2755
     28 N1         -4.0405    1.1608   -3.2468 N.pl3     1 GTP        -0.1604
     29 C2         -2.7239    0.8013   -3.5822 C.ar      1 GTP         0.4468
     30 N2         -2.2399    1.3534   -4.7394 N.pl3     1 GTP        -0.5618
     31 N3         -2.0053   -0.0071   -2.8402 N.2       1 GTP        -0.4283
     32 C4         -2.6290   -0.4727   -1.7210 C.ar      1 GTP         0.2226
     33 HOB2       -6.0002   -7.3773    3.3257 H         1 GTP         0.2010
     34 H5'        -1.7618   -3.4448    2.4164 H         1 GTP        -0.0393
     35 H5''       -0.1874   -3.8744    3.1341 H         1 GTP        -0.0393
     36 H4'         0.8874   -3.6466    0.8805 H         1 GTP        -0.0393
     37 H3'        -0.7376   -1.2333    1.9867 H         1 GTP        -0.0393
     38 HO3'        1.1626   -1.9325    3.0084 H         1 GTP         0.2010
     39 H2'        -0.0384   -0.0310    0.0096 H         1 GTP        -0.0393
     40 HO2'        2.1463   -0.7958    0.0370 H         1 GTP         0.2010
     41 H1'        -0.4769   -2.1002   -1.8093 H         1 GTP        -0.0393
     42 H8         -2.9610   -2.1316    1.0079 H         1 GTP         0.0000
     43 HN1        -4.5320    1.7923   -3.8726 H         1 GTP         0.0865
     44 HN21       -1.3128    1.1277   -5.0171 H         1 GTP         0.2048
     45 HN22       -2.8342    1.9586   -5.2572 H         1 GTP         0.2048
     46 H46        -5.0195   -0.8034    0.3729 H         1 GTP         0.2048
@<TRIPOS>BOND
     1    1    2 2
     2    1    3 1
     3    1    4 1
     4    1    5 1
     5    5    6 1
     6    6    7 2
     7    6    8 1
     8    6    9 1
     9    8   33 1
    10    9   10 1
    11   10   11 2
    12   10   12 1
    13   10   13 1
    14   13   14 1
    15   14   15 1
    16   14   34 1
    17   14   35 1
    18   15   16 1
    19   15   17 1
    20   15   36 1
    21   16   21 1
    22   17   18 1
    23   17   19 1
    24   17   37 1
    25   18   38 1
    26   19   20 1
    27   19   21 1
    28   19   39 1
    29   20   40 1
    30   21   22 1
    31   21   41 1
    32   22   23 ar
    33   22   32 ar
    34   23   24 ar
    35   23   42 1
    36   24   25 ar
    37   24   46 1
    38   25   26 ar
    39   25   32 ar
    40   26   27 2
    41   26   28 ar
    42   28   29 ar
    43   28   43 1
    44   29   30 1
    45   29   31 ar
    46   30   44 1
    47   30   45 1
    48   31   32 ar
@<TRIPOS>SUBSTRUCTURE
     1 GTP         1 GROUP 0 A     ****
@<TRIPOS>MOLECULE
[[[5-(2-amino-6-oxo-7,8-dihydro-1~{H}-purin-8-ylium-9-yl)-3,4-dihydroxy-tetrahydrofuran-2-yl]methoxy-oxido-phosphoryl]oxy-hydroxy-phosphoryl] phosphate
   46    48     1     0     0
SMALL
USER_CHARGES

@<TRIPOS>ATOM
      1 PG          3.9267   -1.5690   -8.6729 P.3       1 GTP        -1.1921
      2 O1G         5.0391   -2.5893   -8.4543 O.co2     1 GTP         0.3195
      3 O2G         4.3981   -0.2467   -9.2692 O.co2     1 GTP         0.3195
      4 O3G         2.6713   -2.1378   -9.3260 O.co2     1 GTP         0.3195
      5 O3B         3.4449   -1.1643   -7.1492 O.3       1 GTP         0.4672
      6 PB          2.8348   -2.0785   -5.9625 P.3       1 GTP        -0.9715
      7 O1B         1.5499   -2.7755   -6.3001 O.2       1 GTP         0.2707
      8 O2B         4.0652   -3.0589   -5.5894 O.3       1 GTP         0.0326
      9 O3A         2.7650   -1.0656   -4.7061 O.3       1 GTP         0.4672
     10 PA          3.9458   -0.2356   -3.9447 P.3       1 GTP        -1.1062
     11 O1A         4.8553   -1.2258   -3.2504 O.co2     1 GTP         0.3195
     12 O2A         4.4992    0.7987   -4.9005 O.co2     1 GTP         0.3195
     13 O5'         3.0213    0.5153   -2.8245 O.3       1 GTP         0.1618
     14 C5'         2.2816   -0.2918   -1.9206 C.3       1 GTP         0.1504
     15 C4'         2.7248    0.0226   -0.4980 C.3       1 GTP         0.1111
     16 O4'         2.4697    1.4219   -0.2462 O.3       1 GTP        -0.1436
     17 C3'         1.9404   -0.7419    0.5596 C.3       1 GTP         0.1111
     18 O3'         2.7418   -0.8086    1.7389 O.3       1 GTP        -0.2728
     19 C2'         0.7477    0.1630    0.7858 C.3       1 GTP         0.1111
     20 O2'         0.1373   -0.0577    2.0407 O.3       1 GTP        -0.2728
     21 C1'         1.3733    1.5427    0.6747 C.3       1 GTP         0.2693
     22 N9          0.4520    2.5240    0.1767 N.pl3     1 GTP        -0.3222
     23 C8         -0.2009    2.4849   -0.9792 C.ar      1 GTP         0.1640
     24 N7         -0.9840    3.5454   -1.1481 N.pl3     1 GTP        -0.3688
     25 C5         -0.8090    4.3005   -0.0206 C.ar      1 GTP         0.0648
     26 C6         -1.4206    5.5724    0.3362 C.ar      1 GTP         0.3597
     27 O6         -2.2199    6.1544   -0.3836 O.2       1 GTP        -0.2755
     28 N1         -0.9680    6.0043    1.5817 N.pl3     1 GTP        -0.1604
     29 C2         -0.0474    5.3055    2.3814 C.ar      1 GTP         0.4468
     30 N2          0.2680    5.9024    3.5740 N.pl3     1 GTP        -0.5618
     31 N3          0.4755    4.1601    2.0138 N.2       1 GTP        -0.4283
     32 C4          0.0611    3.6981    0.8001 C.ar      1 GTP         0.2226
     33 HOB2        3.9723   -3.6659   -4.8245 H         1 GTP         0.2010
     34 H5'         1.2163   -0.0770   -2.0471 H         1 GTP        -0.0393
     35 H5''        2.4655   -1.3443   -2.1563 H         1 GTP        -0.0393
     36 H4'         3.8044   -0.1397   -0.4040 H         1 GTP        -0.0393
     37 H3'         1.6764   -1.7639    0.2728 H         1 GTP        -0.0393
     38 HO3'        2.2232   -1.2979    2.3953 H         1 GTP         0.2010
     39 H2'        -0.0011    0.0027    0.0003 H         1 GTP        -0.0393
     40 HO2'       -0.6141    0.5574    2.1082 H         1 GTP         0.2010
     41 H1'         1.7826    1.9024    1.6451 H         1 GTP        -0.0393
     42 H8         -0.1126    1.6906   -1.6997 H         1 GTP         0.0000
     43 HN1        -1.3285    6.8855    1.9361 H         1 GTP         0.0865
     44 HN21        0.9153    5.4446    4.1732 H         1 GTP         0.2048
     45 HN22       -0.1624    6.7706    3.7948 H         1 GTP         0.2048
     46 H46        -1.5768    3.7405   -1.9429 H         1 GTP         0.2048
@<TRIPOS>BOND
     1    1    2 2
     2    1    3 1
     3    1    4 1
     4    1    5 1
     5    5    6 1
     6    6    7 2
     7    6    8 1
     8    6    9 1
     9    8   33 1
    10    9   10 1
    11   10   11 2
    12   10   12 1
    13   10   13 1
    14   13   14 1
    15   14   15 1
    16   14   34 1
    17   14   35 1
    18   15   16 1
    19   15   17 1
    20   15   36 1
    21   16   21 1
    22   17   18 1
    23   17   19 1
    24   17   37 1
    25   18   38 1
    26   19   20 1
    27   19   21 1
    28   19   39 1
    29   20   40 1
    30   21   22 1
    31   21   41 1
    32   22   23 ar
    33   22   32 ar
    34   23   24 ar
    35   23   42 1
    36   24   25 ar
    37   24   46 1
    38   25   26 ar
    39   25   32 ar
    40   26   27 2
    41   26   28 ar
    42   28   29 ar
    43   28   43 1
    44   29   30 1
    45   29   31 ar
    46   30   44 1
    47   30   45 1
    48   31   32 ar
@<TRIPOS>SUBSTRUCTURE
     1 GTP         1 GROUP 0 A     ****
@<TRIPOS>MOLECULE
[[[5-(2-amino-6-oxo-7,8-dihydro-1~{H}-purin-8-ylium-9-yl)-3,4-dihydroxy-tetrahydrofuran-2-yl]methoxy-oxido-phosphoryl]oxy-hydroxy-phosphoryl] phosphate
   46    48     1     0     0
SMALL
USER_CHARGES

@<TRIPOS>ATOM
      1 PG          0.8161   -3.7823   -7.1463 P.3       1 GTP        -1.1921
      2 O1G        -0.6884   -3.5368   -7.0948 O.co2     1 GTP         0.3195
      3 O2G         1.2578   -5.0981   -6.5139 O.co2     1 GTP         0.3195
      4 O3G         1.4542   -3.4940   -8.5012 O.co2     1 GTP         0.3195
      5 O3B         1.4472   -2.6335   -6.1467 O.3       1 GTP         0.4672
      6 PB          1.3669   -1.0195   -6.2182 P.3       1 GTP        -0.9715
      7 O1B         1.9498   -0.4133   -7.4604 O.2       1 GTP         0.2707
      8 O2B        -0.2057   -0.7230   -5.9874 O.3       1 GTP         0.0326
      9 O3A         2.0474   -0.5479   -4.8311 O.3       1 GTP         0.4672
     10 PA          2.3065    0.9470   -4.2302 P.3       1 GTP        -1.1062
     11 O1A         3.3234    1.6453   -5.1065 O.co2     1 GTP         0.3195
     12 O2A         0.9669    1.5820   -3.9271 O.co2     1 GTP         0.3195
     13 O5'         3.0213    0.5153   -2.8245 O.3       1 GTP         0.1618
     14 C5'         2.2816   -0.2918   -1.9206 C.3       1 GTP         0.1504
     15 C4'         2.7248    0.0226   -0.4980 C.3       1 GTP         0.1111
     16 O4'         2.4697    1.4219   -0.2462 O.3       1 GTP        -0.1436
     17 C3'         1.9404   -0.7419    0.5596 C.3       1 GTP         0.1111
     18 O3'         2.7418   -0.8086    1.7389 O.3       1 GTP        -0.2728
     19 C2'         0.7477    0.1630    0.7858 C.3       1 GTP         0.1111
     20 O2'         0.1373   -0.0577    2.0407 O.3       1 GTP        -0.2728
     21 C1'         1.3733    1.5427    0.6747 C.3       1 GTP         0.2693
     22 N9          0.4520    2.5240    0.1767 N.pl3     1 GTP        -0.3222
     23 C8         -0.8613    2.5511    0.3730 C.ar      1 GTP         0.1640
     24 N7         -1.4346    3.5939   -0.2188 N.pl3     1 GTP        -0.3688
     25 C5         -0.4099    4.2657   -0.8276 C.ar      1 GTP         0.0648
     26 C6         -0.4554    5.4854   -1.6209 C.ar      1 GTP         0.3597
     27 O6         -1.4907    6.0944   -1.8508 O.2       1 GTP        -0.2755
     28 N1          0.8205    5.8357   -2.0593 N.pl3     1 GTP        -0.1604
     29 C2          1.9890    5.1091   -1.7730 C.ar      1 GTP         0.4468
     30 N2          3.1452    5.6230   -2.2997 N.pl3     1 GTP        -0.5618
     31 N3          1.9765    4.0139   -1.0514 N.2       1 GTP        -0.4283
     32 C4          0.7480    3.6324   -0.6003 C.ar      1 GTP         0.2226
     33 HOB2       -0.5051    0.2072   -5.9026 H         1 GTP         0.2010
     34 H5'         1.2163   -0.0770   -2.0471 H         1 GTP        -0.0393
     35 H5''        2.4655   -1.3443   -2.1563 H         1 GTP        -0.0393
     36 H4'         3.8044   -0.1397   -0.4040 H         1 GTP        -0.0393
     37 H3'         1.6764   -1.7639    0.2728 H         1 GTP        -0.0393
     38 HO3'        2.2232   -1.2979    2.3953 H         1 GTP         0.2010
     39 H2'        -0.0011    0.0027    0.0003 H         1 GTP        -0.0393
     40 HO2'       -0.1563   -0.9855    2.0596 H         1 GTP         0.2010
     41 H1'         1.7826    1.9024    1.6451 H         1 GTP        -0.0393
     42 H8         -1.4050    1.8187    0.9438 H         1 GTP         0.0000
     43 HN1         0.9121    6.6744   -2.6251 H         1 GTP         0.0865
     44 HN21        3.9971    5.1427   -2.1235 H         1 GTP         0.2048
     45 HN22        3.0881    6.4564   -2.8380 H         1 GTP         0.2048
     46 H46        -2.4173    3.8294   -0.2127 H         1 GTP         0.2048
@<TRIPOS>BOND
     1    1    2 2
     2    1    3 1
     3    1    4 1
     4    1    5 1
     5    5    6 1
     6    6    7 2
     7    6    8 1
     8    6    9 1
     9    8   33 1
    10    9   10 1
    11   10   11 2
    12   10   12 1
    13   10   13 1
    14   13   14 1
    15   14   15 1
    16   14   34 1
    17   14   35 1
    18   15   16 1
    19   15   17 1
    20   15   36 1
    21   16   21 1
    22   17   18 1
    23   17   19 1
    24   17   37 1
    25   18   38 1
    26   19   20 1
    27   19   21 1
    28   19   39 1
    29   20   40 1
    30   21   22 1
    31   21   41 1
    32   22   23 ar
    33   22   32 ar
    34   23   24 ar
    35   23   42 1
    36   24   25 ar
    37   24   46 1
    38   25   26 ar
    39   25   32 ar
    40   26   27 2
    41   26   28 ar
    42   28   29 ar
    43   28   43 1
    44   29   30 1
    45   29   31 ar
    46   30   44 1
    47   30   45 1
    48   31   32 ar
@<TRIPOS>SUBSTRUCTURE
     1 GTP         1 GROUP 0 A     ****
@<TRIPOS>MOLECULE
[[[5-(2-amino-6-oxo-7,8-dihydro-1~{H}-purin-8-ylium-9-yl)-3,4-dihydroxy-tetrahydrofuran-2-yl]methoxy-oxido-phosphoryl]oxy-hydroxy-phosphoryl] phosphate
   46    48     1     0     0
SMALL
USER_CHARGES

@<TRIPOS>ATOM
      1 PG          1.4270   -4.7060   -6.0080 P.3       1 GTP        -1.1921
      2 O1G         2.3619   -4.7453   -7.2125 O.co2     1 GTP         0.3195
      3 O2G        -0.0453   -4.9079   -6.3513 O.co2     1 GTP         0.3195
      4 O3G         1.9081   -5.5207   -4.8118 O.co2     1 GTP         0.3195
      5 O3B         1.5000   -3.1424   -5.4911 O.3       1 GTP         0.4672
      6 PB          2.7556   -2.2651   -4.9714 P.3       1 GTP        -0.9715
      7 O1B         3.4483   -2.8119   -3.7583 O.2       1 GTP         0.2707
      8 O2B         3.6837   -2.1419   -6.2896 O.3       1 GTP         0.0326
      9 O3A         2.1354   -0.7826   -4.8066 O.3       1 GTP         0.4672
     10 PA          2.8307    0.6109   -4.3192 P.3       1 GTP        -1.1062
     11 O1A         4.0646    0.8503   -5.1617 O.co2     1 GTP         0.3195
     12 O2A         1.7538    1.6661   -4.1908 O.co2     1 GTP         0.3195
     13 O5'         3.2903    0.1346   -2.8241 O.3       1 GTP         0.1618
     14 C5'         2.2816   -0.2918   -1.9206 C.3       1 GTP         0.1504
     15 C4'         2.7248    0.0226   -0.4980 C.3       1 GTP         0.1111
     16 O4'         2.4697    1.4219   -0.2462 O.3       1 GTP        -0.1436
     17 C3'         1.9404   -0.7419    0.5596 C.3       1 GTP         0.1111
     18 O3'         2.7418   -0.8086    1.7389 O.3       1 GTP        -0.2728
     19 C2'         0.7477    0.1630    0.7858 C.3       1 GTP         0.1111
     20 O2'         0.1373   -0.0577    2.0407 O.3       1 GTP        -0.2728
     21 C1'         1.3733    1.5427    0.6747 C.3       1 GTP         0.2693
     22 N9          0.4520    2.5240    0.1767 N.pl3     1 GTP        -0.3222
     23 C8         -0.2009    2.4849   -0.9792 C.ar      1 GTP         0.1640
     24 N7         -0.9840    3.5454   -1.1481 N.pl3     1 GTP        -0.3688
     25 C5         -0.8090    4.3005   -0.0206 C.ar      1 GTP         0.0648
     26 C6         -1.4206    5.5724    0.3362 C.ar      1 GTP         0.3597
     27 O6         -2.2199    6.1544   -0.3836 O.2       1 GTP        -0.2755
     28 N1         -0.9680    6.0043    1.5817 N.pl3     1 GTP        -0.1604
     29 C2         -0.0474    5.3055    2.3814 C.ar      1 GTP         0.4468
     30 N2          0.2680    5.9024    3.5740 N.pl3     1 GTP        -0.5618
     31 N3          0.4755    4.1601    2.0138 N.2       1 GTP        -0.4283
     32 C4          0.0611    3.6981    0.8001 C.ar      1 GTP         0.2226
     33 HOB2        4.4825   -1.5736   -6.2554 H         1 GTP         0.2010
     34 H5'         1.3514    0.2330   -2.1577 H         1 GTP        -0.0393
     35 H5''        2.1280   -1.3678   -2.0460 H         1 GTP        -0.0393
     36 H4'         3.8044   -0.1397   -0.4040 H         1 GTP        -0.0393
     37 H3'         1.6764   -1.7639    0.2728 H         1 GTP        -0.0393
     38 HO3'        2.2232   -1.2979    2.3953 H         1 GTP         0.2010
     39 H2'        -0.0011    0.0027    0.0003 H         1 GTP        -0.0393
     40 HO2'       -0.1563   -0.9855    2.0596 H         1 GTP         0.2010
     41 H1'         1.7826    1.9024    1.6451 H         1 GTP        -0.0393
     42 H8         -0.1126    1.6906   -1.6997 H         1 GTP         0.0000
     43 HN1        -1.3285    6.8855    1.9361 H         1 GTP         0.0865
     44 HN21        0.9153    5.4446    4.1732 H         1 GTP         0.2048
     45 HN22       -0.1624    6.7706    3.7948 H         1 GTP         0.2048
     46 H46        -1.5768    3.7405   -1.9429 H         1 GTP         0.2048
@<TRIPOS>BOND
     1    1    2 2
     2    1    3 1
     3    1    4 1
     4    1    5 1
     5    5    6 1
     6    6    7 2
     7    6    8 1
     8    6    9 1
     9    8   33 1
    10    9   10 1
    11   10   11 2
    12   10   12 1
    13   10   13 1
    14   13   14 1
    15   14   15 1
    16   14   34 1
    17   14   35 1
    18   15   16 1
    19   15   17 1
    20   15   36 1
    21   16   21 1
    22   17   18 1
    23   17   19 1
    24   17   37 1
    25   18   38 1
    26   19   20 1
    27   19   21 1
    28   19   39 1
    29   20   40 1
    30   21   22 1
    31   21   41 1
    32   22   23 ar
    33   22   32 ar
    34   23   24 ar
    35   23   42 1
    36   24   25 ar
    37   24   46 1
    38   25   26 ar
    39   25   32 ar
    40   26   27 2
    41   26   28 ar
    42   28   29 ar
    43   28   43 1
    44   29   30 1
    45   29   31 ar
    46   30   44 1
    47   30   45 1
    48   31   32 ar
@<TRIPOS>SUBSTRUCTURE
     1 GTP         1 GROUP 0 A     ****
@<TRIPOS>MOLECULE
[[[5-(2-amino-6-oxo-7,8-dihydro-1~{H}-purin-8-ylium-9-yl)-3,4-dihydroxy-tetrahydrofuran-2-yl]methoxy-oxido-phosphoryl]oxy-hydroxy-phosphoryl] phosphate
   46    48     1     0     0
SMALL
USER_CHARGES

@<TRIPOS>ATOM
      1 PG         -4.1162   -3.7477    5.8765 P.3       1 GTP        -1.1921
      2 O1G        -3.3719   -3.7381    7.2077 O.co2     1 GTP         0.3195
      3 O2G        -5.5847   -3.3482    5.9772 O.co2     1 GTP         0.3195
      4 O3G        -3.3633   -3.0801    4.7303 O.co2     1 GTP         0.3195
      5 O3B        -4.1695   -5.3405    5.4551 O.3       1 GTP         0.4672
      6 PB         -2.9743   -6.3952    5.1801 P.3       1 GTP        -0.9715
      7 O1B        -2.0534   -6.6221    6.3425 O.2       1 GTP         0.2707
      8 O2B        -3.7612   -7.7108    4.6661 O.3       1 GTP         0.0326
      9 O3A        -2.2731   -5.8272    3.8403 O.3       1 GTP         0.4672
     10 PA         -0.9993   -6.3890    2.9889 P.3       1 GTP        -1.1062
     11 O1A         0.2434   -6.2536    3.8416 O.co2     1 GTP         0.3195
     12 O2A        -1.3827   -7.7151    2.3692 O.co2     1 GTP         0.3195
     13 O5'        -0.9724   -5.2440    1.8220 O.3       1 GTP         0.1618
     14 C5'        -0.7840   -3.8935    2.2172 C.3       1 GTP         0.1504
     15 C4'        -0.0724   -3.1466    1.1027 C.3       1 GTP         0.1111
     16 O4'        -0.8674   -3.1929   -0.0945 O.3       1 GTP        -0.1436
     17 C3'         0.1338   -1.6715    1.4027 C.3       1 GTP         0.1111
     18 O3'         1.2893   -1.4445    2.1808 O.3       1 GTP        -0.2728
     19 C2'         0.2158   -1.0724    0.0128 C.3       1 GTP         0.1111
     20 O2'         1.5141   -1.2448   -0.5513 O.3       1 GTP        -0.2728
     21 C1'        -0.7897   -1.9176   -0.7583 C.3       1 GTP         0.2693
     22 N9         -2.1040   -1.3333   -0.7704 N.pl3     1 GTP        -0.3222
     23 C8         -3.0597   -1.5109    0.1345 C.ar      1 GTP         0.1640
     24 N7         -4.1618   -0.8291   -0.1607 N.pl3     1 GTP        -0.3688
     25 C5         -3.8764   -0.1805   -1.3310 C.ar      1 GTP         0.0648
     26 C6         -4.7187    0.7111   -2.1152 C.ar      1 GTP         0.3597
     27 O6         -5.8617    1.0043   -1.7939 O.2       1 GTP        -0.2755
     28 N1         -4.0405    1.1608   -3.2468 N.pl3     1 GTP        -0.1604
     29 C2         -2.7239    0.8013   -3.5822 C.ar      1 GTP         0.4468
     30 N2         -2.2399    1.3534   -4.7394 N.pl3     1 GTP        -0.5618
     31 N3         -2.0053   -0.0071   -2.8402 N.2       1 GTP        -0.4283
     32 C4         -2.6290   -0.4727   -1.7210 C.ar      1 GTP         0.2226
     33 HOB2       -4.3550   -8.1814    5.2891 H         1 GTP         0.2010
     34 H5'        -1.7618   -3.4448    2.4164 H         1 GTP        -0.0393
     35 H5''       -0.1874   -3.8744    3.1341 H         1 GTP        -0.0393
     36 H4'         0.8874   -3.6466    0.8805 H         1 GTP        -0.0393
     37 H3'        -0.7376   -1.2333    1.9867 H         1 GTP        -0.0393
     38 HO3'        1.3408   -0.4870    2.3219 H         1 GTP         0.2010
     39 H2'        -0.0384   -0.0310    0.0096 H         1 GTP        -0.0393
     40 HO2'        2.1463   -0.7958    0.0370 H         1 GTP         0.2010
     41 H1'        -0.4769   -2.1002   -1.8093 H         1 GTP        -0.0393
     42 H8         -2.9610   -2.1316    1.0079 H         1 GTP         0.0000
     43 HN1        -4.5320    1.7923   -3.8726 H         1 GTP         0.0865
     44 HN21       -1.3128    1.1277   -5.0171 H         1 GTP         0.2048
     45 HN22       -2.8342    1.9586   -5.2572 H         1 GTP         0.2048
     46 H46        -5.0195   -0.8034    0.3729 H         1 GTP         0.2048
@<TRIPOS>BOND
     1    1    2 2
     2    1    3 1
     3    1    4 1
     4    1    5 1
     5    5    6 1
     6    6    7 2
     7    6    8 1
     8    6    9 1
     9    8   33 1
    10    9   10 1
    11   10   11 2
    12   10   12 1
    13   10   13 1
    14   13   14 1
    15   14   15 1
    16   14   34 1
    17   14   35 1
    18   15   16 1
    19   15   17 1
    20   15   36 1
    21   16   21 1
    22   17   18 1
    23   17   19 1
    24   17   37 1
    25   18   38 1
    26   19   20 1
    27   19   21 1
    28   19   39 1
    29   20   40 1
    30   21   22 1
    31   21   41 1
    32   22   23 ar
    33   22   32 ar
    34   23   24 ar
    35   23   42 1
    36   24   25 ar
    37   24   46 1
    38   25   26 ar
    39   25   32 ar
    40   26   27 2
    41   26   28 ar
    42   28   29 ar
    43   28   43 1
    44   29   30 1
    45   29   31 ar
    46   30   44 1
    47   30   45 1
    48   31   32 ar
@<TRIPOS>SUBSTRUCTURE
     1 GTP         1 GROUP 0 A     ****
@<TRIPOS>MOLECULE
[[[5-(2-amino-6-oxo-7,8-dihydro-1~{H}-purin-8-ylium-9-yl)-3,4-dihydroxy-tetrahydrofuran-2-yl]methoxy-oxido-phosphoryl]oxy-hydroxy-phosphoryl] phosphate
   46    48     1     0     0
SMALL
USER_CHARGES

@<TRIPOS>ATOM
      1 PG          3.6235   -5.8117   -4.0776 P.3       1 GTP        -1.1921
      2 O1G         4.7615   -5.9190   -5.0874 O.co2     1 GTP         0.3195
      3 O2G         2.3797   -6.6127   -4.4485 O.co2     1 GTP         0.3195
      4 O3G         4.0565   -5.9660   -2.6234 O.co2     1 GTP         0.3195
      5 O3B         3.1298   -4.2430   -4.1908 O.3       1 GTP         0.4672
      6 PB          3.9386   -2.8658   -3.9342 P.3       1 GTP        -0.9715
      7 O1B         4.4881   -2.7059   -2.5475 O.2       1 GTP         0.2707
      8 O2B         5.0472   -2.8704   -5.1111 O.3       1 GTP         0.0326
      9 O3A         2.8955   -1.7248   -4.4028 O.3       1 GTP         0.4672
     10 PA          3.0383   -0.0994   -4.4226 P.3       1 GTP        -1.1062
     11 O1A         4.2986    0.2610   -5.1786 O.co2     1 GTP         0.3195
     12 O2A         1.7002    0.4960   -4.8028 O.co2     1 GTP         0.3195
     13 O5'         3.2903    0.1346   -2.8241 O.3       1 GTP         0.1618
     14 C5'         2.2816   -0.2918   -1.9206 C.3       1 GTP         0.1504
     15 C4'         2.7248    0.0226   -0.4980 C.3       1 GTP         0.1111
     16 O4'         2.4697    1.4219   -0.2462 O.3       1 GTP        -0.1436
     17 C3'         1.9404   -0.7419    0.5596 C.3       1 GTP         0.1111
     18 O3'         2.7418   -0.8086    1.7389 O.3       1 GTP        -0.2728
     19 C2'         0.7477    0.1630    0.7858 C.3       1 GTP         0.1111
     20 O2'         0.1373   -0.0577    2.0407 O.3       1 GTP        -0.2728
     21 C1'         1.3733    1.5427    0.6747 C.3       1 GTP         0.2693
     22 N9          0.4520    2.5240    0.1767 N.pl3     1 GTP        -0.3222
     23 C8          0.5671    3.2221   -0.9473 C.ar      1 GTP         0.1640
     24 N7         -0.4560    4.0508   -1.1290 N.pl3     1 GTP        -0.3688
     25 C5         -1.2671    3.8585   -0.0441 C.ar      1 GTP         0.0648
     26 C6         -2.5318    4.5014    0.2817 C.ar      1 GTP         0.3597
     27 O6         -3.0527    5.3493   -0.4293 O.2       1 GTP        -0.2755
     28 N1         -3.0357    4.0149    1.4868 N.pl3     1 GTP        -0.1604
     29 C2         -2.4069    3.0373    2.2768 C.ar      1 GTP         0.4468
     30 N2         -3.0679    2.6964    3.4278 N.pl3     1 GTP        -0.5618
     31 N3         -1.2653    2.4872    1.9379 N.2       1 GTP        -0.4283
     32 C4         -0.7342    2.9334    0.7643 C.ar      1 GTP         0.2226
     33 HOB2        5.7443   -3.5605   -5.1029 H         1 GTP         0.2010
     34 H5'         1.3514    0.2330   -2.1577 H         1 GTP        -0.0393
     35 H5''        2.1280   -1.3678   -2.0460 H         1 GTP        -0.0393
     36 H4'         3.8044   -0.1397   -0.4040 H         1 GTP        -0.0393
     37 H3'         1.6764   -1.7639    0.2728 H         1 GTP        -0.0393
     38 HO3'        3.5554   -1.2733    1.4914 H         1 GTP         0.2010
     39 H2'        -0.0011    0.0027    0.0003 H         1 GTP        -0.0393
     40 HO2'       -0.1563   -0.9855    2.0596 H         1 GTP         0.2010
     41 H1'         1.7826    1.9024    1.6451 H         1 GTP        -0.0393
     42 H8          1.3888    3.1325   -1.6361 H         1 GTP         0.0000
     43 HN1        -3.9188    4.3932    1.8170 H         1 GTP         0.0865
     44 HN21       -2.6609    2.0087    4.0186 H         1 GTP         0.2048
     45 HN22       -3.9293    3.1496    3.6283 H         1 GTP         0.2048
     46 H46        -0.5938    4.6820   -1.9060 H         1 GTP         0.2048
@<TRIPOS>BOND
     1    1    2 2
     2    1    3 1
     3    1    4 1
     4    1    5 1
     5    5    6 1
     6    6    7 2
     7    6    8 1
     8    6    9 1
     9    8   33 1
    10    9   10 1
    11   10   11 2
    12   10   12 1
    13   10   13 1
    14   13   14 1
    15   14   15 1
    16   14   34 1
    17   14   35 1
    18   15   16 1
    19   15   17 1
    20   15   36 1
    21   16   21 1
    22   17   18 1
    23   17   19 1
    24   17   37 1
    25   18   38 1
    26   19   20 1
    27   19   21 1
    28   19   39 1
    29   20   40 1
    30   21   22 1
    31   21   41 1
    32   22   23 ar
    33   22   32 ar
    34   23   24 ar
    35   23   42 1
    36   24   25 ar
    37   24   46 1
    38   25   26 ar
    39   25   32 ar
    40   26   27 2
    41   26   28 ar
    42   28   29 ar
    43   28   43 1
    44   29   30 1
    45   29   31 ar
    46   30   44 1
    47   30   45 1
    48   31   32 ar
@<TRIPOS>SUBSTRUCTURE
     1 GTP         1 GROUP 0 A     ****
@<TRIPOS>MOLECULE
[[[5-(2-amino-6-oxo-7,8-dihydro-1~{H}-purin-8-ylium-9-yl)-3,4-dihydroxy-tetrahydrofuran-2-yl]methoxy-oxido-phosphoryl]oxy-hydroxy-phosphoryl] phosphate
   46    48     1     0     0
SMALL
USER_CHARGES

@<TRIPOS>ATOM
      1 PG         -0.4814   -9.7146    6.2179 P.3       1 GTP        -1.1921
      2 O1G         0.8656   -9.5027    6.9013 O.co2     1 GTP         0.3195
      3 O2G        -0.5195  -10.9043    5.2643 O.co2     1 GTP         0.3195
      4 O3G        -1.6824   -9.6241    7.1537 O.co2     1 GTP         0.3195
      5 O3B        -0.6402   -8.4086    5.2247 O.3       1 GTP         0.4672
      6 PB         -0.6807   -6.8280    5.5658 P.3       1 GTP        -0.9715
      7 O1B        -1.7966   -6.4074    6.4759 O.2       1 GTP         0.2707
      8 O2B         0.8063   -6.5396    6.1312 O.3       1 GTP         0.0326
      9 O3A        -0.6728   -6.1292    4.1093 O.3       1 GTP         0.4672
     10 PA         -1.7238   -6.2523    2.8671 P.3       1 GTP        -1.1062
     11 O1A        -1.6594   -7.6631    2.3238 O.co2     1 GTP         0.3195
     12 O2A        -3.0395   -5.6347    3.2878 O.co2     1 GTP         0.3195
     13 O5'        -0.9724   -5.2440    1.8220 O.3       1 GTP         0.1618
     14 C5'        -0.7840   -3.8935    2.2172 C.3       1 GTP         0.1504
     15 C4'        -0.0724   -3.1466    1.1027 C.3       1 GTP         0.1111
     16 O4'        -0.8674   -3.1929   -0.0945 O.3       1 GTP        -0.1436
     17 C3'         0.1338   -1.6715    1.4027 C.3       1 GTP         0.1111
     18 O3'         1.2893   -1.4445    2.1808 O.3       1 GTP        -0.2728
     19 C2'         0.2158   -1.0724    0.0128 C.3       1 GTP         0.1111
     20 O2'         1.5141   -1.2448   -0.5513 O.3       1 GTP        -0.2728
     21 C1'        -0.7897   -1.9176   -0.7583 C.3       1 GTP         0.2693
     22 N9         -2.1040   -1.3333   -0.7704 N.pl3     1 GTP        -0.3222
     23 C8         -3.0597   -1.5109    0.1345 C.ar      1 GTP         0.1640
     24 N7         -4.1618   -0.8291   -0.1607 N.pl3     1 GTP        -0.3688
     25 C5         -3.8764   -0.1805   -1.3310 C.ar      1 GTP         0.0648
     26 C6         -4.7187    0.7111   -2.1152 C.ar      1 GTP         0.3597
     27 O6         -5.8617    1.0043   -1.7939 O.2       1 GTP        -0.2755
     28 N1         -4.0405    1.1608   -3.2468 N.pl3     1 GTP        -0.1604
     29 C2         -2.7239    0.8013   -3.5822 C.ar      1 GTP         0.4468
     30 N2         -2.2399    1.3534   -4.7394 N.pl3     1 GTP        -0.5618
     31 N3         -2.0053   -0.0071   -2.8402 N.2       1 GTP        -0.4283
     32 C4         -2.6290   -0.4727   -1.7210 C.ar      1 GTP         0.2226
     33 HOB2        1.0820   -6.9579    6.9746 H         1 GTP         0.2010
     34 H5'        -1.7618   -3.4448    2.4164 H         1 GTP        -0.0393
     35 H5''       -0.1874   -3.8744    3.1341 H         1 GTP        -0.0393
     36 H4'         0.8874   -3.6466    0.8805 H         1 GTP        -0.0393
     37 H3'        -0.7376   -1.2333    1.9867 H         1 GTP        -0.0393
     38 HO3'        1.3408   -0.4870    2.3219 H         1 GTP         0.2010
     39 H2'        -0.0384   -0.0310    0.0096 H         1 GTP        -0.0393
     40 HO2'        2.1463   -0.7958    0.0370 H         1 GTP         0.2010
     41 H1'        -0.4769   -2.1002   -1.8093 H         1 GTP        -0.0393
     42 H8         -2.9610   -2.1316    1.0079 H         1 GTP         0.0000
     43 HN1        -4.5320    1.7923   -3.8726 H         1 GTP         0.0865
     44 HN21       -1.3128    1.1277   -5.0171 H         1 GTP         0.2048
     45 HN22       -2.8342    1.9586   -5.2572 H         1 GTP         0.2048
     46 H46        -5.0195   -0.8034    0.3729 H         1 GTP         0.2048
@<TRIPOS>BOND
     1    1    2 2
     2    1    3 1
     3    1    4 1
     4    1    5 1
     5    5    6 1
     6    6    7 2
     7    6    8 1
     8    6    9 1
     9    8   33 1
    10    9   10 1
    11   10   11 2
    12   10   12 1
    13   10   13 1
    14   13   14 1
    15   14   15 1
    16   14   34 1
    17   14   35 1
    18   15   16 1
    19   15   17 1
    20   15   36 1
    21   16   21 1
    22   17   18 1
    23   17   19 1
    24   17   37 1
    25   18   38 1
    26   19   20 1
    27   19   21 1
    28   19   39 1
    29   20   40 1
    30   21   22 1
    31   21   41 1
    32   22   23 ar
    33   22   32 ar
    34   23   24 ar
    35   23   42 1
    36   24   25 ar
    37   24   46 1
    38   25   26 ar
    39   25   32 ar
    40   26   27 2
    41   26   28 ar
    42   28   29 ar
    43   28   43 1
    44   29   30 1
    45   29   31 ar
    46   30   44 1
    47   30   45 1
    48   31   32 ar
@<TRIPOS>SUBSTRUCTURE
     1 GTP         1 GROUP 0 A     ****
@<TRIPOS>MOLECULE
[[[5-(2-amino-6-oxo-7,8-dihydro-1~{H}-purin-8-ylium-9-yl)-3,4-dihydroxy-tetrahydrofuran-2-yl]methoxy-oxido-phosphoryl]oxy-hydroxy-phosphoryl] phosphate
   46    48     1     0     0
SMALL
USER_CHARGES

@<TRIPOS>ATOM
      1 PG          1.2914    0.5260   -8.2942 P.3       1 GTP        -1.1921
      2 O1G         2.1630   -0.3616   -9.1767 O.co2     1 GTP         0.3195
      3 O2G         1.7293    1.9862   -8.2482 O.co2     1 GTP         0.3195
      4 O3G        -0.2082    0.3283   -8.4898 O.co2     1 GTP         0.3195
      5 O3B         1.5776   -0.0194   -6.7652 O.3       1 GTP         0.4672
      6 PB          1.3439   -1.4794   -6.1094 P.3       1 GTP        -0.9715
      7 O1B        -0.0768   -1.9606   -6.1311 O.2       1 GTP         0.2707
      8 O2B         2.3923   -2.4114   -6.9134 O.3       1 GTP         0.0326
      9 O3A         2.0077   -1.3431   -4.6430 O.3       1 GTP         0.4672
     10 PA          2.1381   -2.4286   -3.4316 P.3       1 GTP        -1.1062
     11 O1A         0.7508   -2.7303   -2.9080 O.co2     1 GTP         0.3195
     12 O2A         3.0645   -3.5384   -3.8785 O.co2     1 GTP         0.3195
     13 O5'         2.9216   -1.4836   -2.3516 O.3       1 GTP         0.1618
     14 C5'         2.2816   -0.2918   -1.9206 C.3       1 GTP         0.1504
     15 C4'         2.7248    0.0226   -0.4980 C.3       1 GTP         0.1111
     16 O4'         2.4697    1.4219   -0.2462 O.3       1 GTP        -0.1436
     17 C3'         1.9404   -0.7419    0.5596 C.3       1 GTP         0.1111
     18 O3'         2.7418   -0.8086    1.7389 O.3       1 GTP        -0.2728
     19 C2'         0.7477    0.1630    0.7858 C.3       1 GTP         0.1111
     20 O2'         0.1373   -0.0577    2.0407 O.3       1 GTP        -0.2728
     21 C1'         1.3733    1.5427    0.6747 C.3       1 GTP         0.2693
     22 N9          0.4520    2.5240    0.1767 N.pl3     1 GTP        -0.3222
     23 C8         -0.2009    2.4849   -0.9792 C.ar      1 GTP         0.1640
     24 N7         -0.9840    3.5454   -1.1481 N.pl3     1 GTP        -0.3688
     25 C5         -0.8090    4.3005   -0.0206 C.ar      1 GTP         0.0648
     26 C6         -1.4206    5.5724    0.3362 C.ar      1 GTP         0.3597
     27 O6         -2.2199    6.1544   -0.3836 O.2       1 GTP        -0.2755
     28 N1         -0.9680    6.0043    1.5817 N.pl3     1 GTP        -0.1604
     29 C2         -0.0474    5.3055    2.3814 C.ar      1 GTP         0.4468
     30 N2          0.2680    5.9024    3.5740 N.pl3     1 GTP        -0.5618
     31 N3          0.4755    4.1601    2.0138 N.2       1 GTP        -0.4283
     32 C4          0.0611    3.6981    0.8001 C.ar      1 GTP         0.2226
     33 HOB2        2.2565   -2.5576   -7.8738 H         1 GTP         0.2010
     34 H5'         2.5589    0.5217   -2.5976 H         1 GTP        -0.0393
     35 H5''        1.1982   -0.4388   -1.9617 H         1 GTP        -0.0393
     36 H4'         3.8044   -0.1397   -0.4040 H         1 GTP        -0.0393
     37 H3'         1.6764   -1.7639    0.2728 H         1 GTP        -0.0393
     38 HO3'        2.2232   -1.2979    2.3953 H         1 GTP         0.2010
     39 H2'        -0.0011    0.0027    0.0003 H         1 GTP        -0.0393
     40 HO2'       -0.1563   -0.9855    2.0596 H         1 GTP         0.2010
     41 H1'         1.7826    1.9024    1.6451 H         1 GTP        -0.0393
     42 H8         -0.1126    1.6906   -1.6997 H         1 GTP         0.0000
     43 HN1        -1.3285    6.8855    1.9361 H         1 GTP         0.0865
     44 HN21        0.9153    5.4446    4.1732 H         1 GTP         0.2048
     45 HN22       -0.1624    6.7706    3.7948 H         1 GTP         0.2048
     46 H46        -1.5768    3.7405   -1.9429 H         1 GTP         0.2048
@<TRIPOS>BOND
     1    1    2 2
     2    1    3 1
     3    1    4 1
     4    1    5 1
     5    5    6 1
     6    6    7 2
     7    6    8 1
     8    6    9 1
     9    8   33 1
    10    9   10 1
    11   10   11 2
    12   10   12 1
    13   10   13 1
    14   13   14 1
    15   14   15 1
    16   14   34 1
    17   14   35 1
    18   15   16 1
    19   15   17 1
    20   15   36 1
    21   16   21 1
    22   17   18 1
    23   17   19 1
    24   17   37 1
    25   18   38 1
    26   19   20 1
    27   19   21 1
    28   19   39 1
    29   20   40 1
    30   21   22 1
    31   21   41 1
    32   22   23 ar
    33   22   32 ar
    34   23   24 ar
    35   23   42 1
    36   24   25 ar
    37   24   46 1
    38   25   26 ar
    39   25   32 ar
    40   26   27 2
    41   26   28 ar
    42   28   29 ar
    43   28   43 1
    44   29   30 1
    45   29   31 ar
    46   30   44 1
    47   30   45 1
    48   31   32 ar
@<TRIPOS>SUBSTRUCTURE
     1 GTP         1 GROUP 0 A     ****
@<TRIPOS>MOLECULE
[[[5-(2-amino-6-oxo-7,8-dihydro-1~{H}-purin-8-ylium-9-yl)-3,4-dihydroxy-tetrahydrofuran-2-yl]methoxy-oxido-phosphoryl]oxy-hydroxy-phosphoryl] phosphate
   46    48     1     0     0
SMALL
USER_CHARGES

@<TRIPOS>ATOM
      1 PG          1.9560    0.0830   -8.4033 P.3       1 GTP        -1.1921
      2 O1G         2.5405   -1.1267   -9.1252 O.co2     1 GTP         0.3195
      3 O2G         2.8391    1.3258   -8.4479 O.co2     1 GTP         0.3195
      4 O3G         0.4859    0.3487   -8.7105 O.co2     1 GTP         0.3195
      5 O3B         1.9672   -0.3512   -6.8132 O.3       1 GTP         0.4672
      6 PB          1.2391   -1.5802   -6.0544 P.3       1 GTP        -0.9715
      7 O1B        -0.2575   -1.5873   -6.1573 O.2       1 GTP         0.2707
      8 O2B         1.9720   -2.8790   -6.6792 O.3       1 GTP         0.0326
      9 O3A         1.8308   -1.4985   -4.5535 O.3       1 GTP         0.4672
     10 PA          1.5375   -2.4279   -3.2447 P.3       1 GTP        -1.1062
     11 O1A         0.1009   -2.2157   -2.8193 O.co2     1 GTP         0.3195
     12 O2A         2.0783   -3.8159   -3.5100 O.co2     1 GTP         0.3195
     13 O5'         2.5245   -1.6648   -2.1878 O.3       1 GTP         0.1618
     14 C5'         2.2816   -0.2918   -1.9206 C.3       1 GTP         0.1504
     15 C4'         2.7248    0.0226   -0.4980 C.3       1 GTP         0.1111
     16 O4'         2.4697    1.4219   -0.2462 O.3       1 GTP        -0.1436
     17 C3'         1.9404   -0.7419    0.5596 C.3       1 GTP         0.1111
     18 O3'         2.7418   -0.8086    1.7389 O.3       1 GTP        -0.2728
     19 C2'         0.7477    0.1630    0.7858 C.3       1 GTP         0.1111
     20 O2'         0.1373   -0.0577    2.0407 O.3       1 GTP        -0.2728
     21 C1'         1.3733    1.5427    0.6747 C.3       1 GTP         0.2693
     22 N9          0.4520    2.5240    0.1767 N.pl3     1 GTP        -0.3222
     23 C8          0.5671    3.2221   -0.9473 C.ar      1 GTP         0.1640
     24 N7         -0.4560    4.0508   -1.1290 N.pl3     1 GTP        -0.3688
     25 C5         -1.2671    3.8585   -0.0441 C.ar      1 GTP         0.0648
     26 C6         -2.5318    4.5014    0.2817 C.ar      1 GTP         0.3597
     27 O6         -3.0527    5.3493   -0.4293 O.2       1 GTP        -0.2755
     28 N1         -3.0357    4.0149    1.4868 N.pl3     1 GTP        -0.1604
     29 C2         -2.4069    3.0373    2.2768 C.ar      1 GTP         0.4468
     30 N2         -3.0679    2.6964    3.4278 N.pl3     1 GTP        -0.5618
     31 N3         -1.2653    2.4872    1.9379 N.2       1 GTP        -0.4283
     32 C4         -0.7342    2.9334    0.7643 C.ar      1 GTP         0.2226
     33 HOB2        1.7612   -3.7641   -6.3128 H         1 GTP         0.2010
     34 H5'         2.8432    0.3119   -2.6398 H         1 GTP        -0.0393
     35 H5''        1.2128   -0.0927   -2.0428 H         1 GTP        -0.0393
     36 H4'         3.8044   -0.1397   -0.4040 H         1 GTP        -0.0393
     37 H3'         1.6764   -1.7639    0.2728 H         1 GTP        -0.0393
     38 HO3'        2.2232   -1.2979    2.3953 H         1 GTP         0.2010
     39 H2'        -0.0011    0.0027    0.0003 H         1 GTP        -0.0393
     40 HO2'       -0.1563   -0.9855    2.0596 H         1 GTP         0.2010
     41 H1'         1.7826    1.9024    1.6451 H         1 GTP        -0.0393
     42 H8          1.3888    3.1325   -1.6361 H         1 GTP         0.0000
     43 HN1        -3.9188    4.3932    1.8170 H         1 GTP         0.0865
     44 HN21       -2.6609    2.0087    4.0186 H         1 GTP         0.2048
     45 HN22       -3.9293    3.1496    3.6283 H         1 GTP         0.2048
     46 H46        -0.5938    4.6820   -1.9060 H         1 GTP         0.2048
@<TRIPOS>BOND
     1    1    2 2
     2    1    3 1
     3    1    4 1
     4    1    5 1
     5    5    6 1
     6    6    7 2
     7    6    8 1
     8    6    9 1
     9    8   33 1
    10    9   10 1
    11   10   11 2
    12   10   12 1
    13   10   13 1
    14   13   14 1
    15   14   15 1
    16   14   34 1
    17   14   35 1
    18   15   16 1
    19   15   17 1
    20   15   36 1
    21   16   21 1
    22   17   18 1
    23   17   19 1
    24   17   37 1
    25   18   38 1
    26   19   20 1
    27   19   21 1
    28   19   39 1
    29   20   40 1
    30   21   22 1
    31   21   41 1
    32   22   23 ar
    33   22   32 ar
    34   23   24 ar
    35   23   42 1
    36   24   25 ar
    37   24   46 1
    38   25   26 ar
    39   25   32 ar
    40   26   27 2
    41   26   28 ar
    42   28   29 ar
    43   28   43 1
    44   29   30 1
    45   29   31 ar
    46   30   44 1
    47   30   45 1
    48   31   32 ar
@<TRIPOS>SUBSTRUCTURE
     1 GTP         1 GROUP 0 A     ****
@<TRIPOS>MOLECULE
[[[5-(2-amino-6-oxo-7,8-dihydro-1~{H}-purin-8-ylium-9-yl)-3,4-dihydroxy-tetrahydrofuran-2-yl]methoxy-oxido-phosphoryl]oxy-hydroxy-phosphoryl] phosphate
   46    48     1     0     0
SMALL
USER_CHARGES

@<TRIPOS>ATOM
      1 PG          7.1162   -1.1987   -5.7764 P.3       1 GTP        -1.1921
      2 O1G         7.1617   -0.1887   -6.9184 O.co2     1 GTP         0.3195
      3 O2G         7.3935   -2.6370   -6.2012 O.co2     1 GTP         0.3195
      4 O3G         7.8634   -0.7620   -4.5206 O.co2     1 GTP         0.3195
      5 O3B         5.5323   -1.2212   -5.3201 O.3       1 GTP         0.4672
      6 PB          4.5832   -0.0371   -4.7603 P.3       1 GTP        -0.9715
      7 O1B         5.0534    0.5988   -3.4855 O.2       1 GTP         0.2707
      8 O2B         4.4711    0.9668   -6.0227 O.3       1 GTP         0.0326
      9 O3A         3.1232   -0.7254   -4.6946 O.3       1 GTP         0.4672
     10 PA          2.5993   -2.0261   -3.8600 P.3       1 GTP        -1.1062
     11 O1A         1.1002   -2.1350   -4.0352 O.co2     1 GTP         0.3195
     12 O2A         3.5104   -3.1941   -4.1687 O.co2     1 GTP         0.3195
     13 O5'         2.9216   -1.4836   -2.3516 O.3       1 GTP         0.1618
     14 C5'         2.2816   -0.2918   -1.9206 C.3       1 GTP         0.1504
     15 C4'         2.7248    0.0226   -0.4980 C.3       1 GTP         0.1111
     16 O4'         2.4697    1.4219   -0.2462 O.3       1 GTP        -0.1436
     17 C3'         1.9404   -0.7419    0.5596 C.3       1 GTP         0.1111
     18 O3'         2.7418   -0.8086    1.7389 O.3       1 GTP        -0.2728
     19 C2'         0.7477    0.1630    0.7858 C.3       1 GTP         0.1111
     20 O2'         0.1373   -0.0577    2.0407 O.3       1 GTP        -0.2728
     21 C1'         1.3733    1.5427    0.6747 C.3       1 GTP         0.2693
     22 N9          0.4520    2.5240    0.1767 N.pl3     1 GTP        -0.3222
     23 C8         -0.2009    2.4849   -0.9792 C.ar      1 GTP         0.1640
     24 N7         -0.9840    3.5454   -1.1481 N.pl3     1 GTP        -0.3688
     25 C5         -0.8090    4.3005   -0.0206 C.ar      1 GTP         0.0648
     26 C6         -1.4206    5.5724    0.3362 C.ar      1 GTP         0.3597
     27 O6         -2.2199    6.1544   -0.3836 O.2       1 GTP        -0.2755
     28 N1         -0.9680    6.0043    1.5817 N.pl3     1 GTP        -0.1604
     29 C2         -0.0474    5.3055    2.3814 C.ar      1 GTP         0.4468
     30 N2          0.2680    5.9024    3.5740 N.pl3     1 GTP        -0.5618
     31 N3          0.4755    4.1601    2.0138 N.2       1 GTP        -0.4283
     32 C4          0.0611    3.6981    0.8001 C.ar      1 GTP         0.2226
     33 HOB2        3.8684    1.7384   -5.9625 H         1 GTP         0.2010
     34 H5'         2.5589    0.5217   -2.5976 H         1 GTP        -0.0393
     35 H5''        1.1982   -0.4388   -1.9617 H         1 GTP        -0.0393
     36 H4'         3.8044   -0.1397   -0.4040 H         1 GTP        -0.0393
     37 H3'         1.6764   -1.7639    0.2728 H         1 GTP        -0.0393
     38 HO3'        2.2232   -1.2979    2.3953 H         1 GTP         0.2010
     39 H2'        -0.0011    0.0027    0.0003 H         1 GTP        -0.0393
     40 HO2'       -0.1563   -0.9855    2.0596 H         1 GTP         0.2010
     41 H1'         1.7826    1.9024    1.6451 H         1 GTP        -0.0393
     42 H8         -0.1126    1.6906   -1.6997 H         1 GTP         0.0000
     43 HN1        -1.3285    6.8855    1.9361 H         1 GTP         0.0865
     44 HN21        0.9153    5.4446    4.1732 H         1 GTP         0.2048
     45 HN22       -0.1624    6.7706    3.7948 H         1 GTP         0.2048
     46 H46        -1.5768    3.7405   -1.9429 H         1 GTP         0.2048
@<TRIPOS>BOND
     1    1    2 2
     2    1    3 1
     3    1    4 1
     4    1    5 1
     5    5    6 1
     6    6    7 2
     7    6    8 1
     8    6    9 1
     9    8   33 1
    10    9   10 1
    11   10   11 2
    12   10   12 1
    13   10   13 1
    14   13   14 1
    15   14   15 1
    16   14   34 1
    17   14   35 1
    18   15   16 1
    19   15   17 1
    20   15   36 1
    21   16   21 1
    22   17   18 1
    23   17   19 1
    24   17   37 1
    25   18   38 1
    26   19   20 1
    27   19   21 1
    28   19   39 1
    29   20   40 1
    30   21   22 1
    31   21   41 1
    32   22   23 ar
    33   22   32 ar
    34   23   24 ar
    35   23   42 1
    36   24   25 ar
    37   24   46 1
    38   25   26 ar
    39   25   32 ar
    40   26   27 2
    41   26   28 ar
    42   28   29 ar
    43   28   43 1
    44   29   30 1
    45   29   31 ar
    46   30   44 1
    47   30   45 1
    48   31   32 ar
@<TRIPOS>SUBSTRUCTURE
     1 GTP         1 GROUP 0 A     ****
@<TRIPOS>MOLECULE
[[[5-(2-amino-6-oxo-7,8-dihydro-1~{H}-purin-8-ylium-9-yl)-3,4-dihydroxy-tetrahydrofuran-2-yl]methoxy-oxido-phosphoryl]oxy-hydroxy-phosphoryl] phosphate
   46    48     1     0     0
SMALL
USER_CHARGES

@<TRIPOS>ATOM
      1 PG         -2.1999   -0.6273    8.3254 P.3       1 GTP        -1.1921
      2 O1G        -2.5539    0.7645    7.8116 O.co2     1 GTP         0.3195
      3 O2G        -0.9229   -0.6814    9.1577 O.co2     1 GTP         0.3195
      4 O3G        -3.3733   -1.3918    8.9293 O.co2     1 GTP         0.3195
      5 O3B        -1.8190   -1.4755    6.9643 O.3       1 GTP         0.4672
      6 PB         -2.7065   -1.8156    5.6554 P.3       1 GTP        -0.9715
      7 O1B        -3.9549   -2.6021    5.9266 O.2       1 GTP         0.2707
      8 O2B        -2.9472   -0.3612    4.9912 O.3       1 GTP         0.0326
      9 O3A        -1.6485   -2.5165    4.6560 O.3       1 GTP         0.4672
     10 PA         -0.7506   -3.8669    4.8378 P.3       1 GTP        -1.1062
     11 O1A         0.2632   -3.6235    5.9345 O.co2     1 GTP         0.3195
     12 O2A        -1.6803   -5.0599    4.8821 O.co2     1 GTP         0.3195
     13 O5'         0.0118   -3.8395    3.3916 O.3       1 GTP         0.1618
     14 C5'        -0.7840   -3.8935    2.2172 C.3       1 GTP         0.1504
     15 C4'        -0.0724   -3.1466    1.1027 C.3       1 GTP         0.1111
     16 O4'        -0.8674   -3.1929   -0.0945 O.3       1 GTP        -0.1436
     17 C3'         0.1338   -1.6715    1.4027 C.3       1 GTP         0.1111
     18 O3'         1.2893   -1.4445    2.1808 O.3       1 GTP        -0.2728
     19 C2'         0.2158   -1.0724    0.0128 C.3       1 GTP         0.1111
     20 O2'         1.5141   -1.2448   -0.5513 O.3       1 GTP        -0.2728
     21 C1'        -0.7897   -1.9176   -0.7583 C.3       1 GTP         0.2693
     22 N9         -2.1040   -1.3333   -0.7704 N.pl3     1 GTP        -0.3222
     23 C8         -3.0597   -1.5109    0.1345 C.ar      1 GTP         0.1640
     24 N7         -4.1618   -0.8291   -0.1607 N.pl3     1 GTP        -0.3688
     25 C5         -3.8764   -0.1805   -1.3310 C.ar      1 GTP         0.0648
     26 C6         -4.7187    0.7111   -2.1152 C.ar      1 GTP         0.3597
     27 O6         -5.8617    1.0043   -1.7939 O.2       1 GTP        -0.2755
     28 N1         -4.0405    1.1608   -3.2468 N.pl3     1 GTP        -0.1604
     29 C2         -2.7239    0.8013   -3.5822 C.ar      1 GTP         0.4468
     30 N2         -2.2399    1.3534   -4.7394 N.pl3     1 GTP        -0.5618
     31 N3         -2.0053   -0.0071   -2.8402 N.2       1 GTP        -0.4283
     32 C4         -2.6290   -0.4727   -1.7210 C.ar      1 GTP         0.2226
     33 HOB2       -3.3983   -0.3060    4.1219 H         1 GTP         0.2010
     34 H5'        -0.9348   -4.9415    1.9415 H         1 GTP        -0.0393
     35 H5''       -1.7548   -3.4350    2.4278 H         1 GTP        -0.0393
     36 H4'         0.8874   -3.6466    0.8805 H         1 GTP        -0.0393
     37 H3'        -0.7376   -1.2333    1.9867 H         1 GTP        -0.0393
     38 HO3'        1.1626   -1.9325    3.0084 H         1 GTP         0.2010
     39 H2'        -0.0384   -0.0310    0.0096 H         1 GTP        -0.0393
     40 HO2'        2.1463   -0.7958    0.0370 H         1 GTP         0.2010
     41 H1'        -0.4769   -2.1002   -1.8093 H         1 GTP        -0.0393
     42 H8         -2.9610   -2.1316    1.0079 H         1 GTP         0.0000
     43 HN1        -4.5320    1.7923   -3.8726 H         1 GTP         0.0865
     44 HN21       -1.3128    1.1277   -5.0171 H         1 GTP         0.2048
     45 HN22       -2.8342    1.9586   -5.2572 H         1 GTP         0.2048
     46 H46        -5.0195   -0.8034    0.3729 H         1 GTP         0.2048
@<TRIPOS>BOND
     1    1    2 2
     2    1    3 1
     3    1    4 1
     4    1    5 1
     5    5    6 1
     6    6    7 2
     7    6    8 1
     8    6    9 1
     9    8   33 1
    10    9   10 1
    11   10   11 2
    12   10   12 1
    13   10   13 1
    14   13   14 1
    15   14   15 1
    16   14   34 1
    17   14   35 1
    18   15   16 1
    19   15   17 1
    20   15   36 1
    21   16   21 1
    22   17   18 1
    23   17   19 1
    24   17   37 1
    25   18   38 1
    26   19   20 1
    27   19   21 1
    28   19   39 1
    29   20   40 1
    30   21   22 1
    31   21   41 1
    32   22   23 ar
    33   22   32 ar
    34   23   24 ar
    35   23   42 1
    36   24   25 ar
    37   24   46 1
    38   25   26 ar
    39   25   32 ar
    40   26   27 2
    41   26   28 ar
    42   28   29 ar
    43   28   43 1
    44   29   30 1
    45   29   31 ar
    46   30   44 1
    47   30   45 1
    48   31   32 ar
@<TRIPOS>SUBSTRUCTURE
     1 GTP         1 GROUP 0 A     ****
@<TRIPOS>MOLECULE
[[[5-(2-amino-6-oxo-7,8-dihydro-1~{H}-purin-8-ylium-9-yl)-3,4-dihydroxy-tetrahydrofuran-2-yl]methoxy-oxido-phosphoryl]oxy-hydroxy-phosphoryl] phosphate
   46    48     1     0     0
SMALL
USER_CHARGES

@<TRIPOS>ATOM
      1 PG         -0.9400   -1.3217   -7.3506 P.3       1 GTP        -1.1921
      2 O1G        -2.3465   -1.1786   -6.7783 O.co2     1 GTP         0.3195
      3 O2G        -0.4454   -2.7614   -7.4440 O.co2     1 GTP         0.3195
      4 O3G        -0.6829   -0.4893   -8.6025 O.co2     1 GTP         0.3195
      5 O3B         0.0330   -0.6446   -6.2051 O.3       1 GTP         0.4672
      6 PB          0.0639    0.8583   -5.6076 P.3       1 GTP        -0.9715
      7 O1B         0.3246    1.9343   -6.6199 O.2       1 GTP         0.2707
      8 O2B        -1.3540    0.9735   -4.8391 O.3       1 GTP         0.0326
      9 O3A         1.1383    0.7623   -4.4051 O.3       1 GTP         0.4672
     10 PA          2.7180    0.3539   -4.4230 P.3       1 GTP        -1.1062
     11 O1A         2.8304   -1.1069   -4.8014 O.co2     1 GTP         0.3195
     12 O2A         3.4813    1.4193   -5.1793 O.co2     1 GTP         0.3195
     13 O5'         3.0213    0.5153   -2.8245 O.3       1 GTP         0.1618
     14 C5'         2.2816   -0.2918   -1.9206 C.3       1 GTP         0.1504
     15 C4'         2.7248    0.0226   -0.4980 C.3       1 GTP         0.1111
     16 O4'         2.4697    1.4219   -0.2462 O.3       1 GTP        -0.1436
     17 C3'         1.9404   -0.7419    0.5596 C.3       1 GTP         0.1111
     18 O3'         2.7418   -0.8086    1.7389 O.3       1 GTP        -0.2728
     19 C2'         0.7477    0.1630    0.7858 C.3       1 GTP         0.1111
     20 O2'         0.1373   -0.0577    2.0407 O.3       1 GTP        -0.2728
     21 C1'         1.3733    1.5427    0.6747 C.3       1 GTP         0.2693
     22 N9          0.4520    2.5240    0.1767 N.pl3     1 GTP        -0.3222
     23 C8         -0.8613    2.5511    0.3730 C.ar      1 GTP         0.1640
     24 N7         -1.4346    3.5939   -0.2188 N.pl3     1 GTP        -0.3688
     25 C5         -0.4099    4.2657   -0.8276 C.ar      1 GTP         0.0648
     26 C6         -0.4554    5.4854   -1.6209 C.ar      1 GTP         0.3597
     27 O6         -1.4907    6.0944   -1.8508 O.2       1 GTP        -0.2755
     28 N1          0.8205    5.8357   -2.0593 N.pl3     1 GTP        -0.1604
     29 C2          1.9890    5.1091   -1.7730 C.ar      1 GTP         0.4468
     30 N2          3.1452    5.6230   -2.2997 N.pl3     1 GTP        -0.5618
     31 N3          1.9765    4.0139   -1.0514 N.2       1 GTP        -0.4283
     32 C4          0.7480    3.6324   -0.6003 C.ar      1 GTP         0.2226
     33 HOB2       -2.1817    0.9435   -5.3647 H         1 GTP         0.2010
     34 H5'         1.2163   -0.0770   -2.0471 H         1 GTP        -0.0393
     35 H5''        2.4655   -1.3443   -2.1563 H         1 GTP        -0.0393
     36 H4'         3.8044   -0.1397   -0.4040 H         1 GTP        -0.0393
     37 H3'         1.6764   -1.7639    0.2728 H         1 GTP        -0.0393
     38 HO3'        3.5554   -1.2733    1.4914 H         1 GTP         0.2010
     39 H2'        -0.0011    0.0027    0.0003 H         1 GTP        -0.0393
     40 HO2'       -0.1563   -0.9855    2.0596 H         1 GTP         0.2010
     41 H1'         1.7826    1.9024    1.6451 H         1 GTP        -0.0393
     42 H8         -1.4050    1.8187    0.9438 H         1 GTP         0.0000
     43 HN1         0.9121    6.6744   -2.6251 H         1 GTP         0.0865
     44 HN21        3.9971    5.1427   -2.1235 H         1 GTP         0.2048
     45 HN22        3.0881    6.4564   -2.8380 H         1 GTP         0.2048
     46 H46        -2.4173    3.8294   -0.2127 H         1 GTP         0.2048
@<TRIPOS>BOND
     1    1    2 2
     2    1    3 1
     3    1    4 1
     4    1    5 1
     5    5    6 1
     6    6    7 2
     7    6    8 1
     8    6    9 1
     9    8   33 1
    10    9   10 1
    11   10   11 2
    12   10   12 1
    13   10   13 1
    14   13   14 1
    15   14   15 1
    16   14   34 1
    17   14   35 1
    18   15   16 1
    19   15   17 1
    20   15   36 1
    21   16   21 1
    22   17   18 1
    23   17   19 1
    24   17   37 1
    25   18   38 1
    26   19   20 1
    27   19   21 1
    28   19   39 1
    29   20   40 1
    30   21   22 1
    31   21   41 1
    32   22   23 ar
    33   22   32 ar
    34   23   24 ar
    35   23   42 1
    36   24   25 ar
    37   24   46 1
    38   25   26 ar
    39   25   32 ar
    40   26   27 2
    41   26   28 ar
    42   28   29 ar
    43   28   43 1
    44   29   30 1
    45   29   31 ar
    46   30   44 1
    47   30   45 1
    48   31   32 ar
@<TRIPOS>SUBSTRUCTURE
     1 GTP         1 GROUP 0 A     ****
@<TRIPOS>MOLECULE
[[[5-(2-amino-6-oxo-7,8-dihydro-1~{H}-purin-8-ylium-9-yl)-3,4-dihydroxy-tetrahydrofuran-2-yl]methoxy-oxido-phosphoryl]oxy-hydroxy-phosphoryl] phosphate
   46    48     1     0     0
SMALL
USER_CHARGES

@<TRIPOS>ATOM
      1 PG         -1.0263   -4.5729   -6.4660 P.3       1 GTP        -1.1921
      2 O1G        -2.3085   -4.8094   -5.6747 O.co2     1 GTP         0.3195
      3 O2G        -0.1497   -5.8112   -6.6226 O.co2     1 GTP         0.3195
      4 O3G        -1.2190   -3.7760   -7.7520 O.co2     1 GTP         0.3195
      5 O3B        -0.1338   -3.5782   -5.5009 O.3       1 GTP         0.4672
      6 PB         -0.4566   -2.0985   -4.9328 P.3       1 GTP        -0.9715
      7 O1B        -0.6813   -1.0537   -5.9856 O.2       1 GTP         0.2707
      8 O2B        -1.7116   -2.3536   -3.9458 O.3       1 GTP         0.0326
      9 O3A         0.7679   -1.8099   -3.9195 O.3       1 GTP         0.4672
     10 PA          1.2481   -2.6084   -2.5799 P.3       1 GTP        -1.1062
     11 O1A         0.1775   -2.4546   -1.5216 O.co2     1 GTP         0.3195
     12 O2A         1.7529   -3.9747   -2.9899 O.co2     1 GTP         0.3195
     13 O5'         2.5245   -1.6648   -2.1878 O.3       1 GTP         0.1618
     14 C5'         2.2816   -0.2918   -1.9206 C.3       1 GTP         0.1504
     15 C4'         2.7248    0.0226   -0.4980 C.3       1 GTP         0.1111
     16 O4'         2.4697    1.4219   -0.2462 O.3       1 GTP        -0.1436
     17 C3'         1.9404   -0.7419    0.5596 C.3       1 GTP         0.1111
     18 O3'         2.7418   -0.8086    1.7389 O.3       1 GTP        -0.2728
     19 C2'         0.7477    0.1630    0.7858 C.3       1 GTP         0.1111
     20 O2'         0.1373   -0.0577    2.0407 O.3       1 GTP        -0.2728
     21 C1'         1.3733    1.5427    0.6747 C.3       1 GTP         0.2693
     22 N9          0.4520    2.5240    0.1767 N.pl3     1 GTP        -0.3222
     23 C8          0.2203    2.8205   -1.0970 C.ar      1 GTP         0.1640
     24 N7         -0.6947    3.7752   -1.2304 N.pl3     1 GTP        -0.3688
     25 C5         -1.0607    4.0987    0.0476 C.ar      1 GTP         0.0648
     26 C6         -2.0310    5.0839    0.5029 C.ar      1 GTP         0.3597
     27 O6         -2.6779    5.7867   -0.2609 O.2       1 GTP        -0.2755
     28 N1         -2.1030    5.0975    1.8948 N.pl3     1 GTP        -0.1604
     29 C2         -1.3422    4.2721    2.7403 C.ar      1 GTP         0.4468
     30 N2         -1.5624    4.4419    4.0823 N.pl3     1 GTP        -0.5618
     31 N3         -0.4796    3.3981    2.2792 N.2       1 GTP        -0.4283
     32 C4         -0.3754    3.3496    0.9208 C.ar      1 GTP         0.2226
     33 HOB2       -2.0476   -1.6080   -3.4041 H         1 GTP         0.2010
     34 H5'         2.8432    0.3119   -2.6398 H         1 GTP        -0.0393
     35 H5''        1.2128   -0.0927   -2.0428 H         1 GTP        -0.0393
     36 H4'         3.8044   -0.1397   -0.4040 H         1 GTP        -0.0393
     37 H3'         1.6764   -1.7639    0.2728 H         1 GTP        -0.0393
     38 HO3'        2.2232   -1.2979    2.3953 H         1 GTP         0.2010
     39 H2'        -0.0011    0.0027    0.0003 H         1 GTP        -0.0393
     40 HO2'       -0.6141    0.5574    2.1082 H         1 GTP         0.2010
     41 H1'         1.7826    1.9024    1.6451 H         1 GTP        -0.0393
     42 H8          0.7110    2.3472   -1.9295 H         1 GTP         0.0000
     43 HN1        -2.7504    5.7495    2.3282 H         1 GTP         0.0865
     44 HN21       -1.0467    3.8796    4.7190 H         1 GTP         0.2048
     45 HN22       -2.2294    5.1209    4.3680 H         1 GTP         0.2048
     46 H46        -1.0382    4.1687   -2.0954 H         1 GTP         0.2048
@<TRIPOS>BOND
     1    1    2 2
     2    1    3 1
     3    1    4 1
     4    1    5 1
     5    5    6 1
     6    6    7 2
     7    6    8 1
     8    6    9 1
     9    8   33 1
    10    9   10 1
    11   10   11 2
    12   10   12 1
    13   10   13 1
    14   13   14 1
    15   14   15 1
    16   14   34 1
    17   14   35 1
    18   15   16 1
    19   15   17 1
    20   15   36 1
    21   16   21 1
    22   17   18 1
    23   17   19 1
    24   17   37 1
    25   18   38 1
    26   19   20 1
    27   19   21 1
    28   19   39 1
    29   20   40 1
    30   21   22 1
    31   21   41 1
    32   22   23 ar
    33   22   32 ar
    34   23   24 ar
    35   23   42 1
    36   24   25 ar
    37   24   46 1
    38   25   26 ar
    39   25   32 ar
    40   26   27 2
    41   26   28 ar
    42   28   29 ar
    43   28   43 1
    44   29   30 1
    45   29   31 ar
    46   30   44 1
    47   30   45 1
    48   31   32 ar
@<TRIPOS>SUBSTRUCTURE
     1 GTP         1 GROUP 0 A     ****
@<TRIPOS>MOLECULE
[[[5-(2-amino-6-oxo-7,8-dihydro-1~{H}-purin-8-ylium-9-yl)-3,4-dihydroxy-tetrahydrofuran-2-yl]methoxy-oxido-phosphoryl]oxy-hydroxy-phosphoryl] phosphate
   46    48     1     0     0
SMALL
USER_CHARGES

@<TRIPOS>ATOM
      1 PG          5.6188    0.5021   -5.9682 P.3       1 GTP        -1.1921
      2 O1G         4.8010    1.1990   -7.0507 O.co2     1 GTP         0.3195
      3 O2G         7.1267    0.5542   -6.1915 O.co2     1 GTP         0.3195
      4 O3G         5.1855    0.8308   -4.5433 O.co2     1 GTP         0.3195
      5 O3B         5.2492   -1.0944   -6.1477 O.3       1 GTP         0.4672
      6 PB          3.8293   -1.8623   -6.0438 P.3       1 GTP        -0.9715
      7 O1B         2.7893   -1.4004   -7.0213 O.2       1 GTP         0.2707
      8 O2B         4.2470   -3.4186   -6.1764 O.3       1 GTP         0.0326
      9 O3A         3.4329   -1.7094   -4.4853 O.3       1 GTP         0.4672
     10 PA          2.1265   -2.2419   -3.6650 P.3       1 GTP        -1.1062
     11 O1A         0.9084   -1.5011   -4.1721 O.co2     1 GTP         0.3195
     12 O2A         2.1647   -3.7541   -3.6300 O.co2     1 GTP         0.3195
     13 O5'         2.5245   -1.6648   -2.1878 O.3       1 GTP         0.1618
     14 C5'         2.2816   -0.2918   -1.9206 C.3       1 GTP         0.1504
     15 C4'         2.7248    0.0226   -0.4980 C.3       1 GTP         0.1111
     16 O4'         2.4697    1.4219   -0.2462 O.3       1 GTP        -0.1436
     17 C3'         1.9404   -0.7419    0.5596 C.3       1 GTP         0.1111
     18 O3'         2.7418   -0.8086    1.7389 O.3       1 GTP        -0.2728
     19 C2'         0.7477    0.1630    0.7858 C.3       1 GTP         0.1111
     20 O2'         0.1373   -0.0577    2.0407 O.3       1 GTP        -0.2728
     21 C1'         1.3733    1.5427    0.6747 C.3       1 GTP         0.2693
     22 N9          0.4520    2.5240    0.1767 N.pl3     1 GTP        -0.3222
     23 C8          0.5671    3.2221   -0.9473 C.ar      1 GTP         0.1640
     24 N7         -0.4560    4.0508   -1.1290 N.pl3     1 GTP        -0.3688
     25 C5         -1.2671    3.8585   -0.0441 C.ar      1 GTP         0.0648
     26 C6         -2.5318    4.5014    0.2817 C.ar      1 GTP         0.3597
     27 O6         -3.0527    5.3493   -0.4293 O.2       1 GTP        -0.2755
     28 N1         -3.0357    4.0149    1.4868 N.pl3     1 GTP        -0.1604
     29 C2         -2.4069    3.0373    2.2768 C.ar      1 GTP         0.4468
     30 N2         -3.0679    2.6964    3.4278 N.pl3     1 GTP        -0.5618
     31 N3         -1.2653    2.4872    1.9379 N.2       1 GTP        -0.4283
     32 C4         -0.7342    2.9334    0.7643 C.ar      1 GTP         0.2226
     33 HOB2        3.5573   -4.1061   -6.0581 H         1 GTP         0.2010
     34 H5'         2.8432    0.3119   -2.6398 H         1 GTP        -0.0393
     35 H5''        1.2128   -0.0927   -2.0428 H         1 GTP        -0.0393
     36 H4'         3.8044   -0.1397   -0.4040 H         1 GTP        -0.0393
     37 H3'         1.6764   -1.7639    0.2728 H         1 GTP        -0.0393
     38 HO3'        3.5554   -1.2733    1.4914 H         1 GTP         0.2010
     39 H2'        -0.0011    0.0027    0.0003 H         1 GTP        -0.0393
     40 HO2'        0.8082    0.1199    2.7232 H         1 GTP         0.2010
     41 H1'         1.7826    1.9024    1.6451 H         1 GTP        -0.0393
     42 H8          1.3888    3.1325   -1.6361 H         1 GTP         0.0000
     43 HN1        -3.9188    4.3932    1.8170 H         1 GTP         0.0865
     44 HN21       -2.6609    2.0087    4.0186 H         1 GTP         0.2048
     45 HN22       -3.9293    3.1496    3.6283 H         1 GTP         0.2048
     46 H46        -0.5938    4.6820   -1.9060 H         1 GTP         0.2048
@<TRIPOS>BOND
     1    1    2 2
     2    1    3 1
     3    1    4 1
     4    1    5 1
     5    5    6 1
     6    6    7 2
     7    6    8 1
     8    6    9 1
     9    8   33 1
    10    9   10 1
    11   10   11 2
    12   10   12 1
    13   10   13 1
    14   13   14 1
    15   14   15 1
    16   14   34 1
    17   14   35 1
    18   15   16 1
    19   15   17 1
    20   15   36 1
    21   16   21 1
    22   17   18 1
    23   17   19 1
    24   17   37 1
    25   18   38 1
    26   19   20 1
    27   19   21 1
    28   19   39 1
    29   20   40 1
    30   21   22 1
    31   21   41 1
    32   22   23 ar
    33   22   32 ar
    34   23   24 ar
    35   23   42 1
    36   24   25 ar
    37   24   46 1
    38   25   26 ar
    39   25   32 ar
    40   26   27 2
    41   26   28 ar
    42   28   29 ar
    43   28   43 1
    44   29   30 1
    45   29   31 ar
    46   30   44 1
    47   30   45 1
    48   31   32 ar
@<TRIPOS>SUBSTRUCTURE
     1 GTP         1 GROUP 0 A     ****
@<TRIPOS>MOLECULE
[[[5-(2-amino-6-oxo-7,8-dihydro-1~{H}-purin-8-ylium-9-yl)-3,4-dihydroxy-tetrahydrofuran-2-yl]methoxy-oxido-phosphoryl]oxy-hydroxy-phosphoryl] phosphate
   46    48     1     0     0
SMALL
USER_CHARGES

@<TRIPOS>ATOM
      1 PG         -1.3300    0.2869   -5.5367 P.3       1 GTP        -1.1921
      2 O1G        -2.0173   -1.0711   -5.6347 O.co2     1 GTP         0.3195
      3 O2G        -2.0673    1.4148   -6.2512 O.co2     1 GTP         0.3195
      4 O3G        -0.8435    0.6458   -4.1365 O.co2     1 GTP         0.3195
      5 O3B         0.0537    0.1034   -6.4136 O.3       1 GTP         0.4672
      6 PB          1.2940   -0.9164   -6.2183 P.3       1 GTP        -0.9715
      7 O1B         0.9313   -2.3706   -6.2839 O.2       1 GTP         0.2707
      8 O2B         2.3492   -0.4250   -7.3405 O.3       1 GTP         0.0326
      9 O3A         1.9647   -0.4308   -4.8312 O.3       1 GTP         0.4672
     10 PA          3.4597   -0.6852   -4.2287 P.3       1 GTP        -1.1062
     11 O1A         3.6083   -2.1600   -3.9242 O.co2     1 GTP         0.3195
     12 O2A         4.4600    0.0381   -5.1037 O.co2     1 GTP         0.3195
     13 O5'         3.2903    0.1346   -2.8241 O.3       1 GTP         0.1618
     14 C5'         2.2816   -0.2918   -1.9206 C.3       1 GTP         0.1504
     15 C4'         2.7248    0.0226   -0.4980 C.3       1 GTP         0.1111
     16 O4'         2.4697    1.4219   -0.2462 O.3       1 GTP        -0.1436
     17 C3'         1.9404   -0.7419    0.5596 C.3       1 GTP         0.1111
     18 O3'         2.7418   -0.8086    1.7389 O.3       1 GTP        -0.2728
     19 C2'         0.7477    0.1630    0.7858 C.3       1 GTP         0.1111
     20 O2'         0.1373   -0.0577    2.0407 O.3       1 GTP        -0.2728
     21 C1'         1.3733    1.5427    0.6747 C.3       1 GTP         0.2693
     22 N9          0.4520    2.5240    0.1767 N.pl3     1 GTP        -0.3222
     23 C8          0.5671    3.2221   -0.9473 C.ar      1 GTP         0.1640
     24 N7         -0.4560    4.0508   -1.1290 N.pl3     1 GTP        -0.3688
     25 C5         -1.2671    3.8585   -0.0441 C.ar      1 GTP         0.0648
     26 C6         -2.5318    4.5014    0.2817 C.ar      1 GTP         0.3597
     27 O6         -3.0527    5.3493   -0.4293 O.2       1 GTP        -0.2755
     28 N1         -3.0357    4.0149    1.4868 N.pl3     1 GTP        -0.1604
     29 C2         -2.4069    3.0373    2.2768 C.ar      1 GTP         0.4468
     30 N2         -3.0679    2.6964    3.4278 N.pl3     1 GTP        -0.5618
     31 N3         -1.2653    2.4872    1.9379 N.2       1 GTP        -0.4283
     32 C4         -0.7342    2.9334    0.7643 C.ar      1 GTP         0.2226
     33 HOB2        2.1115   -0.5183   -8.2876 H         1 GTP         0.2010
     34 H5'         1.3514    0.2330   -2.1577 H         1 GTP        -0.0393
     35 H5''        2.1280   -1.3678   -2.0460 H         1 GTP        -0.0393
     36 H4'         3.8044   -0.1397   -0.4040 H         1 GTP        -0.0393
     37 H3'         1.6764   -1.7639    0.2728 H         1 GTP        -0.0393
     38 HO3'        3.5554   -1.2733    1.4914 H         1 GTP         0.2010
     39 H2'        -0.0011    0.0027    0.0003 H         1 GTP        -0.0393
     40 HO2'        0.8082    0.1199    2.7232 H         1 GTP         0.2010
     41 H1'         1.7826    1.9024    1.6451 H         1 GTP        -0.0393
     42 H8          1.3888    3.1325   -1.6361 H         1 GTP         0.0000
     43 HN1        -3.9188    4.3932    1.8170 H         1 GTP         0.0865
     44 HN21       -2.6609    2.0087    4.0186 H         1 GTP         0.2048
     45 HN22       -3.9293    3.1496    3.6283 H         1 GTP         0.2048
     46 H46        -0.5938    4.6820   -1.9060 H         1 GTP         0.2048
@<TRIPOS>BOND
     1    1    2 2
     2    1    3 1
     3    1    4 1
     4    1    5 1
     5    5    6 1
     6    6    7 2
     7    6    8 1
     8    6    9 1
     9    8   33 1
    10    9   10 1
    11   10   11 2
    12   10   12 1
    13   10   13 1
    14   13   14 1
    15   14   15 1
    16   14   34 1
    17   14   35 1
    18   15   16 1
    19   15   17 1
    20   15   36 1
    21   16   21 1
    22   17   18 1
    23   17   19 1
    24   17   37 1
    25   18   38 1
    26   19   20 1
    27   19   21 1
    28   19   39 1
    29   20   40 1
    30   21   22 1
    31   21   41 1
    32   22   23 ar
    33   22   32 ar
    34   23   24 ar
    35   23   42 1
    36   24   25 ar
    37   24   46 1
    38   25   26 ar
    39   25   32 ar
    40   26   27 2
    41   26   28 ar
    42   28   29 ar
    43   28   43 1
    44   29   30 1
    45   29   31 ar
    46   30   44 1
    47   30   45 1
    48   31   32 ar
@<TRIPOS>SUBSTRUCTURE
     1 GTP         1 GROUP 0 A     ****
@<TRIPOS>MOLECULE
[[[5-(2-amino-6-oxo-7,8-dihydro-1~{H}-purin-8-ylium-9-yl)-3,4-dihydroxy-tetrahydrofuran-2-yl]methoxy-oxido-phosphoryl]oxy-hydroxy-phosphoryl] phosphate
   46    48     1     0     0
SMALL
USER_CHARGES

@<TRIPOS>ATOM
      1 PG          5.5876   -5.3846   -1.6832 P.3       1 GTP        -1.1921
      2 O1G         6.8941   -5.4170   -2.4696 O.co2     1 GTP         0.3195
      3 O2G         4.7365   -6.6415   -1.8309 O.co2     1 GTP         0.3195
      4 O3G         5.7301   -4.8905   -0.2473 O.co2     1 GTP         0.3195
      5 O3B         4.6963   -4.2156   -2.4291 O.3       1 GTP         0.4672
      6 PB          4.9985   -2.6413   -2.6450 P.3       1 GTP        -0.9715
      7 O1B         5.1729   -1.8532   -1.3804 O.2       1 GTP         0.2707
      8 O2B         6.2829   -2.6487   -3.6270 O.3       1 GTP         0.0326
      9 O3A         3.7928   -2.1555   -3.6041 O.3       1 GTP         0.4672
     10 PA          3.4597   -0.6852   -4.2287 P.3       1 GTP        -1.1062
     11 O1A         4.6913   -0.1809   -4.9487 O.co2     1 GTP         0.3195
     12 O2A         2.1180   -0.7517   -4.9252 O.co2     1 GTP         0.3195
     13 O5'         3.2903    0.1346   -2.8241 O.3       1 GTP         0.1618
     14 C5'         2.2816   -0.2918   -1.9206 C.3       1 GTP         0.1504
     15 C4'         2.7248    0.0226   -0.4980 C.3       1 GTP         0.1111
     16 O4'         2.4697    1.4219   -0.2462 O.3       1 GTP        -0.1436
     17 C3'         1.9404   -0.7419    0.5596 C.3       1 GTP         0.1111
     18 O3'         2.7418   -0.8086    1.7389 O.3       1 GTP        -0.2728
     19 C2'         0.7477    0.1630    0.7858 C.3       1 GTP         0.1111
     20 O2'         0.1373   -0.0577    2.0407 O.3       1 GTP        -0.2728
     21 C1'         1.3733    1.5427    0.6747 C.3       1 GTP         0.2693
     22 N9          0.4520    2.5240    0.1767 N.pl3     1 GTP        -0.3222
     23 C8          0.2203    2.8205   -1.0970 C.ar      1 GTP         0.1640
     24 N7         -0.6947    3.7752   -1.2304 N.pl3     1 GTP        -0.3688
     25 C5         -1.0607    4.0987    0.0476 C.ar      1 GTP         0.0648
     26 C6         -2.0310    5.0839    0.5029 C.ar      1 GTP         0.3597
     27 O6         -2.6779    5.7867   -0.2609 O.2       1 GTP        -0.2755
     28 N1         -2.1030    5.0975    1.8948 N.pl3     1 GTP        -0.1604
     29 C2         -1.3422    4.2721    2.7403 C.ar      1 GTP         0.4468
     30 N2         -1.5624    4.4419    4.0823 N.pl3     1 GTP        -0.5618
     31 N3         -0.4796    3.3981    2.2792 N.2       1 GTP        -0.4283
     32 C4         -0.3754    3.3496    0.9208 C.ar      1 GTP         0.2226
     33 HOB2        7.1318   -3.0103   -3.2941 H         1 GTP         0.2010
     34 H5'         1.3514    0.2330   -2.1577 H         1 GTP        -0.0393
     35 H5''        2.1280   -1.3678   -2.0460 H         1 GTP        -0.0393
     36 H4'         3.8044   -0.1397   -0.4040 H         1 GTP        -0.0393
     37 H3'         1.6764   -1.7639    0.2728 H         1 GTP        -0.0393
     38 HO3'        2.2232   -1.2979    2.3953 H         1 GTP         0.2010
     39 H2'        -0.0011    0.0027    0.0003 H         1 GTP        -0.0393
     40 HO2'       -0.1563   -0.9855    2.0596 H         1 GTP         0.2010
     41 H1'         1.7826    1.9024    1.6451 H         1 GTP        -0.0393
     42 H8          0.7110    2.3472   -1.9295 H         1 GTP         0.0000
     43 HN1        -2.7504    5.7495    2.3282 H         1 GTP         0.0865
     44 HN21       -1.0467    3.8796    4.7190 H         1 GTP         0.2048
     45 HN22       -2.2294    5.1209    4.3680 H         1 GTP         0.2048
     46 H46        -1.0382    4.1687   -2.0954 H         1 GTP         0.2048
@<TRIPOS>BOND
     1    1    2 2
     2    1    3 1
     3    1    4 1
     4    1    5 1
     5    5    6 1
     6    6    7 2
     7    6    8 1
     8    6    9 1
     9    8   33 1
    10    9   10 1
    11   10   11 2
    12   10   12 1
    13   10   13 1
    14   13   14 1
    15   14   15 1
    16   14   34 1
    17   14   35 1
    18   15   16 1
    19   15   17 1
    20   15   36 1
    21   16   21 1
    22   17   18 1
    23   17   19 1
    24   17   37 1
    25   18   38 1
    26   19   20 1
    27   19   21 1
    28   19   39 1
    29   20   40 1
    30   21   22 1
    31   21   41 1
    32   22   23 ar
    33   22   32 ar
    34   23   24 ar
    35   23   42 1
    36   24   25 ar
    37   24   46 1
    38   25   26 ar
    39   25   32 ar
    40   26   27 2
    41   26   28 ar
    42   28   29 ar
    43   28   43 1
    44   29   30 1
    45   29   31 ar
    46   30   44 1
    47   30   45 1
    48   31   32 ar
@<TRIPOS>SUBSTRUCTURE
     1 GTP         1 GROUP 0 A     ****
@<TRIPOS>MOLECULE
[[[5-(2-amino-6-oxo-7,8-dihydro-1~{H}-purin-8-ylium-9-yl)-3,4-dihydroxy-tetrahydrofuran-2-yl]methoxy-oxido-phosphoryl]oxy-hydroxy-phosphoryl] phosphate
   46    48     1     0     0
SMALL
USER_CHARGES

@<TRIPOS>ATOM
      1 PG         -4.5302   -8.4025    0.0498 P.3       1 GTP        -1.1921
      2 O1G        -5.9950   -8.1824    0.4135 O.co2     1 GTP         0.3195
      3 O2G        -4.0492   -9.8386    0.2301 O.co2     1 GTP         0.3195
      4 O3G        -4.1061   -7.7612   -1.2673 O.co2     1 GTP         0.3195
      5 O3B        -3.6984   -7.5615    1.1980 O.3       1 GTP         0.4672
      6 PB         -3.7202   -5.9874    1.5695 P.3       1 GTP        -0.9715
      7 O1B        -3.3190   -5.0700    0.4524 O.2       1 GTP         0.2707
      8 O2B        -5.2213   -5.7663    2.1282 O.3       1 GTP         0.0326
      9 O3A        -2.8064   -5.9025    2.8989 O.3       1 GTP         0.4672
     10 PA         -1.2430   -6.3034    3.1398 P.3       1 GTP        -1.1062
     11 O1A        -0.8465   -5.8671    4.5334 O.co2     1 GTP         0.3195
     12 O2A        -1.0356   -7.7290    2.6772 O.co2     1 GTP         0.3195
     13 O5'        -0.5687   -5.2869    2.0510 O.3       1 GTP         0.1618
     14 C5'        -0.7840   -3.8935    2.2172 C.3       1 GTP         0.1504
     15 C4'        -0.0724   -3.1466    1.1027 C.3       1 GTP         0.1111
     16 O4'        -0.8674   -3.1929   -0.0945 O.3       1 GTP        -0.1436
     17 C3'         0.1338   -1.6715    1.4027 C.3       1 GTP         0.1111
     18 O3'         1.2893   -1.4445    2.1808 O.3       1 GTP        -0.2728
     19 C2'         0.2158   -1.0724    0.0128 C.3       1 GTP         0.1111
     20 O2'         1.5141   -1.2448   -0.5513 O.3       1 GTP        -0.2728
     21 C1'        -0.7897   -1.9176   -0.7583 C.3       1 GTP         0.2693
     22 N9         -2.1040   -1.3333   -0.7704 N.pl3     1 GTP        -0.3222
     23 C8         -3.0597   -1.5109    0.1345 C.ar      1 GTP         0.1640
     24 N7         -4.1618   -0.8291   -0.1607 N.pl3     1 GTP        -0.3688
     25 C5         -3.8764   -0.1805   -1.3310 C.ar      1 GTP         0.0648
     26 C6         -4.7187    0.7111   -2.1152 C.ar      1 GTP         0.3597
     27 O6         -5.8617    1.0043   -1.7939 O.2       1 GTP        -0.2755
     28 N1         -4.0405    1.1608   -3.2468 N.pl3     1 GTP        -0.1604
     29 C2         -2.7239    0.8013   -3.5822 C.ar      1 GTP         0.4468
     30 N2         -2.2399    1.3534   -4.7394 N.pl3     1 GTP        -0.5618
     31 N3         -2.0053   -0.0071   -2.8402 N.2       1 GTP        -0.4283
     32 C4         -2.6290   -0.4727   -1.7210 C.ar      1 GTP         0.2226
     33 HOB2       -5.9770   -5.8758    1.5125 H         1 GTP         0.2010
     34 H5'        -1.8598   -3.6968    2.1850 H         1 GTP        -0.0393
     35 H5''       -0.3933   -3.5903    3.1931 H         1 GTP        -0.0393
     36 H4'         0.8874   -3.6466    0.8805 H         1 GTP        -0.0393
     37 H3'        -0.7376   -1.2333    1.9867 H         1 GTP        -0.0393
     38 HO3'        1.3408   -0.4870    2.3219 H         1 GTP         0.2010
     39 H2'        -0.0384   -0.0310    0.0096 H         1 GTP        -0.0393
     40 HO2'        1.4998   -0.8412   -1.4369 H         1 GTP         0.2010
     41 H1'        -0.4769   -2.1002   -1.8093 H         1 GTP        -0.0393
     42 H8         -2.9610   -2.1316    1.0079 H         1 GTP         0.0000
     43 HN1        -4.5320    1.7923   -3.8726 H         1 GTP         0.0865
     44 HN21       -1.3128    1.1277   -5.0171 H         1 GTP         0.2048
     45 HN22       -2.8342    1.9586   -5.2572 H         1 GTP         0.2048
     46 H46        -5.0195   -0.8034    0.3729 H         1 GTP         0.2048
@<TRIPOS>BOND
     1    1    2 2
     2    1    3 1
     3    1    4 1
     4    1    5 1
     5    5    6 1
     6    6    7 2
     7    6    8 1
     8    6    9 1
     9    8   33 1
    10    9   10 1
    11   10   11 2
    12   10   12 1
    13   10   13 1
    14   13   14 1
    15   14   15 1
    16   14   34 1
    17   14   35 1
    18   15   16 1
    19   15   17 1
    20   15   36 1
    21   16   21 1
    22   17   18 1
    23   17   19 1
    24   17   37 1
    25   18   38 1
    26   19   20 1
    27   19   21 1
    28   19   39 1
    29   20   40 1
    30   21   22 1
    31   21   41 1
    32   22   23 ar
    33   22   32 ar
    34   23   24 ar
    35   23   42 1
    36   24   25 ar
    37   24   46 1
    38   25   26 ar
    39   25   32 ar
    40   26   27 2
    41   26   28 ar
    42   28   29 ar
    43   28   43 1
    44   29   30 1
    45   29   31 ar
    46   30   44 1
    47   30   45 1
    48   31   32 ar
@<TRIPOS>SUBSTRUCTURE
     1 GTP         1 GROUP 0 A     ****
@<TRIPOS>MOLECULE
[[[5-(2-amino-6-oxo-7,8-dihydro-1~{H}-purin-8-ylium-9-yl)-3,4-dihydroxy-tetrahydrofuran-2-yl]methoxy-oxido-phosphoryl]oxy-hydroxy-phosphoryl] phosphate
   46    48     1     0     0
SMALL
USER_CHARGES

@<TRIPOS>ATOM
      1 PG          2.1406    6.2159   -1.7068 P.3       1 GTP        -1.1921
      2 O1G         2.4753    6.4563   -0.2383 O.co2     1 GTP         0.3195
      3 O2G         0.6464    6.1712   -2.0093 O.co2     1 GTP         0.3195
      4 O3G         2.9517    7.0614   -2.6831 O.co2     1 GTP         0.3195
      5 O3B         2.6458    4.6722   -1.9886 O.3       1 GTP         0.4672
      6 PB          4.1158    4.0087   -1.8653 P.3       1 GTP        -0.9715
      7 O1B         5.1626    4.6267   -2.7444 O.2       1 GTP         0.2707
      8 O2B         4.4206    4.0918   -0.2796 O.3       1 GTP         0.0326
      9 O3A         3.8404    2.4367   -2.1148 O.3       1 GTP         0.4672
     10 PA          3.2070    1.6613   -3.4034 P.3       1 GTP        -1.1062
     11 O1A         1.7533    2.0603   -3.5348 O.co2     1 GTP         0.3195
     12 O2A         4.1649    1.8000   -4.5664 O.co2     1 GTP         0.3195
     13 O5'         3.2903    0.1346   -2.8241 O.3       1 GTP         0.1618
     14 C5'         2.2816   -0.2918   -1.9206 C.3       1 GTP         0.1504
     15 C4'         2.7248    0.0226   -0.4980 C.3       1 GTP         0.1111
     16 O4'         2.4697    1.4219   -0.2462 O.3       1 GTP        -0.1436
     17 C3'         1.9404   -0.7419    0.5596 C.3       1 GTP         0.1111
     18 O3'         2.7418   -0.8086    1.7389 O.3       1 GTP        -0.2728
     19 C2'         0.7477    0.1630    0.7858 C.3       1 GTP         0.1111
     20 O2'         0.1373   -0.0577    2.0407 O.3       1 GTP        -0.2728
     21 C1'         1.3733    1.5427    0.6747 C.3       1 GTP         0.2693
     22 N9          0.4520    2.5240    0.1767 N.pl3     1 GTP        -0.3222
     23 C8         -0.2009    2.4849   -0.9792 C.ar      1 GTP         0.1640
     24 N7         -0.9840    3.5454   -1.1481 N.pl3     1 GTP        -0.3688
     25 C5         -0.8090    4.3005   -0.0206 C.ar      1 GTP         0.0648
     26 C6         -1.4206    5.5724    0.3362 C.ar      1 GTP         0.3597
     27 O6         -2.2199    6.1544   -0.3836 O.2       1 GTP        -0.2755
     28 N1         -0.9680    6.0043    1.5817 N.pl3     1 GTP        -0.1604
     29 C2         -0.0474    5.3055    2.3814 C.ar      1 GTP         0.4468
     30 N2          0.2680    5.9024    3.5740 N.pl3     1 GTP        -0.5618
     31 N3          0.4755    4.1601    2.0138 N.2       1 GTP        -0.4283
     32 C4          0.0611    3.6981    0.8001 C.ar      1 GTP         0.2226
     33 HOB2        4.5220    4.9737    0.1379 H         1 GTP         0.2010
     34 H5'         1.3514    0.2330   -2.1577 H         1 GTP        -0.0393
     35 H5''        2.1280   -1.3678   -2.0460 H         1 GTP        -0.0393
     36 H4'         3.8044   -0.1397   -0.4040 H         1 GTP        -0.0393
     37 H3'         1.6764   -1.7639    0.2728 H         1 GTP        -0.0393
     38 HO3'        3.5554   -1.2733    1.4914 H         1 GTP         0.2010
     39 H2'        -0.0011    0.0027    0.0003 H         1 GTP        -0.0393
     40 HO2'       -0.1563   -0.9855    2.0596 H         1 GTP         0.2010
     41 H1'         1.7826    1.9024    1.6451 H         1 GTP        -0.0393
     42 H8         -0.1126    1.6906   -1.6997 H         1 GTP         0.0000
     43 HN1        -1.3285    6.8855    1.9361 H         1 GTP         0.0865
     44 HN21        0.9153    5.4446    4.1732 H         1 GTP         0.2048
     45 HN22       -0.1624    6.7706    3.7948 H         1 GTP         0.2048
     46 H46        -1.5768    3.7405   -1.9429 H         1 GTP         0.2048
@<TRIPOS>BOND
     1    1    2 2
     2    1    3 1
     3    1    4 1
     4    1    5 1
     5    5    6 1
     6    6    7 2
     7    6    8 1
     8    6    9 1
     9    8   33 1
    10    9   10 1
    11   10   11 2
    12   10   12 1
    13   10   13 1
    14   13   14 1
    15   14   15 1
    16   14   34 1
    17   14   35 1
    18   15   16 1
    19   15   17 1
    20   15   36 1
    21   16   21 1
    22   17   18 1
    23   17   19 1
    24   17   37 1
    25   18   38 1
    26   19   20 1
    27   19   21 1
    28   19   39 1
    29   20   40 1
    30   21   22 1
    31   21   41 1
    32   22   23 ar
    33   22   32 ar
    34   23   24 ar
    35   23   42 1
    36   24   25 ar
    37   24   46 1
    38   25   26 ar
    39   25   32 ar
    40   26   27 2
    41   26   28 ar
    42   28   29 ar
    43   28   43 1
    44   29   30 1
    45   29   31 ar
    46   30   44 1
    47   30   45 1
    48   31   32 ar
@<TRIPOS>SUBSTRUCTURE
     1 GTP         1 GROUP 0 A     ****
@<TRIPOS>MOLECULE
[[[5-(2-amino-6-oxo-7,8-dihydro-1~{H}-purin-8-ylium-9-yl)-3,4-dihydroxy-tetrahydrofuran-2-yl]methoxy-oxido-phosphoryl]oxy-hydroxy-phosphoryl] phosphate
   46    48     1     0     0
SMALL
USER_CHARGES

@<TRIPOS>ATOM
      1 PG          4.5997   -3.9677   -7.4693 P.3       1 GTP        -1.1921
      2 O1G         4.3478   -5.3591   -6.8978 O.co2     1 GTP         0.3195
      3 O2G         6.0746   -3.6178   -7.6384 O.co2     1 GTP         0.3195
      4 O3G         3.7311   -3.6153   -8.6723 O.co2     1 GTP         0.3195
      5 O3B         4.0859   -2.9448   -6.2830 O.3       1 GTP         0.4672
      6 PB          2.6280   -2.7710   -5.6042 P.3       1 GTP        -0.9715
      7 O1B         1.5305   -2.3935   -6.5547 O.2       1 GTP         0.2707
      8 O2B         2.4132   -4.1788   -4.8384 O.3       1 GTP         0.0326
      9 O3A         2.8955   -1.7248   -4.4028 O.3       1 GTP         0.4672
     10 PA          3.0383   -0.0994   -4.4226 P.3       1 GTP        -1.1062
     11 O1A         4.2986    0.2610   -5.1786 O.co2     1 GTP         0.3195
     12 O2A         1.7002    0.4960   -4.8028 O.co2     1 GTP         0.3195
     13 O5'         3.2903    0.1346   -2.8241 O.3       1 GTP         0.1618
     14 C5'         2.2816   -0.2918   -1.9206 C.3       1 GTP         0.1504
     15 C4'         2.7248    0.0226   -0.4980 C.3       1 GTP         0.1111
     16 O4'         2.4697    1.4219   -0.2462 O.3       1 GTP        -0.1436
     17 C3'         1.9404   -0.7419    0.5596 C.3       1 GTP         0.1111
     18 O3'         2.7418   -0.8086    1.7389 O.3       1 GTP        -0.2728
     19 C2'         0.7477    0.1630    0.7858 C.3       1 GTP         0.1111
     20 O2'         0.1373   -0.0577    2.0407 O.3       1 GTP        -0.2728
     21 C1'         1.3733    1.5427    0.6747 C.3       1 GTP         0.2693
     22 N9          0.4520    2.5240    0.1767 N.pl3     1 GTP        -0.3222
     23 C8          0.5671    3.2221   -0.9473 C.ar      1 GTP         0.1640
     24 N7         -0.4560    4.0508   -1.1290 N.pl3     1 GTP        -0.3688
     25 C5         -1.2671    3.8585   -0.0441 C.ar      1 GTP         0.0648
     26 C6         -2.5318    4.5014    0.2817 C.ar      1 GTP         0.3597
     27 O6         -3.0527    5.3493   -0.4293 O.2       1 GTP        -0.2755
     28 N1         -3.0357    4.0149    1.4868 N.pl3     1 GTP        -0.1604
     29 C2         -2.4069    3.0373    2.2768 C.ar      1 GTP         0.4468
     30 N2         -3.0679    2.6964    3.4278 N.pl3     1 GTP        -0.5618
     31 N3         -1.2653    2.4872    1.9379 N.2       1 GTP        -0.4283
     32 C4         -0.7342    2.9334    0.7643 C.ar      1 GTP         0.2226
     33 HOB2        2.3319   -4.9995   -5.3695 H         1 GTP         0.2010
     34 H5'         1.3514    0.2330   -2.1577 H         1 GTP        -0.0393
     35 H5''        2.1280   -1.3678   -2.0460 H         1 GTP        -0.0393
     36 H4'         3.8044   -0.1397   -0.4040 H         1 GTP        -0.0393
     37 H3'         1.6764   -1.7639    0.2728 H         1 GTP        -0.0393
     38 HO3'        3.5554   -1.2733    1.4914 H         1 GTP         0.2010
     39 H2'        -0.0011    0.0027    0.0003 H         1 GTP        -0.0393
     40 HO2'        0.8082    0.1199    2.7232 H         1 GTP         0.2010
     41 H1'         1.7826    1.9024    1.6451 H         1 GTP        -0.0393
     42 H8          1.3888    3.1325   -1.6361 H         1 GTP         0.0000
     43 HN1        -3.9188    4.3932    1.8170 H         1 GTP         0.0865
     44 HN21       -2.6609    2.0087    4.0186 H         1 GTP         0.2048
     45 HN22       -3.9293    3.1496    3.6283 H         1 GTP         0.2048
     46 H46        -0.5938    4.6820   -1.9060 H         1 GTP         0.2048
@<TRIPOS>BOND
     1    1    2 2
     2    1    3 1
     3    1    4 1
     4    1    5 1
     5    5    6 1
     6    6    7 2
     7    6    8 1
     8    6    9 1
     9    8   33 1
    10    9   10 1
    11   10   11 2
    12   10   12 1
    13   10   13 1
    14   13   14 1
    15   14   15 1
    16   14   34 1
    17   14   35 1
    18   15   16 1
    19   15   17 1
    20   15   36 1
    21   16   21 1
    22   17   18 1
    23   17   19 1
    24   17   37 1
    25   18   38 1
    26   19   20 1
    27   19   21 1
    28   19   39 1
    29   20   40 1
    30   21   22 1
    31   21   41 1
    32   22   23 ar
    33   22   32 ar
    34   23   24 ar
    35   23   42 1
    36   24   25 ar
    37   24   46 1
    38   25   26 ar
    39   25   32 ar
    40   26   27 2
    41   26   28 ar
    42   28   29 ar
    43   28   43 1
    44   29   30 1
    45   29   31 ar
    46   30   44 1
    47   30   45 1
    48   31   32 ar
@<TRIPOS>SUBSTRUCTURE
     1 GTP         1 GROUP 0 A     ****
@<TRIPOS>MOLECULE
[[[5-(2-amino-6-oxo-7,8-dihydro-1~{H}-purin-8-ylium-9-yl)-3,4-dihydroxy-tetrahydrofuran-2-yl]methoxy-oxido-phosphoryl]oxy-hydroxy-phosphoryl] phosphate
   46    48     1     0     0
SMALL
USER_CHARGES

@<TRIPOS>ATOM
      1 PG          1.9852   -8.3094    1.2268 P.3       1 GTP        -1.1921
      2 O1G         0.9690   -9.4468    1.2301 O.co2     1 GTP         0.3195
      3 O2G         3.3383   -8.6803    0.6287 O.co2     1 GTP         0.3195
      4 O3G         1.4319   -6.9733    0.7422 O.co2     1 GTP         0.3195
      5 O3B         2.3154   -8.0583    2.8222 O.3       1 GTP         0.4672
      6 PB          1.3417   -7.6364    4.0430 P.3       1 GTP        -0.9715
      7 O1B         0.2195   -8.5941    4.3148 O.2       1 GTP         0.2707
      8 O2B         2.3705   -7.4243    5.2722 O.3       1 GTP         0.0326
      9 O3A         0.8929   -6.1320    3.6627 O.3       1 GTP         0.4672
     10 PA         -0.0868   -5.0868    4.4441 P.3       1 GTP        -1.1062
     11 O1A        -1.4944   -5.6417    4.4209 O.co2     1 GTP         0.3195
     12 O2A         0.5758   -4.6877    5.7446 O.co2     1 GTP         0.3195
     13 O5'         0.0118   -3.8395    3.3916 O.3       1 GTP         0.1618
     14 C5'        -0.7840   -3.8935    2.2172 C.3       1 GTP         0.1504
     15 C4'        -0.0724   -3.1466    1.1027 C.3       1 GTP         0.1111
     16 O4'        -0.8674   -3.1929   -0.0945 O.3       1 GTP        -0.1436
     17 C3'         0.1338   -1.6715    1.4027 C.3       1 GTP         0.1111
     18 O3'         1.2893   -1.4445    2.1808 O.3       1 GTP        -0.2728
     19 C2'         0.2158   -1.0724    0.0128 C.3       1 GTP         0.1111
     20 O2'         1.5141   -1.2448   -0.5513 O.3       1 GTP        -0.2728
     21 C1'        -0.7897   -1.9176   -0.7583 C.3       1 GTP         0.2693
     22 N9         -2.1040   -1.3333   -0.7704 N.pl3     1 GTP        -0.3222
     23 C8         -3.0597   -1.5109    0.1345 C.ar      1 GTP         0.1640
     24 N7         -4.1618   -0.8291   -0.1607 N.pl3     1 GTP        -0.3688
     25 C5         -3.8764   -0.1805   -1.3310 C.ar      1 GTP         0.0648
     26 C6         -4.7187    0.7111   -2.1152 C.ar      1 GTP         0.3597
     27 O6         -5.8617    1.0043   -1.7939 O.2       1 GTP        -0.2755
     28 N1         -4.0405    1.1608   -3.2468 N.pl3     1 GTP        -0.1604
     29 C2         -2.7239    0.8013   -3.5822 C.ar      1 GTP         0.4468
     30 N2         -2.2399    1.3534   -4.7394 N.pl3     1 GTP        -0.5618
     31 N3         -2.0053   -0.0071   -2.8402 N.2       1 GTP        -0.4283
     32 C4         -2.6290   -0.4727   -1.7210 C.ar      1 GTP         0.2226
     33 HOB2        2.0272   -7.0772    6.1230 H         1 GTP         0.2010
     34 H5'        -0.9348   -4.9415    1.9415 H         1 GTP        -0.0393
     35 H5''       -1.7548   -3.4350    2.4278 H         1 GTP        -0.0393
     36 H4'         0.8874   -3.6466    0.8805 H         1 GTP        -0.0393
     37 H3'        -0.7376   -1.2333    1.9867 H         1 GTP        -0.0393
     38 HO3'        1.1626   -1.9325    3.0084 H         1 GTP         0.2010
     39 H2'        -0.0384   -0.0310    0.0096 H         1 GTP        -0.0393
     40 HO2'        2.1463   -0.7958    0.0370 H         1 GTP         0.2010
     41 H1'        -0.4769   -2.1002   -1.8093 H         1 GTP        -0.0393
     42 H8         -2.9610   -2.1316    1.0079 H         1 GTP         0.0000
     43 HN1        -4.5320    1.7923   -3.8726 H         1 GTP         0.0865
     44 HN21       -1.3128    1.1277   -5.0171 H         1 GTP         0.2048
     45 HN22       -2.8342    1.9586   -5.2572 H         1 GTP         0.2048
     46 H46        -5.0195   -0.8034    0.3729 H         1 GTP         0.2048
@<TRIPOS>BOND
     1    1    2 2
     2    1    3 1
     3    1    4 1
     4    1    5 1
     5    5    6 1
     6    6    7 2
     7    6    8 1
     8    6    9 1
     9    8   33 1
    10    9   10 1
    11   10   11 2
    12   10   12 1
    13   10   13 1
    14   13   14 1
    15   14   15 1
    16   14   34 1
    17   14   35 1
    18   15   16 1
    19   15   17 1
    20   15   36 1
    21   16   21 1
    22   17   18 1
    23   17   19 1
    24   17   37 1
    25   18   38 1
    26   19   20 1
    27   19   21 1
    28   19   39 1
    29   20   40 1
    30   21   22 1
    31   21   41 1
    32   22   23 ar
    33   22   32 ar
    34   23   24 ar
    35   23   42 1
    36   24   25 ar
    37   24   46 1
    38   25   26 ar
    39   25   32 ar
    40   26   27 2
    41   26   28 ar
    42   28   29 ar
    43   28   43 1
    44   29   30 1
    45   29   31 ar
    46   30   44 1
    47   30   45 1
    48   31   32 ar
@<TRIPOS>SUBSTRUCTURE
     1 GTP         1 GROUP 0 A     ****
@<TRIPOS>MOLECULE
[[[5-(2-amino-6-oxo-7,8-dihydro-1~{H}-purin-8-ylium-9-yl)-3,4-dihydroxy-tetrahydrofuran-2-yl]methoxy-oxido-phosphoryl]oxy-hydroxy-phosphoryl] phosphate
   46    48     1     0     0
SMALL
USER_CHARGES

@<TRIPOS>ATOM
      1 PG          3.8922   -7.3376    2.5386 P.3       1 GTP        -1.1921
      2 O1G         3.8986   -8.8520    2.3574 O.co2     1 GTP         0.3195
      3 O2G         5.2511   -6.7439    2.8951 O.co2     1 GTP         0.3195
      4 O3G         3.1435   -6.5771    1.4490 O.co2     1 GTP         0.3195
      5 O3B         2.9889   -7.0972    3.8964 O.3       1 GTP         0.4672
      6 PB          1.4506   -7.4810    4.2167 P.3       1 GTP        -0.9715
      7 O1B         1.1360   -8.9456    4.1360 O.2       1 GTP         0.2707
      8 O2B         1.2020   -6.8086    5.6659 O.3       1 GTP         0.0326
      9 O3A         0.6105   -6.5349    3.2124 O.3       1 GTP         0.4672
     10 PA         -0.9993   -6.3890    2.9889 P.3       1 GTP        -1.1062
     11 O1A        -1.5197   -7.6818    2.3994 O.co2     1 GTP         0.3195
     12 O2A        -1.6072   -5.8000    4.2432 O.co2     1 GTP         0.3195
     13 O5'        -0.9724   -5.2440    1.8220 O.3       1 GTP         0.1618
     14 C5'        -0.7840   -3.8935    2.2172 C.3       1 GTP         0.1504
     15 C4'        -0.0724   -3.1466    1.1027 C.3       1 GTP         0.1111
     16 O4'        -0.8674   -3.1929   -0.0945 O.3       1 GTP        -0.1436
     17 C3'         0.1338   -1.6715    1.4027 C.3       1 GTP         0.1111
     18 O3'         1.2893   -1.4445    2.1808 O.3       1 GTP        -0.2728
     19 C2'         0.2158   -1.0724    0.0128 C.3       1 GTP         0.1111
     20 O2'         1.5141   -1.2448   -0.5513 O.3       1 GTP        -0.2728
     21 C1'        -0.7897   -1.9176   -0.7583 C.3       1 GTP         0.2693
     22 N9         -2.1040   -1.3333   -0.7704 N.pl3     1 GTP        -0.3222
     23 C8         -3.0597   -1.5109    0.1345 C.ar      1 GTP         0.1640
     24 N7         -4.1618   -0.8291   -0.1607 N.pl3     1 GTP        -0.3688
     25 C5         -3.8764   -0.1805   -1.3310 C.ar      1 GTP         0.0648
     26 C6         -4.7187    0.7111   -2.1152 C.ar      1 GTP         0.3597
     27 O6         -5.8617    1.0043   -1.7939 O.2       1 GTP        -0.2755
     28 N1         -4.0405    1.1608   -3.2468 N.pl3     1 GTP        -0.1604
     29 C2         -2.7239    0.8013   -3.5822 C.ar      1 GTP         0.4468
     30 N2         -2.2399    1.3534   -4.7394 N.pl3     1 GTP        -0.5618
     31 N3         -2.0053   -0.0071   -2.8402 N.2       1 GTP        -0.4283
     32 C4         -2.6290   -0.4727   -1.7210 C.ar      1 GTP         0.2226
     33 HOB2        0.2995   -6.8298    6.0496 H         1 GTP         0.2010
     34 H5'        -1.7618   -3.4448    2.4164 H         1 GTP        -0.0393
     35 H5''       -0.1874   -3.8744    3.1341 H         1 GTP        -0.0393
     36 H4'         0.8874   -3.6466    0.8805 H         1 GTP        -0.0393
     37 H3'        -0.7376   -1.2333    1.9867 H         1 GTP        -0.0393
     38 HO3'        1.1626   -1.9325    3.0084 H         1 GTP         0.2010
     39 H2'        -0.0384   -0.0310    0.0096 H         1 GTP        -0.0393
     40 HO2'        2.1463   -0.7958    0.0370 H         1 GTP         0.2010
     41 H1'        -0.4769   -2.1002   -1.8093 H         1 GTP        -0.0393
     42 H8         -2.9610   -2.1316    1.0079 H         1 GTP         0.0000
     43 HN1        -4.5320    1.7923   -3.8726 H         1 GTP         0.0865
     44 HN21       -1.3128    1.1277   -5.0171 H         1 GTP         0.2048
     45 HN22       -2.8342    1.9586   -5.2572 H         1 GTP         0.2048
     46 H46        -5.0195   -0.8034    0.3729 H         1 GTP         0.2048
@<TRIPOS>BOND
     1    1    2 2
     2    1    3 1
     3    1    4 1
     4    1    5 1
     5    5    6 1
     6    6    7 2
     7    6    8 1
     8    6    9 1
     9    8   33 1
    10    9   10 1
    11   10   11 2
    12   10   12 1
    13   10   13 1
    14   13   14 1
    15   14   15 1
    16   14   34 1
    17   14   35 1
    18   15   16 1
    19   15   17 1
    20   15   36 1
    21   16   21 1
    22   17   18 1
    23   17   19 1
    24   17   37 1
    25   18   38 1
    26   19   20 1
    27   19   21 1
    28   19   39 1
    29   20   40 1
    30   21   22 1
    31   21   41 1
    32   22   23 ar
    33   22   32 ar
    34   23   24 ar
    35   23   42 1
    36   24   25 ar
    37   24   46 1
    38   25   26 ar
    39   25   32 ar
    40   26   27 2
    41   26   28 ar
    42   28   29 ar
    43   28   43 1
    44   29   30 1
    45   29   31 ar
    46   30   44 1
    47   30   45 1
    48   31   32 ar
@<TRIPOS>SUBSTRUCTURE
     1 GTP         1 GROUP 0 A     ****
@<TRIPOS>MOLECULE
[[[5-(2-amino-6-oxo-7,8-dihydro-1~{H}-purin-8-ylium-9-yl)-3,4-dihydroxy-tetrahydrofuran-2-yl]methoxy-oxido-phosphoryl]oxy-hydroxy-phosphoryl] phosphate
   46    48     1     0     0
SMALL
USER_CHARGES

@<TRIPOS>ATOM
      1 PG         -1.8866   -3.9239   -5.4926 P.3       1 GTP        -1.1921
      2 O1G        -1.5050   -5.3985   -5.5711 O.co2     1 GTP         0.3195
      3 O2G        -1.6482   -3.1459   -6.7826 O.co2     1 GTP         0.3195
      4 O3G        -3.2406   -3.6585   -4.8429 O.co2     1 GTP         0.3195
      5 O3B        -0.7959   -3.2802   -4.4373 O.3       1 GTP         0.4672
      6 PB         -0.4988   -3.6340   -2.8872 P.3       1 GTP        -0.9715
      7 O1B        -1.6656   -3.4480   -1.9628 O.2       1 GTP         0.2707
      8 O2B         0.0783   -5.1425   -2.9626 O.3       1 GTP         0.0326
      9 O3A         0.8069   -2.7472   -2.5432 O.3       1 GTP         0.4672
     10 PA          2.1381   -2.4286   -3.4316 P.3       1 GTP        -1.1062
     11 O1A         2.9118   -3.7163   -3.6129 O.co2     1 GTP         0.3195
     12 O2A         1.7319   -1.5855   -4.6206 O.co2     1 GTP         0.3195
     13 O5'         2.9216   -1.4836   -2.3516 O.3       1 GTP         0.1618
     14 C5'         2.2816   -0.2918   -1.9206 C.3       1 GTP         0.1504
     15 C4'         2.7248    0.0226   -0.4980 C.3       1 GTP         0.1111
     16 O4'         2.4697    1.4219   -0.2462 O.3       1 GTP        -0.1436
     17 C3'         1.9404   -0.7419    0.5596 C.3       1 GTP         0.1111
     18 O3'         2.7418   -0.8086    1.7389 O.3       1 GTP        -0.2728
     19 C2'         0.7477    0.1630    0.7858 C.3       1 GTP         0.1111
     20 O2'         0.1373   -0.0577    2.0407 O.3       1 GTP        -0.2728
     21 C1'         1.3733    1.5427    0.6747 C.3       1 GTP         0.2693
     22 N9          0.4520    2.5240    0.1767 N.pl3     1 GTP        -0.3222
     23 C8         -0.2009    2.4849   -0.9792 C.ar      1 GTP         0.1640
     24 N7         -0.9840    3.5454   -1.1481 N.pl3     1 GTP        -0.3688
     25 C5         -0.8090    4.3005   -0.0206 C.ar      1 GTP         0.0648
     26 C6         -1.4206    5.5724    0.3362 C.ar      1 GTP         0.3597
     27 O6         -2.2199    6.1544   -0.3836 O.2       1 GTP        -0.2755
     28 N1         -0.9680    6.0043    1.5817 N.pl3     1 GTP        -0.1604
     29 C2         -0.0474    5.3055    2.3814 C.ar      1 GTP         0.4468
     30 N2          0.2680    5.9024    3.5740 N.pl3     1 GTP        -0.5618
     31 N3          0.4755    4.1601    2.0138 N.2       1 GTP        -0.4283
     32 C4          0.0611    3.6981    0.8001 C.ar      1 GTP         0.2226
     33 HOB2       -0.5165   -5.8631   -3.2612 H         1 GTP         0.2010
     34 H5'         2.5589    0.5217   -2.5976 H         1 GTP        -0.0393
     35 H5''        1.1982   -0.4388   -1.9617 H         1 GTP        -0.0393
     36 H4'         3.8044   -0.1397   -0.4040 H         1 GTP        -0.0393
     37 H3'         1.6764   -1.7639    0.2728 H         1 GTP        -0.0393
     38 HO3'        2.2232   -1.2979    2.3953 H         1 GTP         0.2010
     39 H2'        -0.0011    0.0027    0.0003 H         1 GTP        -0.0393
     40 HO2'       -0.1563   -0.9855    2.0596 H         1 GTP         0.2010
     41 H1'         1.7826    1.9024    1.6451 H         1 GTP        -0.0393
     42 H8         -0.1126    1.6906   -1.6997 H         1 GTP         0.0000
     43 HN1        -1.3285    6.8855    1.9361 H         1 GTP         0.0865
     44 HN21        0.9153    5.4446    4.1732 H         1 GTP         0.2048
     45 HN22       -0.1624    6.7706    3.7948 H         1 GTP         0.2048
     46 H46        -1.5768    3.7405   -1.9429 H         1 GTP         0.2048
@<TRIPOS>BOND
     1    1    2 2
     2    1    3 1
     3    1    4 1
     4    1    5 1
     5    5    6 1
     6    6    7 2
     7    6    8 1
     8    6    9 1
     9    8   33 1
    10    9   10 1
    11   10   11 2
    12   10   12 1
    13   10   13 1
    14   13   14 1
    15   14   15 1
    16   14   34 1
    17   14   35 1
    18   15   16 1
    19   15   17 1
    20   15   36 1
    21   16   21 1
    22   17   18 1
    23   17   19 1
    24   17   37 1
    25   18   38 1
    26   19   20 1
    27   19   21 1
    28   19   39 1
    29   20   40 1
    30   21   22 1
    31   21   41 1
    32   22   23 ar
    33   22   32 ar
    34   23   24 ar
    35   23   42 1
    36   24   25 ar
    37   24   46 1
    38   25   26 ar
    39   25   32 ar
    40   26   27 2
    41   26   28 ar
    42   28   29 ar
    43   28   43 1
    44   29   30 1
    45   29   31 ar
    46   30   44 1
    47   30   45 1
    48   31   32 ar
@<TRIPOS>SUBSTRUCTURE
     1 GTP         1 GROUP 0 A     ****
@<TRIPOS>MOLECULE
[[[5-(2-amino-6-oxo-7,8-dihydro-1~{H}-purin-8-ylium-9-yl)-3,4-dihydroxy-tetrahydrofuran-2-yl]methoxy-oxido-phosphoryl]oxy-hydroxy-phosphoryl] phosphate
   46    48     1     0     0
SMALL
USER_CHARGES

@<TRIPOS>ATOM
      1 PG         -2.8035   -6.7341    7.6353 P.3       1 GTP        -1.1921
      2 O1G        -3.0593   -8.2307    7.4902 O.co2     1 GTP         0.3195
      3 O2G        -4.0681   -5.8817    7.6548 O.co2     1 GTP         0.3195
      4 O3G        -1.7877   -6.3715    8.7136 O.co2     1 GTP         0.3195
      5 O3B        -2.0656   -6.3118    6.2230 O.3       1 GTP         0.4672
      6 PB         -0.6807   -6.8280    5.5658 P.3       1 GTP        -0.9715
      7 O1B         0.5419   -6.5887    6.4016 O.2       1 GTP         0.2707
      8 O2B        -0.9900   -8.3808    5.2381 O.3       1 GTP         0.0326
      9 O3A        -0.6728   -6.1292    4.1093 O.3       1 GTP         0.4672
     10 PA         -1.7238   -6.2523    2.8671 P.3       1 GTP        -1.1062
     11 O1A        -1.6594   -7.6631    2.3238 O.co2     1 GTP         0.3195
     12 O2A        -3.0395   -5.6347    3.2878 O.co2     1 GTP         0.3195
     13 O5'        -0.9724   -5.2440    1.8220 O.3       1 GTP         0.1618
     14 C5'        -0.7840   -3.8935    2.2172 C.3       1 GTP         0.1504
     15 C4'        -0.0724   -3.1466    1.1027 C.3       1 GTP         0.1111
     16 O4'        -0.8674   -3.1929   -0.0945 O.3       1 GTP        -0.1436
     17 C3'         0.1338   -1.6715    1.4027 C.3       1 GTP         0.1111
     18 O3'         1.2893   -1.4445    2.1808 O.3       1 GTP        -0.2728
     19 C2'         0.2158   -1.0724    0.0128 C.3       1 GTP         0.1111
     20 O2'         1.5141   -1.2448   -0.5513 O.3       1 GTP        -0.2728
     21 C1'        -0.7897   -1.9176   -0.7583 C.3       1 GTP         0.2693
     22 N9         -2.1040   -1.3333   -0.7704 N.pl3     1 GTP        -0.3222
     23 C8         -3.0597   -1.5109    0.1345 C.ar      1 GTP         0.1640
     24 N7         -4.1618   -0.8291   -0.1607 N.pl3     1 GTP        -0.3688
     25 C5         -3.8764   -0.1805   -1.3310 C.ar      1 GTP         0.0648
     26 C6         -4.7187    0.7111   -2.1152 C.ar      1 GTP         0.3597
     27 O6         -5.8617    1.0043   -1.7939 O.2       1 GTP        -0.2755
     28 N1         -4.0405    1.1608   -3.2468 N.pl3     1 GTP        -0.1604
     29 C2         -2.7239    0.8013   -3.5822 C.ar      1 GTP         0.4468
     30 N2         -2.2399    1.3534   -4.7394 N.pl3     1 GTP        -0.5618
     31 N3         -2.0053   -0.0071   -2.8402 N.2       1 GTP        -0.4283
     32 C4         -2.6290   -0.4727   -1.7210 C.ar      1 GTP         0.2226
     33 HOB2       -0.3205   -8.9043    4.7484 H         1 GTP         0.2010
     34 H5'        -1.7618   -3.4448    2.4164 H         1 GTP        -0.0393
     35 H5''       -0.1874   -3.8744    3.1341 H         1 GTP        -0.0393
     36 H4'         0.8874   -3.6466    0.8805 H         1 GTP        -0.0393
     37 H3'        -0.7376   -1.2333    1.9867 H         1 GTP        -0.0393
     38 HO3'        1.3408   -0.4870    2.3219 H         1 GTP         0.2010
     39 H2'        -0.0384   -0.0310    0.0096 H         1 GTP        -0.0393
     40 HO2'        2.1463   -0.7958    0.0370 H         1 GTP         0.2010
     41 H1'        -0.4769   -2.1002   -1.8093 H         1 GTP        -0.0393
     42 H8         -2.9610   -2.1316    1.0079 H         1 GTP         0.0000
     43 HN1        -4.5320    1.7923   -3.8726 H         1 GTP         0.0865
     44 HN21       -1.3128    1.1277   -5.0171 H         1 GTP         0.2048
     45 HN22       -2.8342    1.9586   -5.2572 H         1 GTP         0.2048
     46 H46        -5.0195   -0.8034    0.3729 H         1 GTP         0.2048
@<TRIPOS>BOND
     1    1    2 2
     2    1    3 1
     3    1    4 1
     4    1    5 1
     5    5    6 1
     6    6    7 2
     7    6    8 1
     8    6    9 1
     9    8   33 1
    10    9   10 1
    11   10   11 2
    12   10   12 1
    13   10   13 1
    14   13   14 1
    15   14   15 1
    16   14   34 1
    17   14   35 1
    18   15   16 1
    19   15   17 1
    20   15   36 1
    21   16   21 1
    22   17   18 1
    23   17   19 1
    24   17   37 1
    25   18   38 1
    26   19   20 1
    27   19   21 1
    28   19   39 1
    29   20   40 1
    30   21   22 1
    31   21   41 1
    32   22   23 ar
    33   22   32 ar
    34   23   24 ar
    35   23   42 1
    36   24   25 ar
    37   24   46 1
    38   25   26 ar
    39   25   32 ar
    40   26   27 2
    41   26   28 ar
    42   28   29 ar
    43   28   43 1
    44   29   30 1
    45   29   31 ar
    46   30   44 1
    47   30   45 1
    48   31   32 ar
@<TRIPOS>SUBSTRUCTURE
     1 GTP         1 GROUP 0 A     ****
@<TRIPOS>MOLECULE
[[[5-(2-amino-6-oxo-7,8-dihydro-1~{H}-purin-8-ylium-9-yl)-3,4-dihydroxy-tetrahydrofuran-2-yl]methoxy-oxido-phosphoryl]oxy-hydroxy-phosphoryl] phosphate
   46    48     1     0     0
SMALL
USER_CHARGES

@<TRIPOS>ATOM
      1 PG          3.7642    1.2621   -7.9465 P.3       1 GTP        -1.1921
      2 O1G         4.3042    2.6604   -7.6648 O.co2     1 GTP         0.3195
      3 O2G         2.3021    1.2311   -8.3800 O.co2     1 GTP         0.3195
      4 O3G         4.6863    0.3906   -8.7928 O.co2     1 GTP         0.3195
      5 O3B         3.7529    0.5286   -6.4703 O.3       1 GTP         0.4672
      6 PB          4.9617    0.2214   -5.4404 P.3       1 GTP        -0.9715
      7 O1B         6.0494   -0.6549   -5.9877 O.2       1 GTP         0.2707
      8 O2B         5.4384    1.6987   -4.9880 O.3       1 GTP         0.0326
      9 O3A         4.2047   -0.3481   -4.1319 O.3       1 GTP         0.4672
     10 PA          3.2396   -1.6509   -3.9467 P.3       1 GTP        -1.1062
     11 O1A         1.9663   -1.4185   -4.7305 O.co2     1 GTP         0.3195
     12 O2A         4.0706   -2.8981   -4.1552 O.co2     1 GTP         0.3195
     13 O5'         2.9216   -1.4836   -2.3516 O.3       1 GTP         0.1618
     14 C5'         2.2816   -0.2918   -1.9206 C.3       1 GTP         0.1504
     15 C4'         2.7248    0.0226   -0.4980 C.3       1 GTP         0.1111
     16 O4'         2.4697    1.4219   -0.2462 O.3       1 GTP        -0.1436
     17 C3'         1.9404   -0.7419    0.5596 C.3       1 GTP         0.1111
     18 O3'         2.7418   -0.8086    1.7389 O.3       1 GTP        -0.2728
     19 C2'         0.7477    0.1630    0.7858 C.3       1 GTP         0.1111
     20 O2'         0.1373   -0.0577    2.0407 O.3       1 GTP        -0.2728
     21 C1'         1.3733    1.5427    0.6747 C.3       1 GTP         0.2693
     22 N9          0.4520    2.5240    0.1767 N.pl3     1 GTP        -0.3222
     23 C8         -0.2009    2.4849   -0.9792 C.ar      1 GTP         0.1640
     24 N7         -0.9840    3.5454   -1.1481 N.pl3     1 GTP        -0.3688
     25 C5         -0.8090    4.3005   -0.0206 C.ar      1 GTP         0.0648
     26 C6         -1.4206    5.5724    0.3362 C.ar      1 GTP         0.3597
     27 O6         -2.2199    6.1544   -0.3836 O.2       1 GTP        -0.2755
     28 N1         -0.9680    6.0043    1.5817 N.pl3     1 GTP        -0.1604
     29 C2         -0.0474    5.3055    2.3814 C.ar      1 GTP         0.4468
     30 N2          0.2680    5.9024    3.5740 N.pl3     1 GTP        -0.5618
     31 N3          0.4755    4.1601    2.0138 N.2       1 GTP        -0.4283
     32 C4          0.0611    3.6981    0.8001 C.ar      1 GTP         0.2226
     33 HOB2        5.8411    2.2922   -5.6571 H         1 GTP         0.2010
     34 H5'         2.5589    0.5217   -2.5976 H         1 GTP        -0.0393
     35 H5''        1.1982   -0.4388   -1.9617 H         1 GTP        -0.0393
     36 H4'         3.8044   -0.1397   -0.4040 H         1 GTP        -0.0393
     37 H3'         1.6764   -1.7639    0.2728 H         1 GTP        -0.0393
     38 HO3'        2.2232   -1.2979    2.3953 H         1 GTP         0.2010
     39 H2'        -0.0011    0.0027    0.0003 H         1 GTP        -0.0393
     40 HO2'       -0.6141    0.5574    2.1082 H         1 GTP         0.2010
     41 H1'         1.7826    1.9024    1.6451 H         1 GTP        -0.0393
     42 H8         -0.1126    1.6906   -1.6997 H         1 GTP         0.0000
     43 HN1        -1.3285    6.8855    1.9361 H         1 GTP         0.0865
     44 HN21        0.9153    5.4446    4.1732 H         1 GTP         0.2048
     45 HN22       -0.1624    6.7706    3.7948 H         1 GTP         0.2048
     46 H46        -1.5768    3.7405   -1.9429 H         1 GTP         0.2048
@<TRIPOS>BOND
     1    1    2 2
     2    1    3 1
     3    1    4 1
     4    1    5 1
     5    5    6 1
     6    6    7 2
     7    6    8 1
     8    6    9 1
     9    8   33 1
    10    9   10 1
    11   10   11 2
    12   10   12 1
    13   10   13 1
    14   13   14 1
    15   14   15 1
    16   14   34 1
    17   14   35 1
    18   15   16 1
    19   15   17 1
    20   15   36 1
    21   16   21 1
    22   17   18 1
    23   17   19 1
    24   17   37 1
    25   18   38 1
    26   19   20 1
    27   19   21 1
    28   19   39 1
    29   20   40 1
    30   21   22 1
    31   21   41 1
    32   22   23 ar
    33   22   32 ar
    34   23   24 ar
    35   23   42 1
    36   24   25 ar
    37   24   46 1
    38   25   26 ar
    39   25   32 ar
    40   26   27 2
    41   26   28 ar
    42   28   29 ar
    43   28   43 1
    44   29   30 1
    45   29   31 ar
    46   30   44 1
    47   30   45 1
    48   31   32 ar
@<TRIPOS>SUBSTRUCTURE
     1 GTP         1 GROUP 0 A     ****
@<TRIPOS>MOLECULE
[[[5-(2-amino-6-oxo-7,8-dihydro-1~{H}-purin-8-ylium-9-yl)-3,4-dihydroxy-tetrahydrofuran-2-yl]methoxy-oxido-phosphoryl]oxy-hydroxy-phosphoryl] phosphate
   46    48     1     0     0
SMALL
USER_CHARGES

@<TRIPOS>ATOM
      1 PG          7.6780    0.5215   -5.4547 P.3       1 GTP        -1.1921
      2 O1G         8.4980   -0.7515   -5.6376 O.co2     1 GTP         0.3195
      3 O2G         8.2703    1.5096   -4.4551 O.co2     1 GTP         0.3195
      4 O3G         7.2050    1.1574   -6.7577 O.co2     1 GTP         0.3195
      5 O3B         6.2915    0.0076   -4.7260 O.3       1 GTP         0.4672
      6 PB          5.1705   -1.0461   -5.2253 P.3       1 GTP        -0.9715
      7 O1B         4.4875   -0.6793   -6.5096 O.2       1 GTP         0.2707
      8 O2B         5.9767   -2.4472   -5.2573 O.3       1 GTP         0.0326
      9 O3A         4.2003   -1.1981   -3.9427 O.3       1 GTP         0.4672
     10 PA          2.8575   -2.1002   -3.7283 P.3       1 GTP        -1.1062
     11 O1A         1.7721   -1.5662   -4.6374 O.co2     1 GTP         0.3195
     12 O2A         3.2509   -3.5611   -3.7533 O.co2     1 GTP         0.3195
     13 O5'         2.5245   -1.6648   -2.1878 O.3       1 GTP         0.1618
     14 C5'         2.2816   -0.2918   -1.9206 C.3       1 GTP         0.1504
     15 C4'         2.7248    0.0226   -0.4980 C.3       1 GTP         0.1111
     16 O4'         2.4697    1.4219   -0.2462 O.3       1 GTP        -0.1436
     17 C3'         1.9404   -0.7419    0.5596 C.3       1 GTP         0.1111
     18 O3'         2.7418   -0.8086    1.7389 O.3       1 GTP        -0.2728
     19 C2'         0.7477    0.1630    0.7858 C.3       1 GTP         0.1111
     20 O2'         0.1373   -0.0577    2.0407 O.3       1 GTP        -0.2728
     21 C1'         1.3733    1.5427    0.6747 C.3       1 GTP         0.2693
     22 N9          0.4520    2.5240    0.1767 N.pl3     1 GTP        -0.3222
     23 C8         -0.2009    2.4849   -0.9792 C.ar      1 GTP         0.1640
     24 N7         -0.9840    3.5454   -1.1481 N.pl3     1 GTP        -0.3688
     25 C5         -0.8090    4.3005   -0.0206 C.ar      1 GTP         0.0648
     26 C6         -1.4206    5.5724    0.3362 C.ar      1 GTP         0.3597
     27 O6         -2.2199    6.1544   -0.3836 O.2       1 GTP        -0.2755
     28 N1         -0.9680    6.0043    1.5817 N.pl3     1 GTP        -0.1604
     29 C2         -0.0474    5.3055    2.3814 C.ar      1 GTP         0.4468
     30 N2          0.2680    5.9024    3.5740 N.pl3     1 GTP        -0.5618
     31 N3          0.4755    4.1601    2.0138 N.2       1 GTP        -0.4283
     32 C4          0.0611    3.6981    0.8001 C.ar      1 GTP         0.2226
     33 HOB2        6.7097   -2.5576   -5.8998 H         1 GTP         0.2010
     34 H5'         2.8432    0.3119   -2.6398 H         1 GTP        -0.0393
     35 H5''        1.2128   -0.0927   -2.0428 H         1 GTP        -0.0393
     36 H4'         3.8044   -0.1397   -0.4040 H         1 GTP        -0.0393
     37 H3'         1.6764   -1.7639    0.2728 H         1 GTP        -0.0393
     38 HO3'        3.5554   -1.2733    1.4914 H         1 GTP         0.2010
     39 H2'        -0.0011    0.0027    0.0003 H         1 GTP        -0.0393
     40 HO2'       -0.1563   -0.9855    2.0596 H         1 GTP         0.2010
     41 H1'         1.7826    1.9024    1.6451 H         1 GTP        -0.0393
     42 H8         -0.1126    1.6906   -1.6997 H         1 GTP         0.0000
     43 HN1        -1.3285    6.8855    1.9361 H         1 GTP         0.0865
     44 HN21        0.9153    5.4446    4.1732 H         1 GTP         0.2048
     45 HN22       -0.1624    6.7706    3.7948 H         1 GTP         0.2048
     46 H46        -1.5768    3.7405   -1.9429 H         1 GTP         0.2048
@<TRIPOS>BOND
     1    1    2 2
     2    1    3 1
     3    1    4 1
     4    1    5 1
     5    5    6 1
     6    6    7 2
     7    6    8 1
     8    6    9 1
     9    8   33 1
    10    9   10 1
    11   10   11 2
    12   10   12 1
    13   10   13 1
    14   13   14 1
    15   14   15 1
    16   14   34 1
    17   14   35 1
    18   15   16 1
    19   15   17 1
    20   15   36 1
    21   16   21 1
    22   17   18 1
    23   17   19 1
    24   17   37 1
    25   18   38 1
    26   19   20 1
    27   19   21 1
    28   19   39 1
    29   20   40 1
    30   21   22 1
    31   21   41 1
    32   22   23 ar
    33   22   32 ar
    34   23   24 ar
    35   23   42 1
    36   24   25 ar
    37   24   46 1
    38   25   26 ar
    39   25   32 ar
    40   26   27 2
    41   26   28 ar
    42   28   29 ar
    43   28   43 1
    44   29   30 1
    45   29   31 ar
    46   30   44 1
    47   30   45 1
    48   31   32 ar
@<TRIPOS>SUBSTRUCTURE
     1 GTP         1 GROUP 0 A     ****
@<TRIPOS>MOLECULE
[[[5-(2-amino-6-oxo-7,8-dihydro-1~{H}-purin-8-ylium-9-yl)-3,4-dihydroxy-tetrahydrofuran-2-yl]methoxy-oxido-phosphoryl]oxy-hydroxy-phosphoryl] phosphate
   46    48     1     0     0
SMALL
USER_CHARGES

@<TRIPOS>ATOM
      1 PG          0.6635   -4.9977    8.4079 P.3       1 GTP        -1.1921
      2 O1G        -0.6918   -4.5847    8.9726 O.co2     1 GTP         0.3195
      3 O2G         1.7233   -3.9021    8.4589 O.co2     1 GTP         0.3195
      4 O3G         1.1518   -6.3632    8.8802 O.co2     1 GTP         0.3195
      5 O3B         0.3843   -5.2008    6.7960 O.3       1 GTP         0.4672
      6 PB         -0.6225   -6.2027    6.0220 P.3       1 GTP        -0.9715
      7 O1B        -0.3778   -7.6612    6.2734 O.2       1 GTP         0.2707
      8 O2B        -2.0818   -5.6687    6.4688 O.3       1 GTP         0.0326
      9 O3A        -0.5054   -5.7355    4.4801 O.3       1 GTP         0.4672
     10 PA         -1.2430   -6.3034    3.1398 P.3       1 GTP        -1.1062
     11 O1A        -0.7446   -7.7079    2.8780 O.co2     1 GTP         0.3195
     12 O2A        -2.7228   -6.0043    3.2424 O.co2     1 GTP         0.3195
     13 O5'        -0.5687   -5.2869    2.0510 O.3       1 GTP         0.1618
     14 C5'        -0.7840   -3.8935    2.2172 C.3       1 GTP         0.1504
     15 C4'        -0.0724   -3.1466    1.1027 C.3       1 GTP         0.1111
     16 O4'        -0.8674   -3.1929   -0.0945 O.3       1 GTP        -0.1436
     17 C3'         0.1338   -1.6715    1.4027 C.3       1 GTP         0.1111
     18 O3'         1.2893   -1.4445    2.1808 O.3       1 GTP        -0.2728
     19 C2'         0.2158   -1.0724    0.0128 C.3       1 GTP         0.1111
     20 O2'         1.5141   -1.2448   -0.5513 O.3       1 GTP        -0.2728
     21 C1'        -0.7897   -1.9176   -0.7583 C.3       1 GTP         0.2693
     22 N9         -2.1040   -1.3333   -0.7704 N.pl3     1 GTP        -0.3222
     23 C8         -3.0597   -1.5109    0.1345 C.ar      1 GTP         0.1640
     24 N7         -4.1618   -0.8291   -0.1607 N.pl3     1 GTP        -0.3688
     25 C5         -3.8764   -0.1805   -1.3310 C.ar      1 GTP         0.0648
     26 C6         -4.7187    0.7111   -2.1152 C.ar      1 GTP         0.3597
     27 O6         -5.8617    1.0043   -1.7939 O.2       1 GTP        -0.2755
     28 N1         -4.0405    1.1608   -3.2468 N.pl3     1 GTP        -0.1604
     29 C2         -2.7239    0.8013   -3.5822 C.ar      1 GTP         0.4468
     30 N2         -2.2399    1.3534   -4.7394 N.pl3     1 GTP        -0.5618
     31 N3         -2.0053   -0.0071   -2.8402 N.2       1 GTP        -0.4283
     32 C4         -2.6290   -0.4727   -1.7210 C.ar      1 GTP         0.2226
     33 HOB2       -2.8784   -6.0678    6.0586 H         1 GTP         0.2010
     34 H5'        -1.8598   -3.6968    2.1850 H         1 GTP        -0.0393
     35 H5''       -0.3933   -3.5903    3.1931 H         1 GTP        -0.0393
     36 H4'         0.8874   -3.6466    0.8805 H         1 GTP        -0.0393
     37 H3'        -0.7376   -1.2333    1.9867 H         1 GTP        -0.0393
     38 HO3'        1.3408   -0.4870    2.3219 H         1 GTP         0.2010
     39 H2'        -0.0384   -0.0310    0.0096 H         1 GTP        -0.0393
     40 HO2'        2.1463   -0.7958    0.0370 H         1 GTP         0.2010
     41 H1'        -0.4769   -2.1002   -1.8093 H         1 GTP        -0.0393
     42 H8         -2.9610   -2.1316    1.0079 H         1 GTP         0.0000
     43 HN1        -4.5320    1.7923   -3.8726 H         1 GTP         0.0865
     44 HN21       -1.3128    1.1277   -5.0171 H         1 GTP         0.2048
     45 HN22       -2.8342    1.9586   -5.2572 H         1 GTP         0.2048
     46 H46        -5.0195   -0.8034    0.3729 H         1 GTP         0.2048
@<TRIPOS>BOND
     1    1    2 2
     2    1    3 1
     3    1    4 1
     4    1    5 1
     5    5    6 1
     6    6    7 2
     7    6    8 1
     8    6    9 1
     9    8   33 1
    10    9   10 1
    11   10   11 2
    12   10   12 1
    13   10   13 1
    14   13   14 1
    15   14   15 1
    16   14   34 1
    17   14   35 1
    18   15   16 1
    19   15   17 1
    20   15   36 1
    21   16   21 1
    22   17   18 1
    23   17   19 1
    24   17   37 1
    25   18   38 1
    26   19   20 1
    27   19   21 1
    28   19   39 1
    29   20   40 1
    30   21   22 1
    31   21   41 1
    32   22   23 ar
    33   22   32 ar
    34   23   24 ar
    35   23   42 1
    36   24   25 ar
    37   24   46 1
    38   25   26 ar
    39   25   32 ar
    40   26   27 2
    41   26   28 ar
    42   28   29 ar
    43   28   43 1
    44   29   30 1
    45   29   31 ar
    46   30   44 1
    47   30   45 1
    48   31   32 ar
@<TRIPOS>SUBSTRUCTURE
     1 GTP         1 GROUP 0 A     ****
@<TRIPOS>MOLECULE
[[[5-(2-amino-6-oxo-7,8-dihydro-1~{H}-purin-8-ylium-9-yl)-3,4-dihydroxy-tetrahydrofuran-2-yl]methoxy-oxido-phosphoryl]oxy-hydroxy-phosphoryl] phosphate
   46    48     1     0     0
SMALL
USER_CHARGES

@<TRIPOS>ATOM
      1 PG         -1.6691   -0.9901   -7.0369 P.3       1 GTP        -1.1921
      2 O1G        -1.4409    0.0361   -8.1420 O.co2     1 GTP         0.3195
      3 O2G        -2.9180   -0.7396   -6.1980 O.co2     1 GTP         0.3195
      4 O3G        -1.4920   -2.4392   -7.4781 O.co2     1 GTP         0.3195
      5 O3B        -0.4284   -0.7312   -5.9829 O.3       1 GTP         0.4672
      6 PB          1.1718   -0.8217   -6.2011 P.3       1 GTP        -0.9715
      7 O1B         1.6747   -2.1682   -6.6308 O.2       1 GTP         0.2707
      8 O2B         1.4656    0.3803   -7.2418 O.3       1 GTP         0.0326
      9 O3A         1.7728   -0.2694   -4.8071 O.3       1 GTP         0.4672
     10 PA          3.3181   -0.0790   -4.3186 P.3       1 GTP        -1.1062
     11 O1A         3.9508   -1.4473   -4.1884 O.co2     1 GTP         0.3195
     12 O2A         3.9586    1.0027   -5.1608 O.co2     1 GTP         0.3195
     13 O5'         3.0213    0.5153   -2.8245 O.3       1 GTP         0.1618
     14 C5'         2.2816   -0.2918   -1.9206 C.3       1 GTP         0.1504
     15 C4'         2.7248    0.0226   -0.4980 C.3       1 GTP         0.1111
     16 O4'         2.4697    1.4219   -0.2462 O.3       1 GTP        -0.1436
     17 C3'         1.9404   -0.7419    0.5596 C.3       1 GTP         0.1111
     18 O3'         2.7418   -0.8086    1.7389 O.3       1 GTP        -0.2728
     19 C2'         0.7477    0.1630    0.7858 C.3       1 GTP         0.1111
     20 O2'         0.1373   -0.0577    2.0407 O.3       1 GTP        -0.2728
     21 C1'         1.3733    1.5427    0.6747 C.3       1 GTP         0.2693
     22 N9          0.4520    2.5240    0.1767 N.pl3     1 GTP        -0.3222
     23 C8         -0.6818    2.9109    0.7501 C.ar      1 GTP         0.1640
     24 N7         -1.3103    3.8415    0.0391 N.pl3     1 GTP        -0.3688
     25 C5         -0.5155    4.0512   -1.0547 C.ar      1 GTP         0.0648
     26 C6         -0.7125    4.9651   -2.1705 C.ar      1 GTP         0.3597
     27 O6         -1.6819    5.7047   -2.2651 O.2       1 GTP        -0.2755
     28 N1          0.3401    4.8672   -3.0790 N.pl3     1 GTP        -0.1604
     29 C2          1.4396    4.0039   -2.9348 C.ar      1 GTP         0.4468
     30 N2          2.3679    4.0602   -3.9414 N.pl3     1 GTP        -0.5618
     31 N3          1.5708    3.1983   -1.9080 N.2       1 GTP        -0.4283
     32 C4          0.5630    3.2599   -0.9921 C.ar      1 GTP         0.2226
     33 HOB2        1.0982    0.3217   -8.1494 H         1 GTP         0.2010
     34 H5'         1.2163   -0.0770   -2.0471 H         1 GTP        -0.0393
     35 H5''        2.4655   -1.3443   -2.1563 H         1 GTP        -0.0393
     36 H4'         3.8044   -0.1397   -0.4040 H         1 GTP        -0.0393
     37 H3'         1.6764   -1.7639    0.2728 H         1 GTP        -0.0393
     38 HO3'        2.2232   -1.2979    2.3953 H         1 GTP         0.2010
     39 H2'        -0.0011    0.0027    0.0003 H         1 GTP        -0.0393
     40 HO2'       -0.1563   -0.9855    2.0596 H         1 GTP         0.2010
     41 H1'         1.7826    1.9024    1.6451 H         1 GTP        -0.0393
     42 H8         -1.0545    2.5222    1.6816 H         1 GTP         0.0000
     43 HN1         0.3104    5.4612   -3.9026 H         1 GTP         0.0865
     44 HN21        3.1632    3.4672   -3.8824 H         1 GTP         0.2048
     45 HN22        2.2108    4.6918   -4.6924 H         1 GTP         0.2048
     46 H46        -2.1863    4.2902    0.2681 H         1 GTP         0.2048
@<TRIPOS>BOND
     1    1    2 2
     2    1    3 1
     3    1    4 1
     4    1    5 1
     5    5    6 1
     6    6    7 2
     7    6    8 1
     8    6    9 1
     9    8   33 1
    10    9   10 1
    11   10   11 2
    12   10   12 1
    13   10   13 1
    14   13   14 1
    15   14   15 1
    16   14   34 1
    17   14   35 1
    18   15   16 1
    19   15   17 1
    20   15   36 1
    21   16   21 1
    22   17   18 1
    23   17   19 1
    24   17   37 1
    25   18   38 1
    26   19   20 1
    27   19   21 1
    28   19   39 1
    29   20   40 1
    30   21   22 1
    31   21   41 1
    32   22   23 ar
    33   22   32 ar
    34   23   24 ar
    35   23   42 1
    36   24   25 ar
    37   24   46 1
    38   25   26 ar
    39   25   32 ar
    40   26   27 2
    41   26   28 ar
    42   28   29 ar
    43   28   43 1
    44   29   30 1
    45   29   31 ar
    46   30   44 1
    47   30   45 1
    48   31   32 ar
@<TRIPOS>SUBSTRUCTURE
     1 GTP         1 GROUP 0 A     ****
@<TRIPOS>MOLECULE
[[[5-(2-amino-6-oxo-7,8-dihydro-1~{H}-purin-8-ylium-9-yl)-3,4-dihydroxy-tetrahydrofuran-2-yl]methoxy-oxido-phosphoryl]oxy-hydroxy-phosphoryl] phosphate
   46    48     1     0     0
SMALL
USER_CHARGES

@<TRIPOS>ATOM
      1 PG         -2.9290   -8.3051    3.7635 P.3       1 GTP        -1.1921
      2 O1G        -4.4310   -8.0404    3.7612 O.co2     1 GTP         0.3195
      3 O2G        -2.5527   -9.7767    3.9022 O.co2     1 GTP         0.3195
      4 O3G        -2.1578   -7.5617    2.6778 O.co2     1 GTP         0.3195
      5 O3B        -2.4021   -7.6295    5.1718 O.3       1 GTP         0.4672
      6 PB         -2.4753   -6.1010    5.6958 P.3       1 GTP        -0.9715
      7 O1B        -3.8622   -5.5428    5.8210 O.2       1 GTP         0.2707
      8 O2B        -1.6319   -6.1483    7.0745 O.3       1 GTP         0.0326
      9 O3A        -1.4979   -5.3092    4.6824 O.3       1 GTP         0.4672
     10 PA         -0.7506   -3.8669    4.8378 P.3       1 GTP        -1.1062
     11 O1A        -1.8049   -2.7817    4.8603 O.co2     1 GTP         0.3195
     12 O2A         0.2828   -3.9771    5.9375 O.co2     1 GTP         0.3195
     13 O5'         0.0118   -3.8395    3.3916 O.3       1 GTP         0.1618
     14 C5'        -0.7840   -3.8935    2.2172 C.3       1 GTP         0.1504
     15 C4'        -0.0724   -3.1466    1.1027 C.3       1 GTP         0.1111
     16 O4'        -0.8674   -3.1929   -0.0945 O.3       1 GTP        -0.1436
     17 C3'         0.1338   -1.6715    1.4027 C.3       1 GTP         0.1111
     18 O3'         1.2893   -1.4445    2.1808 O.3       1 GTP        -0.2728
     19 C2'         0.2158   -1.0724    0.0128 C.3       1 GTP         0.1111
     20 O2'         1.5141   -1.2448   -0.5513 O.3       1 GTP        -0.2728
     21 C1'        -0.7897   -1.9176   -0.7583 C.3       1 GTP         0.2693
     22 N9         -2.1040   -1.3333   -0.7704 N.pl3     1 GTP        -0.3222
     23 C8         -3.0597   -1.5109    0.1345 C.ar      1 GTP         0.1640
     24 N7         -4.1618   -0.8291   -0.1607 N.pl3     1 GTP        -0.3688
     25 C5         -3.8764   -0.1805   -1.3310 C.ar      1 GTP         0.0648
     26 C6         -4.7187    0.7111   -2.1152 C.ar      1 GTP         0.3597
     27 O6         -5.8617    1.0043   -1.7939 O.2       1 GTP        -0.2755
     28 N1         -4.0405    1.1608   -3.2468 N.pl3     1 GTP        -0.1604
     29 C2         -2.7239    0.8013   -3.5822 C.ar      1 GTP         0.4468
     30 N2         -2.2399    1.3534   -4.7394 N.pl3     1 GTP        -0.5618
     31 N3         -2.0053   -0.0071   -2.8402 N.2       1 GTP        -0.4283
     32 C4         -2.6290   -0.4727   -1.7210 C.ar      1 GTP         0.2226
     33 HOB2       -1.4561   -5.3094    7.5514 H         1 GTP         0.2010
     34 H5'        -0.9348   -4.9415    1.9415 H         1 GTP        -0.0393
     35 H5''       -1.7548   -3.4350    2.4278 H         1 GTP        -0.0393
     36 H4'         0.8874   -3.6466    0.8805 H         1 GTP        -0.0393
     37 H3'        -0.7376   -1.2333    1.9867 H         1 GTP        -0.0393
     38 HO3'        1.1626   -1.9325    3.0084 H         1 GTP         0.2010
     39 H2'        -0.0384   -0.0310    0.0096 H         1 GTP        -0.0393
     40 HO2'        2.1463   -0.7958    0.0370 H         1 GTP         0.2010
     41 H1'        -0.4769   -2.1002   -1.8093 H         1 GTP        -0.0393
     42 H8         -2.9610   -2.1316    1.0079 H         1 GTP         0.0000
     43 HN1        -4.5320    1.7923   -3.8726 H         1 GTP         0.0865
     44 HN21       -1.3128    1.1277   -5.0171 H         1 GTP         0.2048
     45 HN22       -2.8342    1.9586   -5.2572 H         1 GTP         0.2048
     46 H46        -5.0195   -0.8034    0.3729 H         1 GTP         0.2048
@<TRIPOS>BOND
     1    1    2 2
     2    1    3 1
     3    1    4 1
     4    1    5 1
     5    5    6 1
     6    6    7 2
     7    6    8 1
     8    6    9 1
     9    8   33 1
    10    9   10 1
    11   10   11 2
    12   10   12 1
    13   10   13 1
    14   13   14 1
    15   14   15 1
    16   14   34 1
    17   14   35 1
    18   15   16 1
    19   15   17 1
    20   15   36 1
    21   16   21 1
    22   17   18 1
    23   17   19 1
    24   17   37 1
    25   18   38 1
    26   19   20 1
    27   19   21 1
    28   19   39 1
    29   20   40 1
    30   21   22 1
    31   21   41 1
    32   22   23 ar
    33   22   32 ar
    34   23   24 ar
    35   23   42 1
    36   24   25 ar
    37   24   46 1
    38   25   26 ar
    39   25   32 ar
    40   26   27 2
    41   26   28 ar
    42   28   29 ar
    43   28   43 1
    44   29   30 1
    45   29   31 ar
    46   30   44 1
    47   30   45 1
    48   31   32 ar
@<TRIPOS>SUBSTRUCTURE
     1 GTP         1 GROUP 0 A     ****
@<TRIPOS>MOLECULE
[[[5-(2-amino-6-oxo-7,8-dihydro-1~{H}-purin-8-ylium-9-yl)-3,4-dihydroxy-tetrahydrofuran-2-yl]methoxy-oxido-phosphoryl]oxy-hydroxy-phosphoryl] phosphate
   46    48     1     0     0
SMALL
USER_CHARGES

@<TRIPOS>ATOM
      1 PG         -5.1300   -3.0007    6.8883 P.3       1 GTP        -1.1921
      2 O1G        -4.5230   -2.8784    8.2821 O.co2     1 GTP         0.3195
      3 O2G        -5.7713   -4.3545    6.6012 O.co2     1 GTP         0.3195
      4 O3G        -5.9760   -1.8049    6.4637 O.co2     1 GTP         0.3195
      5 O3B        -3.8294   -2.9587    5.8763 O.3       1 GTP         0.4672
      6 PB         -2.7065   -1.8156    5.6554 P.3       1 GTP        -0.9715
      7 O1B        -3.2384   -0.4880    5.2023 O.2       1 GTP         0.2707
      8 O2B        -1.9285   -1.7911    7.0725 O.3       1 GTP         0.0326
      9 O3A        -1.6485   -2.5165    4.6560 O.3       1 GTP         0.4672
     10 PA         -0.7506   -3.8669    4.8378 P.3       1 GTP        -1.1062
     11 O1A         0.2632   -3.6235    5.9345 O.co2     1 GTP         0.3195
     12 O2A        -1.6803   -5.0599    4.8821 O.co2     1 GTP         0.3195
     13 O5'         0.0118   -3.8395    3.3916 O.3       1 GTP         0.1618
     14 C5'        -0.7840   -3.8935    2.2172 C.3       1 GTP         0.1504
     15 C4'        -0.0724   -3.1466    1.1027 C.3       1 GTP         0.1111
     16 O4'        -0.8674   -3.1929   -0.0945 O.3       1 GTP        -0.1436
     17 C3'         0.1338   -1.6715    1.4027 C.3       1 GTP         0.1111
     18 O3'         1.2893   -1.4445    2.1808 O.3       1 GTP        -0.2728
     19 C2'         0.2158   -1.0724    0.0128 C.3       1 GTP         0.1111
     20 O2'         1.5141   -1.2448   -0.5513 O.3       1 GTP        -0.2728
     21 C1'        -0.7897   -1.9176   -0.7583 C.3       1 GTP         0.2693
     22 N9         -2.1040   -1.3333   -0.7704 N.pl3     1 GTP        -0.3222
     23 C8         -3.0597   -1.5109    0.1345 C.ar      1 GTP         0.1640
     24 N7         -4.1618   -0.8291   -0.1607 N.pl3     1 GTP        -0.3688
     25 C5         -3.8764   -0.1805   -1.3310 C.ar      1 GTP         0.0648
     26 C6         -4.7187    0.7111   -2.1152 C.ar      1 GTP         0.3597
     27 O6         -5.8617    1.0043   -1.7939 O.2       1 GTP        -0.2755
     28 N1         -4.0405    1.1608   -3.2468 N.pl3     1 GTP        -0.1604
     29 C2         -2.7239    0.8013   -3.5822 C.ar      1 GTP         0.4468
     30 N2         -2.2399    1.3534   -4.7394 N.pl3     1 GTP        -0.5618
     31 N3         -2.0053   -0.0071   -2.8402 N.2       1 GTP        -0.4283
     32 C4         -2.6290   -0.4727   -1.7210 C.ar      1 GTP         0.2226
     33 HOB2       -1.1322   -1.2261    7.1663 H         1 GTP         0.2010
     34 H5'        -0.9348   -4.9415    1.9415 H         1 GTP        -0.0393
     35 H5''       -1.7548   -3.4350    2.4278 H         1 GTP        -0.0393
     36 H4'         0.8874   -3.6466    0.8805 H         1 GTP        -0.0393
     37 H3'        -0.7376   -1.2333    1.9867 H         1 GTP        -0.0393
     38 HO3'        1.1626   -1.9325    3.0084 H         1 GTP         0.2010
     39 H2'        -0.0384   -0.0310    0.0096 H         1 GTP        -0.0393
     40 HO2'        2.1463   -0.7958    0.0370 H         1 GTP         0.2010
     41 H1'        -0.4769   -2.1002   -1.8093 H         1 GTP        -0.0393
     42 H8         -2.9610   -2.1316    1.0079 H         1 GTP         0.0000
     43 HN1        -4.5320    1.7923   -3.8726 H         1 GTP         0.0865
     44 HN21       -1.3128    1.1277   -5.0171 H         1 GTP         0.2048
     45 HN22       -2.8342    1.9586   -5.2572 H         1 GTP         0.2048
     46 H46        -5.0195   -0.8034    0.3729 H         1 GTP         0.2048
@<TRIPOS>BOND
     1    1    2 2
     2    1    3 1
     3    1    4 1
     4    1    5 1
     5    5    6 1
     6    6    7 2
     7    6    8 1
     8    6    9 1
     9    8   33 1
    10    9   10 1
    11   10   11 2
    12   10   12 1
    13   10   13 1
    14   13   14 1
    15   14   15 1
    16   14   34 1
    17   14   35 1
    18   15   16 1
    19   15   17 1
    20   15   36 1
    21   16   21 1
    22   17   18 1
    23   17   19 1
    24   17   37 1
    25   18   38 1
    26   19   20 1
    27   19   21 1
    28   19   39 1
    29   20   40 1
    30   21   22 1
    31   21   41 1
    32   22   23 ar
    33   22   32 ar
    34   23   24 ar
    35   23   42 1
    36   24   25 ar
    37   24   46 1
    38   25   26 ar
    39   25   32 ar
    40   26   27 2
    41   26   28 ar
    42   28   29 ar
    43   28   43 1
    44   29   30 1
    45   29   31 ar
    46   30   44 1
    47   30   45 1
    48   31   32 ar
@<TRIPOS>SUBSTRUCTURE
     1 GTP         1 GROUP 0 A     ****
@<TRIPOS>MOLECULE
[[[5-(2-amino-6-oxo-7,8-dihydro-1~{H}-purin-8-ylium-9-yl)-3,4-dihydroxy-tetrahydrofuran-2-yl]methoxy-oxido-phosphoryl]oxy-hydroxy-phosphoryl] phosphate
   46    48     1     0     0
SMALL
USER_CHARGES

@<TRIPOS>ATOM
      1 PG         -5.6520   -8.4518    4.4201 P.3       1 GTP        -1.1921
      2 O1G        -5.3640   -8.2925    5.9094 O.co2     1 GTP         0.3195
      3 O2G        -5.2553   -9.8086    3.8473 O.co2     1 GTP         0.3195
      4 O3G        -7.0351   -7.9721    3.9923 O.co2     1 GTP         0.3195
      5 O3B        -4.6132   -7.3984    3.6930 O.3       1 GTP         0.4672
      6 PB         -4.4711   -5.7938    3.8386 P.3       1 GTP        -0.9715
      7 O1B        -5.6963   -5.0151    3.4604 O.2       1 GTP         0.2707
      8 O2B        -3.9913   -5.6087    5.3714 O.3       1 GTP         0.0326
      9 O3A        -3.1429   -5.4553    2.9838 O.3       1 GTP         0.4672
     10 PA         -1.7238   -6.2523    2.8671 P.3       1 GTP        -1.1062
     11 O1A        -1.0248   -6.1837    4.2074 O.co2     1 GTP         0.3195
     12 O2A        -1.9720   -7.5777    2.1807 O.co2     1 GTP         0.3195
     13 O5'        -0.9724   -5.2440    1.8220 O.3       1 GTP         0.1618
     14 C5'        -0.7840   -3.8935    2.2172 C.3       1 GTP         0.1504
     15 C4'        -0.0724   -3.1466    1.1027 C.3       1 GTP         0.1111
     16 O4'        -0.8674   -3.1929   -0.0945 O.3       1 GTP        -0.1436
     17 C3'         0.1338   -1.6715    1.4027 C.3       1 GTP         0.1111
     18 O3'         1.2893   -1.4445    2.1808 O.3       1 GTP        -0.2728
     19 C2'         0.2158   -1.0724    0.0128 C.3       1 GTP         0.1111
     20 O2'         1.5141   -1.2448   -0.5513 O.3       1 GTP        -0.2728
     21 C1'        -0.7897   -1.9176   -0.7583 C.3       1 GTP         0.2693
     22 N9         -2.1040   -1.3333   -0.7704 N.pl3     1 GTP        -0.3222
     23 C8         -3.0597   -1.5109    0.1345 C.ar      1 GTP         0.1640
     24 N7         -4.1618   -0.8291   -0.1607 N.pl3     1 GTP        -0.3688
     25 C5         -3.8764   -0.1805   -1.3310 C.ar      1 GTP         0.0648
     26 C6         -4.7187    0.7111   -2.1152 C.ar      1 GTP         0.3597
     27 O6         -5.8617    1.0043   -1.7939 O.2       1 GTP        -0.2755
     28 N1         -4.0405    1.1608   -3.2468 N.pl3     1 GTP        -0.1604
     29 C2         -2.7239    0.8013   -3.5822 C.ar      1 GTP         0.4468
     30 N2         -2.2399    1.3534   -4.7394 N.pl3     1 GTP        -0.5618
     31 N3         -2.0053   -0.0071   -2.8402 N.2       1 GTP        -0.4283
     32 C4         -2.6290   -0.4727   -1.7210 C.ar      1 GTP         0.2226
     33 HOB2       -4.6055   -5.8595    6.0939 H         1 GTP         0.2010
     34 H5'        -1.7618   -3.4448    2.4164 H         1 GTP        -0.0393
     35 H5''       -0.1874   -3.8744    3.1341 H         1 GTP        -0.0393
     36 H4'         0.8874   -3.6466    0.8805 H         1 GTP        -0.0393
     37 H3'        -0.7376   -1.2333    1.9867 H         1 GTP        -0.0393
     38 HO3'        1.1626   -1.9325    3.0084 H         1 GTP         0.2010
     39 H2'        -0.0384   -0.0310    0.0096 H         1 GTP        -0.0393
     40 HO2'        2.1463   -0.7958    0.0370 H         1 GTP         0.2010
     41 H1'        -0.4769   -2.1002   -1.8093 H         1 GTP        -0.0393
     42 H8         -2.9610   -2.1316    1.0079 H         1 GTP         0.0000
     43 HN1        -4.5320    1.7923   -3.8726 H         1 GTP         0.0865
     44 HN21       -1.3128    1.1277   -5.0171 H         1 GTP         0.2048
     45 HN22       -2.8342    1.9586   -5.2572 H         1 GTP         0.2048
     46 H46        -5.0195   -0.8034    0.3729 H         1 GTP         0.2048
@<TRIPOS>BOND
     1    1    2 2
     2    1    3 1
     3    1    4 1
     4    1    5 1
     5    5    6 1
     6    6    7 2
     7    6    8 1
     8    6    9 1
     9    8   33 1
    10    9   10 1
    11   10   11 2
    12   10   12 1
    13   10   13 1
    14   13   14 1
    15   14   15 1
    16   14   34 1
    17   14   35 1
    18   15   16 1
    19   15   17 1
    20   15   36 1
    21   16   21 1
    22   17   18 1
    23   17   19 1
    24   17   37 1
    25   18   38 1
    26   19   20 1
    27   19   21 1
    28   19   39 1
    29   20   40 1
    30   21   22 1
    31   21   41 1
    32   22   23 ar
    33   22   32 ar
    34   23   24 ar
    35   23   42 1
    36   24   25 ar
    37   24   46 1
    38   25   26 ar
    39   25   32 ar
    40   26   27 2
    41   26   28 ar
    42   28   29 ar
    43   28   43 1
    44   29   30 1
    45   29   31 ar
    46   30   44 1
    47   30   45 1
    48   31   32 ar
@<TRIPOS>SUBSTRUCTURE
     1 GTP         1 GROUP 0 A     ****
@<TRIPOS>MOLECULE
[[[5-(2-amino-6-oxo-7,8-dihydro-1~{H}-purin-8-ylium-9-yl)-3,4-dihydroxy-tetrahydrofuran-2-yl]methoxy-oxido-phosphoryl]oxy-hydroxy-phosphoryl] phosphate
   46    48     1     0     0
SMALL
USER_CHARGES

@<TRIPOS>ATOM
      1 PG          1.7810   -4.8449   -3.4590 P.3       1 GTP        -1.1921
      2 O1G         2.1798   -4.9794   -1.9930 O.co2     1 GTP         0.3195
      3 O2G         1.5443   -6.1744   -4.1681 O.co2     1 GTP         0.3195
      4 O3G         0.7079   -3.7942   -3.7249 O.co2     1 GTP         0.3195
      5 O3B         3.1298   -4.2430   -4.1908 O.3       1 GTP         0.4672
      6 PB          3.9386   -2.8658   -3.9342 P.3       1 GTP        -0.9715
      7 O1B         4.4881   -2.7059   -2.5475 O.2       1 GTP         0.2707
      8 O2B         5.0472   -2.8704   -5.1111 O.3       1 GTP         0.0326
      9 O3A         2.8955   -1.7248   -4.4028 O.3       1 GTP         0.4672
     10 PA          3.0383   -0.0994   -4.4226 P.3       1 GTP        -1.1062
     11 O1A         4.2986    0.2610   -5.1786 O.co2     1 GTP         0.3195
     12 O2A         1.7002    0.4960   -4.8028 O.co2     1 GTP         0.3195
     13 O5'         3.2903    0.1346   -2.8241 O.3       1 GTP         0.1618
     14 C5'         2.2816   -0.2918   -1.9206 C.3       1 GTP         0.1504
     15 C4'         2.7248    0.0226   -0.4980 C.3       1 GTP         0.1111
     16 O4'         2.4697    1.4219   -0.2462 O.3       1 GTP        -0.1436
     17 C3'         1.9404   -0.7419    0.5596 C.3       1 GTP         0.1111
     18 O3'         2.7418   -0.8086    1.7389 O.3       1 GTP        -0.2728
     19 C2'         0.7477    0.1630    0.7858 C.3       1 GTP         0.1111
     20 O2'         0.1373   -0.0577    2.0407 O.3       1 GTP        -0.2728
     21 C1'         1.3733    1.5427    0.6747 C.3       1 GTP         0.2693
     22 N9          0.4520    2.5240    0.1767 N.pl3     1 GTP        -0.3222
     23 C8         -0.8613    2.5511    0.3730 C.ar      1 GTP         0.1640
     24 N7         -1.4346    3.5939   -0.2188 N.pl3     1 GTP        -0.3688
     25 C5         -0.4099    4.2657   -0.8276 C.ar      1 GTP         0.0648
     26 C6         -0.4554    5.4854   -1.6209 C.ar      1 GTP         0.3597
     27 O6         -1.4907    6.0944   -1.8508 O.2       1 GTP        -0.2755
     28 N1          0.8205    5.8357   -2.0593 N.pl3     1 GTP        -0.1604
     29 C2          1.9890    5.1091   -1.7730 C.ar      1 GTP         0.4468
     30 N2          3.1452    5.6230   -2.2997 N.pl3     1 GTP        -0.5618
     31 N3          1.9765    4.0139   -1.0514 N.2       1 GTP        -0.4283
     32 C4          0.7480    3.6324   -0.6003 C.ar      1 GTP         0.2226
     33 HOB2        5.7443   -3.5605   -5.1029 H         1 GTP         0.2010
     34 H5'         1.3514    0.2330   -2.1577 H         1 GTP        -0.0393
     35 H5''        2.1280   -1.3678   -2.0460 H         1 GTP        -0.0393
     36 H4'         3.8044   -0.1397   -0.4040 H         1 GTP        -0.0393
     37 H3'         1.6764   -1.7639    0.2728 H         1 GTP        -0.0393
     38 HO3'        3.5554   -1.2733    1.4914 H         1 GTP         0.2010
     39 H2'        -0.0011    0.0027    0.0003 H         1 GTP        -0.0393
     40 HO2'       -0.1563   -0.9855    2.0596 H         1 GTP         0.2010
     41 H1'         1.7826    1.9024    1.6451 H         1 GTP        -0.0393
     42 H8         -1.4050    1.8187    0.9438 H         1 GTP         0.0000
     43 HN1         0.9121    6.6744   -2.6251 H         1 GTP         0.0865
     44 HN21        3.9971    5.1427   -2.1235 H         1 GTP         0.2048
     45 HN22        3.0881    6.4564   -2.8380 H         1 GTP         0.2048
     46 H46        -2.4173    3.8294   -0.2127 H         1 GTP         0.2048
@<TRIPOS>BOND
     1    1    2 2
     2    1    3 1
     3    1    4 1
     4    1    5 1
     5    5    6 1
     6    6    7 2
     7    6    8 1
     8    6    9 1
     9    8   33 1
    10    9   10 1
    11   10   11 2
    12   10   12 1
    13   10   13 1
    14   13   14 1
    15   14   15 1
    16   14   34 1
    17   14   35 1
    18   15   16 1
    19   15   17 1
    20   15   36 1
    21   16   21 1
    22   17   18 1
    23   17   19 1
    24   17   37 1
    25   18   38 1
    26   19   20 1
    27   19   21 1
    28   19   39 1
    29   20   40 1
    30   21   22 1
    31   21   41 1
    32   22   23 ar
    33   22   32 ar
    34   23   24 ar
    35   23   42 1
    36   24   25 ar
    37   24   46 1
    38   25   26 ar
    39   25   32 ar
    40   26   27 2
    41   26   28 ar
    42   28   29 ar
    43   28   43 1
    44   29   30 1
    45   29   31 ar
    46   30   44 1
    47   30   45 1
    48   31   32 ar
@<TRIPOS>SUBSTRUCTURE
     1 GTP         1 GROUP 0 A     ****
@<TRIPOS>MOLECULE
[[[5-(2-amino-6-oxo-7,8-dihydro-1~{H}-purin-8-ylium-9-yl)-3,4-dihydroxy-tetrahydrofuran-2-yl]methoxy-oxido-phosphoryl]oxy-hydroxy-phosphoryl] phosphate
   46    48     1     0     0
SMALL
USER_CHARGES

@<TRIPOS>ATOM
      1 PG          4.7657    0.6921   -7.7943 P.3       1 GTP        -1.1921
      2 O1G         5.9645    1.5145   -7.3332 O.co2     1 GTP         0.3195
      3 O2G         3.5786    1.5257   -8.2657 O.co2     1 GTP         0.3195
      4 O3G         5.1182   -0.4716   -8.7151 O.co2     1 GTP         0.3195
      5 O3B         4.2178   -0.0301   -6.4175 O.3       1 GTP         0.4672
      6 PB          4.9548   -1.0500   -5.4012 P.3       1 GTP        -0.9715
      7 O1B         5.4150   -2.3361   -6.0215 O.2       1 GTP         0.2707
      8 O2B         6.1301   -0.1415   -4.7628 O.3       1 GTP         0.0326
      9 O3A         3.8967   -1.2037   -4.1903 O.3       1 GTP         0.4672
     10 PA          3.9759   -2.0799   -2.8160 P.3       1 GTP        -1.1062
     11 O1A         3.9532   -3.5479   -3.1825 O.co2     1 GTP         0.3195
     12 O2A         5.0721   -1.5078   -1.9438 O.co2     1 GTP         0.3195
     13 O5'         2.5245   -1.6648   -2.1878 O.3       1 GTP         0.1618
     14 C5'         2.2816   -0.2918   -1.9206 C.3       1 GTP         0.1504
     15 C4'         2.7248    0.0226   -0.4980 C.3       1 GTP         0.1111
     16 O4'         2.4697    1.4219   -0.2462 O.3       1 GTP        -0.1436
     17 C3'         1.9404   -0.7419    0.5596 C.3       1 GTP         0.1111
     18 O3'         2.7418   -0.8086    1.7389 O.3       1 GTP        -0.2728
     19 C2'         0.7477    0.1630    0.7858 C.3       1 GTP         0.1111
     20 O2'         0.1373   -0.0577    2.0407 O.3       1 GTP        -0.2728
     21 C1'         1.3733    1.5427    0.6747 C.3       1 GTP         0.2693
     22 N9          0.4520    2.5240    0.1767 N.pl3     1 GTP        -0.3222
     23 C8          0.2203    2.8205   -1.0970 C.ar      1 GTP         0.1640
     24 N7         -0.6947    3.7752   -1.2304 N.pl3     1 GTP        -0.3688
     25 C5         -1.0607    4.0987    0.0476 C.ar      1 GTP         0.0648
     26 C6         -2.0310    5.0839    0.5029 C.ar      1 GTP         0.3597
     27 O6         -2.6779    5.7867   -0.2609 O.2       1 GTP        -0.2755
     28 N1         -2.1030    5.0975    1.8948 N.pl3     1 GTP        -0.1604
     29 C2         -1.3422    4.2721    2.7403 C.ar      1 GTP         0.4468
     30 N2         -1.5624    4.4419    4.0823 N.pl3     1 GTP        -0.5618
     31 N3         -0.4796    3.3981    2.2792 N.2       1 GTP        -0.4283
     32 C4         -0.3754    3.3496    0.9208 C.ar      1 GTP         0.2226
     33 HOB2        6.6781   -0.5149   -4.0400 H         1 GTP         0.2010
     34 H5'         2.8432    0.3119   -2.6398 H         1 GTP        -0.0393
     35 H5''        1.2128   -0.0927   -2.0428 H         1 GTP        -0.0393
     36 H4'         3.8044   -0.1397   -0.4040 H         1 GTP        -0.0393
     37 H3'         1.6764   -1.7639    0.2728 H         1 GTP        -0.0393
     38 HO3'        2.2232   -1.2979    2.3953 H         1 GTP         0.2010
     39 H2'        -0.0011    0.0027    0.0003 H         1 GTP        -0.0393
     40 HO2'       -0.1563   -0.9855    2.0596 H         1 GTP         0.2010
     41 H1'         1.7826    1.9024    1.6451 H         1 GTP        -0.0393
     42 H8          0.7110    2.3472   -1.9295 H         1 GTP         0.0000
     43 HN1        -2.7504    5.7495    2.3282 H         1 GTP         0.0865
     44 HN21       -1.0467    3.8796    4.7190 H         1 GTP         0.2048
     45 HN22       -2.2294    5.1209    4.3680 H         1 GTP         0.2048
     46 H46        -1.0382    4.1687   -2.0954 H         1 GTP         0.2048
@<TRIPOS>BOND
     1    1    2 2
     2    1    3 1
     3    1    4 1
     4    1    5 1
     5    5    6 1
     6    6    7 2
     7    6    8 1
     8    6    9 1
     9    8   33 1
    10    9   10 1
    11   10   11 2
    12   10   12 1
    13   10   13 1
    14   13   14 1
    15   14   15 1
    16   14   34 1
    17   14   35 1
    18   15   16 1
    19   15   17 1
    20   15   36 1
    21   16   21 1
    22   17   18 1
    23   17   19 1
    24   17   37 1
    25   18   38 1
    26   19   20 1
    27   19   21 1
    28   19   39 1
    29   20   40 1
    30   21   22 1
    31   21   41 1
    32   22   23 ar
    33   22   32 ar
    34   23   24 ar
    35   23   42 1
    36   24   25 ar
    37   24   46 1
    38   25   26 ar
    39   25   32 ar
    40   26   27 2
    41   26   28 ar
    42   28   29 ar
    43   28   43 1
    44   29   30 1
    45   29   31 ar
    46   30   44 1
    47   30   45 1
    48   31   32 ar
@<TRIPOS>SUBSTRUCTURE
     1 GTP         1 GROUP 0 A     ****
@<TRIPOS>MOLECULE
[[[5-(2-amino-6-oxo-7,8-dihydro-1~{H}-purin-8-ylium-9-yl)-3,4-dihydroxy-tetrahydrofuran-2-yl]methoxy-oxido-phosphoryl]oxy-hydroxy-phosphoryl] phosphate
   46    48     1     0     0
SMALL
USER_CHARGES

@<TRIPOS>ATOM
      1 PG          2.8286   -5.1157   -3.7986 P.3       1 GTP        -1.1921
      2 O1G         3.9898   -5.6836   -4.6083 O.co2     1 GTP         0.3195
      3 O2G         1.7498   -6.1362   -3.4505 O.co2     1 GTP         0.3195
      4 O3G         3.2501   -4.2281   -2.6322 O.co2     1 GTP         0.3195
      5 O3B         2.0745   -4.0858   -4.8417 O.3       1 GTP         0.4672
      6 PB          2.6280   -2.7710   -5.6042 P.3       1 GTP        -0.9715
      7 O1B         3.7931   -3.0149   -6.5172 O.2       1 GTP         0.2707
      8 O2B         1.3054   -2.1860   -6.3272 O.3       1 GTP         0.0326
      9 O3A         2.8955   -1.7248   -4.4028 O.3       1 GTP         0.4672
     10 PA          3.0383   -0.0994   -4.4226 P.3       1 GTP        -1.1062
     11 O1A         4.2986    0.2610   -5.1786 O.co2     1 GTP         0.3195
     12 O2A         1.7002    0.4960   -4.8028 O.co2     1 GTP         0.3195
     13 O5'         3.2903    0.1346   -2.8241 O.3       1 GTP         0.1618
     14 C5'         2.2816   -0.2918   -1.9206 C.3       1 GTP         0.1504
     15 C4'         2.7248    0.0226   -0.4980 C.3       1 GTP         0.1111
     16 O4'         2.4697    1.4219   -0.2462 O.3       1 GTP        -0.1436
     17 C3'         1.9404   -0.7419    0.5596 C.3       1 GTP         0.1111
     18 O3'         2.7418   -0.8086    1.7389 O.3       1 GTP        -0.2728
     19 C2'         0.7477    0.1630    0.7858 C.3       1 GTP         0.1111
     20 O2'         0.1373   -0.0577    2.0407 O.3       1 GTP        -0.2728
     21 C1'         1.3733    1.5427    0.6747 C.3       1 GTP         0.2693
     22 N9          0.4520    2.5240    0.1767 N.pl3     1 GTP        -0.3222
     23 C8         -0.8613    2.5511    0.3730 C.ar      1 GTP         0.1640
     24 N7         -1.4346    3.5939   -0.2188 N.pl3     1 GTP        -0.3688
     25 C5         -0.4099    4.2657   -0.8276 C.ar      1 GTP         0.0648
     26 C6         -0.4554    5.4854   -1.6209 C.ar      1 GTP         0.3597
     27 O6         -1.4907    6.0944   -1.8508 O.2       1 GTP        -0.2755
     28 N1          0.8205    5.8357   -2.0593 N.pl3     1 GTP        -0.1604
     29 C2          1.9890    5.1091   -1.7730 C.ar      1 GTP         0.4468
     30 N2          3.1452    5.6230   -2.2997 N.pl3     1 GTP        -0.5618
     31 N3          1.9765    4.0139   -1.0514 N.2       1 GTP        -0.4283
     32 C4          0.7480    3.6324   -0.6003 C.ar      1 GTP         0.2226
     33 HOB2        1.3625   -1.3259   -6.7953 H         1 GTP         0.2010
     34 H5'         1.3514    0.2330   -2.1577 H         1 GTP        -0.0393
     35 H5''        2.1280   -1.3678   -2.0460 H         1 GTP        -0.0393
     36 H4'         3.8044   -0.1397   -0.4040 H         1 GTP        -0.0393
     37 H3'         1.6764   -1.7639    0.2728 H         1 GTP        -0.0393
     38 HO3'        2.2232   -1.2979    2.3953 H         1 GTP         0.2010
     39 H2'        -0.0011    0.0027    0.0003 H         1 GTP        -0.0393
     40 HO2'       -0.1563   -0.9855    2.0596 H         1 GTP         0.2010
     41 H1'         1.7826    1.9024    1.6451 H         1 GTP        -0.0393
     42 H8         -1.4050    1.8187    0.9438 H         1 GTP         0.0000
     43 HN1         0.9121    6.6744   -2.6251 H         1 GTP         0.0865
     44 HN21        3.9971    5.1427   -2.1235 H         1 GTP         0.2048
     45 HN22        3.0881    6.4564   -2.8380 H         1 GTP         0.2048
     46 H46        -2.4173    3.8294   -0.2127 H         1 GTP         0.2048
@<TRIPOS>BOND
     1    1    2 2
     2    1    3 1
     3    1    4 1
     4    1    5 1
     5    5    6 1
     6    6    7 2
     7    6    8 1
     8    6    9 1
     9    8   33 1
    10    9   10 1
    11   10   11 2
    12   10   12 1
    13   10   13 1
    14   13   14 1
    15   14   15 1
    16   14   34 1
    17   14   35 1
    18   15   16 1
    19   15   17 1
    20   15   36 1
    21   16   21 1
    22   17   18 1
    23   17   19 1
    24   17   37 1
    25   18   38 1
    26   19   20 1
    27   19   21 1
    28   19   39 1
    29   20   40 1
    30   21   22 1
    31   21   41 1
    32   22   23 ar
    33   22   32 ar
    34   23   24 ar
    35   23   42 1
    36   24   25 ar
    37   24   46 1
    38   25   26 ar
    39   25   32 ar
    40   26   27 2
    41   26   28 ar
    42   28   29 ar
    43   28   43 1
    44   29   30 1
    45   29   31 ar
    46   30   44 1
    47   30   45 1
    48   31   32 ar
@<TRIPOS>SUBSTRUCTURE
     1 GTP         1 GROUP 0 A     ****
@<TRIPOS>MOLECULE
[[[5-(2-amino-6-oxo-7,8-dihydro-1~{H}-purin-8-ylium-9-yl)-3,4-dihydroxy-tetrahydrofuran-2-yl]methoxy-oxido-phosphoryl]oxy-hydroxy-phosphoryl] phosphate
   46    48     1     0     0
SMALL
USER_CHARGES

@<TRIPOS>ATOM
      1 PG          8.0303   -0.0824   -1.0598 P.3       1 GTP        -1.1921
      2 O1G         9.0505    0.5500   -2.0008 O.co2     1 GTP         0.3195
      3 O2G         8.6412   -0.7566    0.1643 O.co2     1 GTP         0.3195
      4 O3G         6.8264    0.8018   -0.7517 O.co2     1 GTP         0.3195
      5 O3B         7.4030   -1.3357   -1.9277 O.3       1 GTP         0.4672
      6 PB          6.6111   -1.3447   -3.3381 P.3       1 GTP        -0.9715
      7 O1B         7.3814   -0.7856   -4.4976 O.2       1 GTP         0.2707
      8 O2B         6.1670   -2.8913   -3.4960 O.3       1 GTP         0.0326
      9 O3A         5.2259   -0.5873   -2.9958 O.3       1 GTP         0.4672
     10 PA          3.9458   -0.2356   -3.9447 P.3       1 GTP        -1.1062
     11 O1A         4.3826    0.7757   -4.9821 O.co2     1 GTP         0.3195
     12 O2A         3.2762   -1.5312   -4.3480 O.co2     1 GTP         0.3195
     13 O5'         3.0213    0.5153   -2.8245 O.3       1 GTP         0.1618
     14 C5'         2.2816   -0.2918   -1.9206 C.3       1 GTP         0.1504
     15 C4'         2.7248    0.0226   -0.4980 C.3       1 GTP         0.1111
     16 O4'         2.4697    1.4219   -0.2462 O.3       1 GTP        -0.1436
     17 C3'         1.9404   -0.7419    0.5596 C.3       1 GTP         0.1111
     18 O3'         2.7418   -0.8086    1.7389 O.3       1 GTP        -0.2728
     19 C2'         0.7477    0.1630    0.7858 C.3       1 GTP         0.1111
     20 O2'         0.1373   -0.0577    2.0407 O.3       1 GTP        -0.2728
     21 C1'         1.3733    1.5427    0.6747 C.3       1 GTP         0.2693
     22 N9          0.4520    2.5240    0.1767 N.pl3     1 GTP        -0.3222
     23 C8         -0.2009    2.4849   -0.9792 C.ar      1 GTP         0.1640
     24 N7         -0.9840    3.5454   -1.1481 N.pl3     1 GTP        -0.3688
     25 C5         -0.8090    4.3005   -0.0206 C.ar      1 GTP         0.0648
     26 C6         -1.4206    5.5724    0.3362 C.ar      1 GTP         0.3597
     27 O6         -2.2199    6.1544   -0.3836 O.2       1 GTP        -0.2755
     28 N1         -0.9680    6.0043    1.5817 N.pl3     1 GTP        -0.1604
     29 C2         -0.0474    5.3055    2.3814 C.ar      1 GTP         0.4468
     30 N2          0.2680    5.9024    3.5740 N.pl3     1 GTP        -0.5618
     31 N3          0.4755    4.1601    2.0138 N.2       1 GTP        -0.4283
     32 C4          0.0611    3.6981    0.8001 C.ar      1 GTP         0.2226
     33 HOB2        5.5887   -3.1440   -4.2469 H         1 GTP         0.2010
     34 H5'         1.2163   -0.0770   -2.0471 H         1 GTP        -0.0393
     35 H5''        2.4655   -1.3443   -2.1563 H         1 GTP        -0.0393
     36 H4'         3.8044   -0.1397   -0.4040 H         1 GTP        -0.0393
     37 H3'         1.6764   -1.7639    0.2728 H         1 GTP        -0.0393
     38 HO3'        3.5554   -1.2733    1.4914 H         1 GTP         0.2010
     39 H2'        -0.0011    0.0027    0.0003 H         1 GTP        -0.0393
     40 HO2'       -0.1563   -0.9855    2.0596 H         1 GTP         0.2010
     41 H1'         1.7826    1.9024    1.6451 H         1 GTP        -0.0393
     42 H8         -0.1126    1.6906   -1.6997 H         1 GTP         0.0000
     43 HN1        -1.3285    6.8855    1.9361 H         1 GTP         0.0865
     44 HN21        0.9153    5.4446    4.1732 H         1 GTP         0.2048
     45 HN22       -0.1624    6.7706    3.7948 H         1 GTP         0.2048
     46 H46        -1.5768    3.7405   -1.9429 H         1 GTP         0.2048
@<TRIPOS>BOND
     1    1    2 2
     2    1    3 1
     3    1    4 1
     4    1    5 1
     5    5    6 1
     6    6    7 2
     7    6    8 1
     8    6    9 1
     9    8   33 1
    10    9   10 1
    11   10   11 2
    12   10   12 1
    13   10   13 1
    14   13   14 1
    15   14   15 1
    16   14   34 1
    17   14   35 1
    18   15   16 1
    19   15   17 1
    20   15   36 1
    21   16   21 1
    22   17   18 1
    23   17   19 1
    24   17   37 1
    25   18   38 1
    26   19   20 1
    27   19   21 1
    28   19   39 1
    29   20   40 1
    30   21   22 1
    31   21   41 1
    32   22   23 ar
    33   22   32 ar
    34   23   24 ar
    35   23   42 1
    36   24   25 ar
    37   24   46 1
    38   25   26 ar
    39   25   32 ar
    40   26   27 2
    41   26   28 ar
    42   28   29 ar
    43   28   43 1
    44   29   30 1
    45   29   31 ar
    46   30   44 1
    47   30   45 1
    48   31   32 ar
@<TRIPOS>SUBSTRUCTURE
     1 GTP         1 GROUP 0 A     ****
@<TRIPOS>MOLECULE
[[[5-(2-amino-6-oxo-7,8-dihydro-1~{H}-purin-8-ylium-9-yl)-3,4-dihydroxy-tetrahydrofuran-2-yl]methoxy-oxido-phosphoryl]oxy-hydroxy-phosphoryl] phosphate
   46    48     1     0     0
SMALL
USER_CHARGES

@<TRIPOS>ATOM
      1 PG          5.1586   -5.8582   -3.2103 P.3       1 GTP        -1.1921
      2 O1G         3.8978   -6.6916   -3.4150 O.co2     1 GTP         0.3195
      3 O2G         5.7486   -5.9495   -1.8068 O.co2     1 GTP         0.3195
      4 O3G         6.1857   -5.9862   -4.3304 O.co2     1 GTP         0.3195
      5 O3B         4.6337   -4.2991   -3.3160 O.3       1 GTP         0.4672
      6 PB          3.9055   -3.5156   -4.5293 P.3       1 GTP        -0.9715
      7 O1B         4.6966   -3.4494   -5.8023 O.2       1 GTP         0.2707
      8 O2B         2.4821   -4.2731   -4.6493 O.3       1 GTP         0.0326
      9 O3A         3.5200   -2.0888   -3.8773 O.3       1 GTP         0.4672
     10 PA          4.4649   -0.9309   -3.2223 P.3       1 GTP        -1.1062
     11 O1A         5.0842   -1.4788   -1.9550 O.co2     1 GTP         0.3195
     12 O2A         5.3216   -0.3334   -4.3172 O.co2     1 GTP         0.3195
     13 O5'         3.2903    0.1346   -2.8241 O.3       1 GTP         0.1618
     14 C5'         2.2816   -0.2918   -1.9206 C.3       1 GTP         0.1504
     15 C4'         2.7248    0.0226   -0.4980 C.3       1 GTP         0.1111
     16 O4'         2.4697    1.4219   -0.2462 O.3       1 GTP        -0.1436
     17 C3'         1.9404   -0.7419    0.5596 C.3       1 GTP         0.1111
     18 O3'         2.7418   -0.8086    1.7389 O.3       1 GTP        -0.2728
     19 C2'         0.7477    0.1630    0.7858 C.3       1 GTP         0.1111
     20 O2'         0.1373   -0.0577    2.0407 O.3       1 GTP        -0.2728
     21 C1'         1.3733    1.5427    0.6747 C.3       1 GTP         0.2693
     22 N9          0.4520    2.5240    0.1767 N.pl3     1 GTP        -0.3222
     23 C8          0.2203    2.8205   -1.0970 C.ar      1 GTP         0.1640
     24 N7         -0.6947    3.7752   -1.2304 N.pl3     1 GTP        -0.3688
     25 C5         -1.0607    4.0987    0.0476 C.ar      1 GTP         0.0648
     26 C6         -2.0310    5.0839    0.5029 C.ar      1 GTP         0.3597
     27 O6         -2.6779    5.7867   -0.2609 O.2       1 GTP        -0.2755
     28 N1         -2.1030    5.0975    1.8948 N.pl3     1 GTP        -0.1604
     29 C2         -1.3422    4.2721    2.7403 C.ar      1 GTP         0.4468
     30 N2         -1.5624    4.4419    4.0823 N.pl3     1 GTP        -0.5618
     31 N3         -0.4796    3.3981    2.2792 N.2       1 GTP        -0.4283
     32 C4         -0.3754    3.3496    0.9208 C.ar      1 GTP         0.2226
     33 HOB2        1.8099   -3.9230   -5.2719 H         1 GTP         0.2010
     34 H5'         1.3514    0.2330   -2.1577 H         1 GTP        -0.0393
     35 H5''        2.1280   -1.3678   -2.0460 H         1 GTP        -0.0393
     36 H4'         3.8044   -0.1397   -0.4040 H         1 GTP        -0.0393
     37 H3'         1.6764   -1.7639    0.2728 H         1 GTP        -0.0393
     38 HO3'        2.2232   -1.2979    2.3953 H         1 GTP         0.2010
     39 H2'        -0.0011    0.0027    0.0003 H         1 GTP        -0.0393
     40 HO2'       -0.1563   -0.9855    2.0596 H         1 GTP         0.2010
     41 H1'         1.7826    1.9024    1.6451 H         1 GTP        -0.0393
     42 H8          0.7110    2.3472   -1.9295 H         1 GTP         0.0000
     43 HN1        -2.7504    5.7495    2.3282 H         1 GTP         0.0865
     44 HN21       -1.0467    3.8796    4.7190 H         1 GTP         0.2048
     45 HN22       -2.2294    5.1209    4.3680 H         1 GTP         0.2048
     46 H46        -1.0382    4.1687   -2.0954 H         1 GTP         0.2048
@<TRIPOS>BOND
     1    1    2 2
     2    1    3 1
     3    1    4 1
     4    1    5 1
     5    5    6 1
     6    6    7 2
     7    6    8 1
     8    6    9 1
     9    8   33 1
    10    9   10 1
    11   10   11 2
    12   10   12 1
    13   10   13 1
    14   13   14 1
    15   14   15 1
    16   14   34 1
    17   14   35 1
    18   15   16 1
    19   15   17 1
    20   15   36 1
    21   16   21 1
    22   17   18 1
    23   17   19 1
    24   17   37 1
    25   18   38 1
    26   19   20 1
    27   19   21 1
    28   19   39 1
    29   20   40 1
    30   21   22 1
    31   21   41 1
    32   22   23 ar
    33   22   32 ar
    34   23   24 ar
    35   23   42 1
    36   24   25 ar
    37   24   46 1
    38   25   26 ar
    39   25   32 ar
    40   26   27 2
    41   26   28 ar
    42   28   29 ar
    43   28   43 1
    44   29   30 1
    45   29   31 ar
    46   30   44 1
    47   30   45 1
    48   31   32 ar
@<TRIPOS>SUBSTRUCTURE
     1 GTP         1 GROUP 0 A     ****
@<TRIPOS>MOLECULE
[[[5-(2-amino-6-oxo-7,8-dihydro-1~{H}-purin-8-ylium-9-yl)-3,4-dihydroxy-tetrahydrofuran-2-yl]methoxy-oxido-phosphoryl]oxy-hydroxy-phosphoryl] phosphate
   46    48     1     0     0
SMALL
USER_CHARGES

@<TRIPOS>ATOM
      1 PG         -3.8953   -8.4923    5.1821 P.3       1 GTP        -1.1921
      2 O1G        -3.6067   -9.6740    4.2620 O.co2     1 GTP         0.3195
      3 O2G        -5.2099   -7.7767    4.8888 O.co2     1 GTP         0.3195
      4 O3G        -3.6521   -8.7732    6.6613 O.co2     1 GTP         0.3195
      5 O3B        -2.7447   -7.3807    4.7847 O.3       1 GTP         0.4672
      6 PB         -1.1309   -7.4704    4.8478 P.3       1 GTP        -0.9715
      7 O1B        -0.5662   -7.7260    6.2140 O.2       1 GTP         0.2707
      8 O2B        -0.7859   -8.6008    3.7445 O.3       1 GTP         0.0326
      9 O3A        -0.6507   -6.0977    4.1446 O.3       1 GTP         0.4672
     10 PA         -0.5519   -4.5800    4.7360 P.3       1 GTP        -1.1062
     11 O1A        -1.9533   -4.0853    5.0208 O.co2     1 GTP         0.3195
     12 O2A         0.5211   -4.5486    5.8024 O.co2     1 GTP         0.3195
     13 O5'         0.0118   -3.8395    3.3916 O.3       1 GTP         0.1618
     14 C5'        -0.7840   -3.8935    2.2172 C.3       1 GTP         0.1504
     15 C4'        -0.0724   -3.1466    1.1027 C.3       1 GTP         0.1111
     16 O4'        -0.8674   -3.1929   -0.0945 O.3       1 GTP        -0.1436
     17 C3'         0.1338   -1.6715    1.4027 C.3       1 GTP         0.1111
     18 O3'         1.2893   -1.4445    2.1808 O.3       1 GTP        -0.2728
     19 C2'         0.2158   -1.0724    0.0128 C.3       1 GTP         0.1111
     20 O2'         1.5141   -1.2448   -0.5513 O.3       1 GTP        -0.2728
     21 C1'        -0.7897   -1.9176   -0.7583 C.3       1 GTP         0.2693
     22 N9         -2.1040   -1.3333   -0.7704 N.pl3     1 GTP        -0.3222
     23 C8         -3.0597   -1.5109    0.1345 C.ar      1 GTP         0.1640
     24 N7         -4.1618   -0.8291   -0.1607 N.pl3     1 GTP        -0.3688
     25 C5         -3.8764   -0.1805   -1.3310 C.ar      1 GTP         0.0648
     26 C6         -4.7187    0.7111   -2.1152 C.ar      1 GTP         0.3597
     27 O6         -5.8617    1.0043   -1.7939 O.2       1 GTP        -0.2755
     28 N1         -4.0405    1.1608   -3.2468 N.pl3     1 GTP        -0.1604
     29 C2         -2.7239    0.8013   -3.5822 C.ar      1 GTP         0.4468
     30 N2         -2.2399    1.3534   -4.7394 N.pl3     1 GTP        -0.5618
     31 N3         -2.0053   -0.0071   -2.8402 N.2       1 GTP        -0.4283
     32 C4         -2.6290   -0.4727   -1.7210 C.ar      1 GTP         0.2226
     33 HOB2        0.1539   -8.7825    3.5300 H         1 GTP         0.2010
     34 H5'        -0.9348   -4.9415    1.9415 H         1 GTP        -0.0393
     35 H5''       -1.7548   -3.4350    2.4278 H         1 GTP        -0.0393
     36 H4'         0.8874   -3.6466    0.8805 H         1 GTP        -0.0393
     37 H3'        -0.7376   -1.2333    1.9867 H         1 GTP        -0.0393
     38 HO3'        1.1626   -1.9325    3.0084 H         1 GTP         0.2010
     39 H2'        -0.0384   -0.0310    0.0096 H         1 GTP        -0.0393
     40 HO2'        2.1463   -0.7958    0.0370 H         1 GTP         0.2010
     41 H1'        -0.4769   -2.1002   -1.8093 H         1 GTP        -0.0393
     42 H8         -2.9610   -2.1316    1.0079 H         1 GTP         0.0000
     43 HN1        -4.5320    1.7923   -3.8726 H         1 GTP         0.0865
     44 HN21       -1.3128    1.1277   -5.0171 H         1 GTP         0.2048
     45 HN22       -2.8342    1.9586   -5.2572 H         1 GTP         0.2048
     46 H46        -5.0195   -0.8034    0.3729 H         1 GTP         0.2048
@<TRIPOS>BOND
     1    1    2 2
     2    1    3 1
     3    1    4 1
     4    1    5 1
     5    5    6 1
     6    6    7 2
     7    6    8 1
     8    6    9 1
     9    8   33 1
    10    9   10 1
    11   10   11 2
    12   10   12 1
    13   10   13 1
    14   13   14 1
    15   14   15 1
    16   14   34 1
    17   14   35 1
    18   15   16 1
    19   15   17 1
    20   15   36 1
    21   16   21 1
    22   17   18 1
    23   17   19 1
    24   17   37 1
    25   18   38 1
    26   19   20 1
    27   19   21 1
    28   19   39 1
    29   20   40 1
    30   21   22 1
    31   21   41 1
    32   22   23 ar
    33   22   32 ar
    34   23   24 ar
    35   23   42 1
    36   24   25 ar
    37   24   46 1
    38   25   26 ar
    39   25   32 ar
    40   26   27 2
    41   26   28 ar
    42   28   29 ar
    43   28   43 1
    44   29   30 1
    45   29   31 ar
    46   30   44 1
    47   30   45 1
    48   31   32 ar
@<TRIPOS>SUBSTRUCTURE
     1 GTP         1 GROUP 0 A     ****
@<TRIPOS>MOLECULE
[[[5-(2-amino-6-oxo-7,8-dihydro-1~{H}-purin-8-ylium-9-yl)-3,4-dihydroxy-tetrahydrofuran-2-yl]methoxy-oxido-phosphoryl]oxy-hydroxy-phosphoryl] phosphate
   46    48     1     0     0
SMALL
USER_CHARGES

@<TRIPOS>ATOM
      1 PG          1.6779    4.0414   -7.4149 P.3       1 GTP        -1.1921
      2 O1G         0.5380    3.2885   -8.0932 O.co2     1 GTP         0.3195
      3 O2G         3.0063    3.9709   -8.1610 O.co2     1 GTP         0.3195
      4 O3G         1.3069    5.4384   -6.9283 O.co2     1 GTP         0.3195
      5 O3B         1.9575    3.1897   -6.0315 O.3       1 GTP         0.4672
      6 PB          0.9814    2.8617   -4.7841 P.3       1 GTP        -0.9715
      7 O1B         0.4519    4.0664   -4.0637 O.2       1 GTP         0.2707
      8 O2B        -0.1472    1.9114   -5.4454 O.3       1 GTP         0.0326
      9 O3A         1.8527    1.8423   -3.8834 O.3       1 GTP         0.4672
     10 PA          2.8307    0.6109   -4.3192 P.3       1 GTP        -1.1062
     11 O1A         1.9827   -0.4755   -4.9441 O.co2     1 GTP         0.3195
     12 O2A         4.0294    1.1826   -5.0444 O.co2     1 GTP         0.3195
     13 O5'         3.2903    0.1346   -2.8241 O.3       1 GTP         0.1618
     14 C5'         2.2816   -0.2918   -1.9206 C.3       1 GTP         0.1504
     15 C4'         2.7248    0.0226   -0.4980 C.3       1 GTP         0.1111
     16 O4'         2.4697    1.4219   -0.2462 O.3       1 GTP        -0.1436
     17 C3'         1.9404   -0.7419    0.5596 C.3       1 GTP         0.1111
     18 O3'         2.7418   -0.8086    1.7389 O.3       1 GTP        -0.2728
     19 C2'         0.7477    0.1630    0.7858 C.3       1 GTP         0.1111
     20 O2'         0.1373   -0.0577    2.0407 O.3       1 GTP        -0.2728
     21 C1'         1.3733    1.5427    0.6747 C.3       1 GTP         0.2693
     22 N9          0.4520    2.5240    0.1767 N.pl3     1 GTP        -0.3222
     23 C8          0.2203    2.8205   -1.0970 C.ar      1 GTP         0.1640
     24 N7         -0.6947    3.7752   -1.2304 N.pl3     1 GTP        -0.3688
     25 C5         -1.0607    4.0987    0.0476 C.ar      1 GTP         0.0648
     26 C6         -2.0310    5.0839    0.5029 C.ar      1 GTP         0.3597
     27 O6         -2.6779    5.7867   -0.2609 O.2       1 GTP        -0.2755
     28 N1         -2.1030    5.0975    1.8948 N.pl3     1 GTP        -0.1604
     29 C2         -1.3422    4.2721    2.7403 C.ar      1 GTP         0.4468
     30 N2         -1.5624    4.4419    4.0823 N.pl3     1 GTP        -0.5618
     31 N3         -0.4796    3.3981    2.2792 N.2       1 GTP        -0.4283
     32 C4         -0.3754    3.3496    0.9208 C.ar      1 GTP         0.2226
     33 HOB2       -0.7468    2.2893   -6.1236 H         1 GTP         0.2010
     34 H5'         1.3514    0.2330   -2.1577 H         1 GTP        -0.0393
     35 H5''        2.1280   -1.3678   -2.0460 H         1 GTP        -0.0393
     36 H4'         3.8044   -0.1397   -0.4040 H         1 GTP        -0.0393
     37 H3'         1.6764   -1.7639    0.2728 H         1 GTP        -0.0393
     38 HO3'        3.5554   -1.2733    1.4914 H         1 GTP         0.2010
     39 H2'        -0.0011    0.0027    0.0003 H         1 GTP        -0.0393
     40 HO2'       -0.1563   -0.9855    2.0596 H         1 GTP         0.2010
     41 H1'         1.7826    1.9024    1.6451 H         1 GTP        -0.0393
     42 H8          0.7110    2.3472   -1.9295 H         1 GTP         0.0000
     43 HN1        -2.7504    5.7495    2.3282 H         1 GTP         0.0865
     44 HN21       -1.0467    3.8796    4.7190 H         1 GTP         0.2048
     45 HN22       -2.2294    5.1209    4.3680 H         1 GTP         0.2048
     46 H46        -1.0382    4.1687   -2.0954 H         1 GTP         0.2048
@<TRIPOS>BOND
     1    1    2 2
     2    1    3 1
     3    1    4 1
     4    1    5 1
     5    5    6 1
     6    6    7 2
     7    6    8 1
     8    6    9 1
     9    8   33 1
    10    9   10 1
    11   10   11 2
    12   10   12 1
    13   10   13 1
    14   13   14 1
    15   14   15 1
    16   14   34 1
    17   14   35 1
    18   15   16 1
    19   15   17 1
    20   15   36 1
    21   16   21 1
    22   17   18 1
    23   17   19 1
    24   17   37 1
    25   18   38 1
    26   19   20 1
    27   19   21 1
    28   19   39 1
    29   20   40 1
    30   21   22 1
    31   21   41 1
    32   22   23 ar
    33   22   32 ar
    34   23   24 ar
    35   23   42 1
    36   24   25 ar
    37   24   46 1
    38   25   26 ar
    39   25   32 ar
    40   26   27 2
    41   26   28 ar
    42   28   29 ar
    43   28   43 1
    44   29   30 1
    45   29   31 ar
    46   30   44 1
    47   30   45 1
    48   31   32 ar
@<TRIPOS>SUBSTRUCTURE
     1 GTP         1 GROUP 0 A     ****
@<TRIPOS>MOLECULE
[[[5-(2-amino-6-oxo-7,8-dihydro-1~{H}-purin-8-ylium-9-yl)-3,4-dihydroxy-tetrahydrofuran-2-yl]methoxy-oxido-phosphoryl]oxy-hydroxy-phosphoryl] phosphate
   46    48     1     0     0
SMALL
USER_CHARGES

@<TRIPOS>ATOM
      1 PG          2.5129   -4.3680   -6.4210 P.3       1 GTP        -1.1921
      2 O1G         3.3037   -3.9971   -7.6713 O.co2     1 GTP         0.3195
      3 O2G         1.1557   -5.0038   -6.7042 O.co2     1 GTP         0.3195
      4 O3G         3.3289   -5.0854   -5.3506 O.co2     1 GTP         0.3195
      5 O3B         2.1329   -2.9166   -5.7381 O.3       1 GTP         0.4672
      6 PB          3.0873   -1.7298   -5.1930 P.3       1 GTP        -0.9715
      7 O1B         4.0201   -2.1279   -4.0876 O.2       1 GTP         0.2707
      8 O2B         3.8105   -1.1980   -6.5378 O.3       1 GTP         0.0326
      9 O3A         2.0474   -0.5479   -4.8311 O.3       1 GTP         0.4672
     10 PA          2.3065    0.9470   -4.2302 P.3       1 GTP        -1.1062
     11 O1A         3.3234    1.6453   -5.1065 O.co2     1 GTP         0.3195
     12 O2A         0.9669    1.5820   -3.9271 O.co2     1 GTP         0.3195
     13 O5'         3.0213    0.5153   -2.8245 O.3       1 GTP         0.1618
     14 C5'         2.2816   -0.2918   -1.9206 C.3       1 GTP         0.1504
     15 C4'         2.7248    0.0226   -0.4980 C.3       1 GTP         0.1111
     16 O4'         2.4697    1.4219   -0.2462 O.3       1 GTP        -0.1436
     17 C3'         1.9404   -0.7419    0.5596 C.3       1 GTP         0.1111
     18 O3'         2.7418   -0.8086    1.7389 O.3       1 GTP        -0.2728
     19 C2'         0.7477    0.1630    0.7858 C.3       1 GTP         0.1111
     20 O2'         0.1373   -0.0577    2.0407 O.3       1 GTP        -0.2728
     21 C1'         1.3733    1.5427    0.6747 C.3       1 GTP         0.2693
     22 N9          0.4520    2.5240    0.1767 N.pl3     1 GTP        -0.3222
     23 C8         -0.8613    2.5511    0.3730 C.ar      1 GTP         0.1640
     24 N7         -1.4346    3.5939   -0.2188 N.pl3     1 GTP        -0.3688
     25 C5         -0.4099    4.2657   -0.8276 C.ar      1 GTP         0.0648
     26 C6         -0.4554    5.4854   -1.6209 C.ar      1 GTP         0.3597
     27 O6         -1.4907    6.0944   -1.8508 O.2       1 GTP        -0.2755
     28 N1          0.8205    5.8357   -2.0593 N.pl3     1 GTP        -0.1604
     29 C2          1.9890    5.1091   -1.7730 C.ar      1 GTP         0.4468
     30 N2          3.1452    5.6230   -2.2997 N.pl3     1 GTP        -0.5618
     31 N3          1.9765    4.0139   -1.0514 N.2       1 GTP        -0.4283
     32 C4          0.7480    3.6324   -0.6003 C.ar      1 GTP         0.2226
     33 HOB2        4.3887   -0.4074   -6.4839 H         1 GTP         0.2010
     34 H5'         1.2163   -0.0770   -2.0471 H         1 GTP        -0.0393
     35 H5''        2.4655   -1.3443   -2.1563 H         1 GTP        -0.0393
     36 H4'         3.8044   -0.1397   -0.4040 H         1 GTP        -0.0393
     37 H3'         1.6764   -1.7639    0.2728 H         1 GTP        -0.0393
     38 HO3'        2.2232   -1.2979    2.3953 H         1 GTP         0.2010
     39 H2'        -0.0011    0.0027    0.0003 H         1 GTP        -0.0393
     40 HO2'       -0.1563   -0.9855    2.0596 H         1 GTP         0.2010
     41 H1'         1.7826    1.9024    1.6451 H         1 GTP        -0.0393
     42 H8         -1.4050    1.8187    0.9438 H         1 GTP         0.0000
     43 HN1         0.9121    6.6744   -2.6251 H         1 GTP         0.0865
     44 HN21        3.9971    5.1427   -2.1235 H         1 GTP         0.2048
     45 HN22        3.0881    6.4564   -2.8380 H         1 GTP         0.2048
     46 H46        -2.4173    3.8294   -0.2127 H         1 GTP         0.2048
@<TRIPOS>BOND
     1    1    2 2
     2    1    3 1
     3    1    4 1
     4    1    5 1
     5    5    6 1
     6    6    7 2
     7    6    8 1
     8    6    9 1
     9    8   33 1
    10    9   10 1
    11   10   11 2
    12   10   12 1
    13   10   13 1
    14   13   14 1
    15   14   15 1
    16   14   34 1
    17   14   35 1
    18   15   16 1
    19   15   17 1
    20   15   36 1
    21   16   21 1
    22   17   18 1
    23   17   19 1
    24   17   37 1
    25   18   38 1
    26   19   20 1
    27   19   21 1
    28   19   39 1
    29   20   40 1
    30   21   22 1
    31   21   41 1
    32   22   23 ar
    33   22   32 ar
    34   23   24 ar
    35   23   42 1
    36   24   25 ar
    37   24   46 1
    38   25   26 ar
    39   25   32 ar
    40   26   27 2
    41   26   28 ar
    42   28   29 ar
    43   28   43 1
    44   29   30 1
    45   29   31 ar
    46   30   44 1
    47   30   45 1
    48   31   32 ar
@<TRIPOS>SUBSTRUCTURE
     1 GTP         1 GROUP 0 A     ****
@<TRIPOS>MOLECULE
[[[5-(2-amino-6-oxo-7,8-dihydro-1~{H}-purin-8-ylium-9-yl)-3,4-dihydroxy-tetrahydrofuran-2-yl]methoxy-oxido-phosphoryl]oxy-hydroxy-phosphoryl] phosphate
   46    48     1     0     0
SMALL
USER_CHARGES

@<TRIPOS>ATOM
      1 PG          2.4399   -4.5390   -4.4607 P.3       1 GTP        -1.1921
      2 O1G         3.4097   -5.4851   -3.7603 O.co2     1 GTP         0.3195
      3 O2G         1.5280   -5.2174   -5.4778 O.co2     1 GTP         0.3195
      4 O3G         1.7235   -3.5687   -3.5272 O.co2     1 GTP         0.3195
      5 O3B         3.4098   -3.5759   -5.3821 O.3       1 GTP         0.4672
      6 PB          4.6072   -2.5755   -4.9557 P.3       1 GTP        -0.9715
      7 O1B         5.7527   -3.2306   -4.2422 O.2       1 GTP         0.2707
      8 O2B         4.9943   -1.8559   -6.3510 O.3       1 GTP         0.0326
      9 O3A         3.8490   -1.4129   -4.1292 O.3       1 GTP         0.4672
     10 PA          4.4330   -0.0741   -3.4017 P.3       1 GTP        -1.1062
     11 O1A         5.3014   -0.5016   -2.2386 O.co2     1 GTP         0.3195
     12 O2A         4.9584    0.8620   -4.4682 O.co2     1 GTP         0.3195
     13 O5'         3.0213    0.5153   -2.8245 O.3       1 GTP         0.1618
     14 C5'         2.2816   -0.2918   -1.9206 C.3       1 GTP         0.1504
     15 C4'         2.7248    0.0226   -0.4980 C.3       1 GTP         0.1111
     16 O4'         2.4697    1.4219   -0.2462 O.3       1 GTP        -0.1436
     17 C3'         1.9404   -0.7419    0.5596 C.3       1 GTP         0.1111
     18 O3'         2.7418   -0.8086    1.7389 O.3       1 GTP        -0.2728
     19 C2'         0.7477    0.1630    0.7858 C.3       1 GTP         0.1111
     20 O2'         0.1373   -0.0577    2.0407 O.3       1 GTP        -0.2728
     21 C1'         1.3733    1.5427    0.6747 C.3       1 GTP         0.2693
     22 N9          0.4520    2.5240    0.1767 N.pl3     1 GTP        -0.3222
     23 C8         -0.2009    2.4849   -0.9792 C.ar      1 GTP         0.1640
     24 N7         -0.9840    3.5454   -1.1481 N.pl3     1 GTP        -0.3688
     25 C5         -0.8090    4.3005   -0.0206 C.ar      1 GTP         0.0648
     26 C6         -1.4206    5.5724    0.3362 C.ar      1 GTP         0.3597
     27 O6         -2.2199    6.1544   -0.3836 O.2       1 GTP        -0.2755
     28 N1         -0.9680    6.0043    1.5817 N.pl3     1 GTP        -0.1604
     29 C2         -0.0474    5.3055    2.3814 C.ar      1 GTP         0.4468
     30 N2          0.2680    5.9024    3.5740 N.pl3     1 GTP        -0.5618
     31 N3          0.4755    4.1601    2.0138 N.2       1 GTP        -0.4283
     32 C4          0.0611    3.6981    0.8001 C.ar      1 GTP         0.2226
     33 HOB2        5.6528   -1.1290   -6.3426 H         1 GTP         0.2010
     34 H5'         1.2163   -0.0770   -2.0471 H         1 GTP        -0.0393
     35 H5''        2.4655   -1.3443   -2.1563 H         1 GTP        -0.0393
     36 H4'         3.8044   -0.1397   -0.4040 H         1 GTP        -0.0393
     37 H3'         1.6764   -1.7639    0.2728 H         1 GTP        -0.0393
     38 HO3'        2.2232   -1.2979    2.3953 H         1 GTP         0.2010
     39 H2'        -0.0011    0.0027    0.0003 H         1 GTP        -0.0393
     40 HO2'       -0.6141    0.5574    2.1082 H         1 GTP         0.2010
     41 H1'         1.7826    1.9024    1.6451 H         1 GTP        -0.0393
     42 H8         -0.1126    1.6906   -1.6997 H         1 GTP         0.0000
     43 HN1        -1.3285    6.8855    1.9361 H         1 GTP         0.0865
     44 HN21        0.9153    5.4446    4.1732 H         1 GTP         0.2048
     45 HN22       -0.1624    6.7706    3.7948 H         1 GTP         0.2048
     46 H46        -1.5768    3.7405   -1.9429 H         1 GTP         0.2048
@<TRIPOS>BOND
     1    1    2 2
     2    1    3 1
     3    1    4 1
     4    1    5 1
     5    5    6 1
     6    6    7 2
     7    6    8 1
     8    6    9 1
     9    8   33 1
    10    9   10 1
    11   10   11 2
    12   10   12 1
    13   10   13 1
    14   13   14 1
    15   14   15 1
    16   14   34 1
    17   14   35 1
    18   15   16 1
    19   15   17 1
    20   15   36 1
    21   16   21 1
    22   17   18 1
    23   17   19 1
    24   17   37 1
    25   18   38 1
    26   19   20 1
    27   19   21 1
    28   19   39 1
    29   20   40 1
    30   21   22 1
    31   21   41 1
    32   22   23 ar
    33   22   32 ar
    34   23   24 ar
    35   23   42 1
    36   24   25 ar
    37   24   46 1
    38   25   26 ar
    39   25   32 ar
    40   26   27 2
    41   26   28 ar
    42   28   29 ar
    43   28   43 1
    44   29   30 1
    45   29   31 ar
    46   30   44 1
    47   30   45 1
    48   31   32 ar
@<TRIPOS>SUBSTRUCTURE
     1 GTP         1 GROUP 0 A     ****
@<TRIPOS>MOLECULE
[[[5-(2-amino-6-oxo-7,8-dihydro-1~{H}-purin-8-ylium-9-yl)-3,4-dihydroxy-tetrahydrofuran-2-yl]methoxy-oxido-phosphoryl]oxy-hydroxy-phosphoryl] phosphate
   46    48     1     0     0
SMALL
USER_CHARGES

@<TRIPOS>ATOM
      1 PG          2.1268    0.6861   -8.0917 P.3       1 GTP        -1.1921
      2 O1G         1.2054   -0.2846   -8.8231 O.co2     1 GTP         0.3195
      3 O2G         3.4665    0.9188   -8.7825 O.co2     1 GTP         0.3195
      4 O3G         1.4419    1.9605   -7.6091 O.co2     1 GTP         0.3195
      5 O3B         2.5314   -0.1083   -6.7051 O.3       1 GTP         0.4672
      6 PB          1.6026   -0.6620   -5.5022 P.3       1 GTP        -0.9715
      7 O1B         0.7959    0.3862   -4.7942 O.2       1 GTP         0.2707
      8 O2B         0.7345   -1.8232   -6.2179 O.3       1 GTP         0.0326
      9 O3A         2.6393   -1.4832   -4.5747 O.3       1 GTP         0.4672
     10 PA          3.9818   -0.9895   -3.7893 P.3       1 GTP        -1.1062
     11 O1A         4.4836   -2.1326   -2.9341 O.co2     1 GTP         0.3195
     12 O2A         4.8908   -0.2960   -4.7805 O.co2     1 GTP         0.3195
     13 O5'         3.2903    0.1346   -2.8241 O.3       1 GTP         0.1618
     14 C5'         2.2816   -0.2918   -1.9206 C.3       1 GTP         0.1504
     15 C4'         2.7248    0.0226   -0.4980 C.3       1 GTP         0.1111
     16 O4'         2.4697    1.4219   -0.2462 O.3       1 GTP        -0.1436
     17 C3'         1.9404   -0.7419    0.5596 C.3       1 GTP         0.1111
     18 O3'         2.7418   -0.8086    1.7389 O.3       1 GTP        -0.2728
     19 C2'         0.7477    0.1630    0.7858 C.3       1 GTP         0.1111
     20 O2'         0.1373   -0.0577    2.0407 O.3       1 GTP        -0.2728
     21 C1'         1.3733    1.5427    0.6747 C.3       1 GTP         0.2693
     22 N9          0.4520    2.5240    0.1767 N.pl3     1 GTP        -0.3222
     23 C8         -0.2009    2.4849   -0.9792 C.ar      1 GTP         0.1640
     24 N7         -0.9840    3.5454   -1.1481 N.pl3     1 GTP        -0.3688
     25 C5         -0.8090    4.3005   -0.0206 C.ar      1 GTP         0.0648
     26 C6         -1.4206    5.5724    0.3362 C.ar      1 GTP         0.3597
     27 O6         -2.2199    6.1544   -0.3836 O.2       1 GTP        -0.2755
     28 N1         -0.9680    6.0043    1.5817 N.pl3     1 GTP        -0.1604
     29 C2         -0.0474    5.3055    2.3814 C.ar      1 GTP         0.4468
     30 N2          0.2680    5.9024    3.5740 N.pl3     1 GTP        -0.5618
     31 N3          0.4755    4.1601    2.0138 N.2       1 GTP        -0.4283
     32 C4          0.0611    3.6981    0.8001 C.ar      1 GTP         0.2226
     33 HOB2        0.0937   -1.5730   -6.9172 H         1 GTP         0.2010
     34 H5'         1.3514    0.2330   -2.1577 H         1 GTP        -0.0393
     35 H5''        2.1280   -1.3678   -2.0460 H         1 GTP        -0.0393
     36 H4'         3.8044   -0.1397   -0.4040 H         1 GTP        -0.0393
     37 H3'         1.6764   -1.7639    0.2728 H         1 GTP        -0.0393
     38 HO3'        3.5554   -1.2733    1.4914 H         1 GTP         0.2010
     39 H2'        -0.0011    0.0027    0.0003 H         1 GTP        -0.0393
     40 HO2'       -0.6141    0.5574    2.1082 H         1 GTP         0.2010
     41 H1'         1.7826    1.9024    1.6451 H         1 GTP        -0.0393
     42 H8         -0.1126    1.6906   -1.6997 H         1 GTP         0.0000
     43 HN1        -1.3285    6.8855    1.9361 H         1 GTP         0.0865
     44 HN21        0.9153    5.4446    4.1732 H         1 GTP         0.2048
     45 HN22       -0.1624    6.7706    3.7948 H         1 GTP         0.2048
     46 H46        -1.5768    3.7405   -1.9429 H         1 GTP         0.2048
@<TRIPOS>BOND
     1    1    2 2
     2    1    3 1
     3    1    4 1
     4    1    5 1
     5    5    6 1
     6    6    7 2
     7    6    8 1
     8    6    9 1
     9    8   33 1
    10    9   10 1
    11   10   11 2
    12   10   12 1
    13   10   13 1
    14   13   14 1
    15   14   15 1
    16   14   34 1
    17   14   35 1
    18   15   16 1
    19   15   17 1
    20   15   36 1
    21   16   21 1
    22   17   18 1
    23   17   19 1
    24   17   37 1
    25   18   38 1
    26   19   20 1
    27   19   21 1
    28   19   39 1
    29   20   40 1
    30   21   22 1
    31   21   41 1
    32   22   23 ar
    33   22   32 ar
    34   23   24 ar
    35   23   42 1
    36   24   25 ar
    37   24   46 1
    38   25   26 ar
    39   25   32 ar
    40   26   27 2
    41   26   28 ar
    42   28   29 ar
    43   28   43 1
    44   29   30 1
    45   29   31 ar
    46   30   44 1
    47   30   45 1
    48   31   32 ar
@<TRIPOS>SUBSTRUCTURE
     1 GTP         1 GROUP 0 A     ****
@<TRIPOS>MOLECULE
[[[5-(2-amino-6-oxo-7,8-dihydro-1~{H}-purin-8-ylium-9-yl)-3,4-dihydroxy-tetrahydrofuran-2-yl]methoxy-oxido-phosphoryl]oxy-hydroxy-phosphoryl] phosphate
   46    48     1     0     0
SMALL
USER_CHARGES

@<TRIPOS>ATOM
      1 PG         -0.3040   -3.8960   -7.3976 P.3       1 GTP        -1.1921
      2 O1G        -1.5942   -3.0992   -7.5611 O.co2     1 GTP         0.3195
      3 O2G        -0.5098   -5.3292   -6.9180 O.co2     1 GTP         0.3195
      4 O3G         0.6711   -3.7598   -8.5623 O.co2     1 GTP         0.3195
      5 O3B         0.4648   -3.1652   -6.1357 O.3       1 GTP         0.4672
      6 PB          0.9846   -1.6434   -5.9612 P.3       1 GTP        -0.9715
      7 O1B         1.9990   -1.2031   -6.9749 O.2       1 GTP         0.2707
      8 O2B        -0.3879   -0.7888   -5.9537 O.3       1 GTP         0.0326
      9 O3A         1.4724   -1.5874   -4.4222 O.3       1 GTP         0.4672
     10 PA          2.8575   -2.1002   -3.7283 P.3       1 GTP        -1.1062
     11 O1A         2.9055   -3.6102   -3.8147 O.co2     1 GTP         0.3195
     12 O2A         3.9974   -1.2500   -4.2452 O.co2     1 GTP         0.3195
     13 O5'         2.5245   -1.6648   -2.1878 O.3       1 GTP         0.1618
     14 C5'         2.2816   -0.2918   -1.9206 C.3       1 GTP         0.1504
     15 C4'         2.7248    0.0226   -0.4980 C.3       1 GTP         0.1111
     16 O4'         2.4697    1.4219   -0.2462 O.3       1 GTP        -0.1436
     17 C3'         1.9404   -0.7419    0.5596 C.3       1 GTP         0.1111
     18 O3'         2.7418   -0.8086    1.7389 O.3       1 GTP        -0.2728
     19 C2'         0.7477    0.1630    0.7858 C.3       1 GTP         0.1111
     20 O2'         0.1373   -0.0577    2.0407 O.3       1 GTP        -0.2728
     21 C1'         1.3733    1.5427    0.6747 C.3       1 GTP         0.2693
     22 N9          0.4520    2.5240    0.1767 N.pl3     1 GTP        -0.3222
     23 C8          0.5671    3.2221   -0.9473 C.ar      1 GTP         0.1640
     24 N7         -0.4560    4.0508   -1.1290 N.pl3     1 GTP        -0.3688
     25 C5         -1.2671    3.8585   -0.0441 C.ar      1 GTP         0.0648
     26 C6         -2.5318    4.5014    0.2817 C.ar      1 GTP         0.3597
     27 O6         -3.0527    5.3493   -0.4293 O.2       1 GTP        -0.2755
     28 N1         -3.0357    4.0149    1.4868 N.pl3     1 GTP        -0.1604
     29 C2         -2.4069    3.0373    2.2768 C.ar      1 GTP         0.4468
     30 N2         -3.0679    2.6964    3.4278 N.pl3     1 GTP        -0.5618
     31 N3         -1.2653    2.4872    1.9379 N.2       1 GTP        -0.4283
     32 C4         -0.7342    2.9334    0.7643 C.ar      1 GTP         0.2226
     33 HOB2       -0.9337   -0.7617   -6.7683 H         1 GTP         0.2010
     34 H5'         2.8432    0.3119   -2.6398 H         1 GTP        -0.0393
     35 H5''        1.2128   -0.0927   -2.0428 H         1 GTP        -0.0393
     36 H4'         3.8044   -0.1397   -0.4040 H         1 GTP        -0.0393
     37 H3'         1.6764   -1.7639    0.2728 H         1 GTP        -0.0393
     38 HO3'        2.2232   -1.2979    2.3953 H         1 GTP         0.2010
     39 H2'        -0.0011    0.0027    0.0003 H         1 GTP        -0.0393
     40 HO2'       -0.1563   -0.9855    2.0596 H         1 GTP         0.2010
     41 H1'         1.7826    1.9024    1.6451 H         1 GTP        -0.0393
     42 H8          1.3888    3.1325   -1.6361 H         1 GTP         0.0000
     43 HN1        -3.9188    4.3932    1.8170 H         1 GTP         0.0865
     44 HN21       -2.6609    2.0087    4.0186 H         1 GTP         0.2048
     45 HN22       -3.9293    3.1496    3.6283 H         1 GTP         0.2048
     46 H46        -0.5938    4.6820   -1.9060 H         1 GTP         0.2048
@<TRIPOS>BOND
     1    1    2 2
     2    1    3 1
     3    1    4 1
     4    1    5 1
     5    5    6 1
     6    6    7 2
     7    6    8 1
     8    6    9 1
     9    8   33 1
    10    9   10 1
    11   10   11 2
    12   10   12 1
    13   10   13 1
    14   13   14 1
    15   14   15 1
    16   14   34 1
    17   14   35 1
    18   15   16 1
    19   15   17 1
    20   15   36 1
    21   16   21 1
    22   17   18 1
    23   17   19 1
    24   17   37 1
    25   18   38 1
    26   19   20 1
    27   19   21 1
    28   19   39 1
    29   20   40 1
    30   21   22 1
    31   21   41 1
    32   22   23 ar
    33   22   32 ar
    34   23   24 ar
    35   23   42 1
    36   24   25 ar
    37   24   46 1
    38   25   26 ar
    39   25   32 ar
    40   26   27 2
    41   26   28 ar
    42   28   29 ar
    43   28   43 1
    44   29   30 1
    45   29   31 ar
    46   30   44 1
    47   30   45 1
    48   31   32 ar
@<TRIPOS>SUBSTRUCTURE
     1 GTP         1 GROUP 0 A     ****
@<TRIPOS>MOLECULE
[[[5-(2-amino-6-oxo-7,8-dihydro-1~{H}-purin-8-ylium-9-yl)-3,4-dihydroxy-tetrahydrofuran-2-yl]methoxy-oxido-phosphoryl]oxy-hydroxy-phosphoryl] phosphate
   46    48     1     0     0
SMALL
USER_CHARGES

@<TRIPOS>ATOM
      1 PG         -0.5371    0.7163   -5.8644 P.3       1 GTP        -1.1921
      2 O1G        -1.9823    0.8650   -5.4002 O.co2     1 GTP         0.3195
      3 O2G        -0.2709    1.2566   -7.2657 O.co2     1 GTP         0.3195
      4 O3G         0.5021    1.1283   -4.8270 O.co2     1 GTP         0.3195
      5 O3B        -0.3297   -0.9112   -6.0239 O.3       1 GTP         0.4672
      6 PB         -0.4566   -2.0985   -4.9328 P.3       1 GTP        -0.9715
      7 O1B        -1.8071   -2.2245   -4.2918 O.2       1 GTP         0.2707
      8 O2B         0.0326   -3.4019   -5.7550 O.3       1 GTP         0.0326
      9 O3A         0.7679   -1.8099   -3.9195 O.3       1 GTP         0.4672
     10 PA          1.2481   -2.6084   -2.5799 P.3       1 GTP        -1.1062
     11 O1A         0.1775   -2.4546   -1.5216 O.co2     1 GTP         0.3195
     12 O2A         1.7529   -3.9747   -2.9899 O.co2     1 GTP         0.3195
     13 O5'         2.5245   -1.6648   -2.1878 O.3       1 GTP         0.1618
     14 C5'         2.2816   -0.2918   -1.9206 C.3       1 GTP         0.1504
     15 C4'         2.7248    0.0226   -0.4980 C.3       1 GTP         0.1111
     16 O4'         2.4697    1.4219   -0.2462 O.3       1 GTP        -0.1436
     17 C3'         1.9404   -0.7419    0.5596 C.3       1 GTP         0.1111
     18 O3'         2.7418   -0.8086    1.7389 O.3       1 GTP        -0.2728
     19 C2'         0.7477    0.1630    0.7858 C.3       1 GTP         0.1111
     20 O2'         0.1373   -0.0577    2.0407 O.3       1 GTP        -0.2728
     21 C1'         1.3733    1.5427    0.6747 C.3       1 GTP         0.2693
     22 N9          0.4520    2.5240    0.1767 N.pl3     1 GTP        -0.3222
     23 C8          0.5671    3.2221   -0.9473 C.ar      1 GTP         0.1640
     24 N7         -0.4560    4.0508   -1.1290 N.pl3     1 GTP        -0.3688
     25 C5         -1.2671    3.8585   -0.0441 C.ar      1 GTP         0.0648
     26 C6         -2.5318    4.5014    0.2817 C.ar      1 GTP         0.3597
     27 O6         -3.0527    5.3493   -0.4293 O.2       1 GTP        -0.2755
     28 N1         -3.0357    4.0149    1.4868 N.pl3     1 GTP        -0.1604
     29 C2         -2.4069    3.0373    2.2768 C.ar      1 GTP         0.4468
     30 N2         -3.0679    2.6964    3.4278 N.pl3     1 GTP        -0.5618
     31 N3         -1.2653    2.4872    1.9379 N.2       1 GTP        -0.4283
     32 C4         -0.7342    2.9334    0.7643 C.ar      1 GTP         0.2226
     33 HOB2        0.1277   -4.2543   -5.2790 H         1 GTP         0.2010
     34 H5'         2.8432    0.3119   -2.6398 H         1 GTP        -0.0393
     35 H5''        1.2128   -0.0927   -2.0428 H         1 GTP        -0.0393
     36 H4'         3.8044   -0.1397   -0.4040 H         1 GTP        -0.0393
     37 H3'         1.6764   -1.7639    0.2728 H         1 GTP        -0.0393
     38 HO3'        2.2232   -1.2979    2.3953 H         1 GTP         0.2010
     39 H2'        -0.0011    0.0027    0.0003 H         1 GTP        -0.0393
     40 HO2'       -0.1563   -0.9855    2.0596 H         1 GTP         0.2010
     41 H1'         1.7826    1.9024    1.6451 H         1 GTP        -0.0393
     42 H8          1.3888    3.1325   -1.6361 H         1 GTP         0.0000
     43 HN1        -3.9188    4.3932    1.8170 H         1 GTP         0.0865
     44 HN21       -2.6609    2.0087    4.0186 H         1 GTP         0.2048
     45 HN22       -3.9293    3.1496    3.6283 H         1 GTP         0.2048
     46 H46        -0.5938    4.6820   -1.9060 H         1 GTP         0.2048
@<TRIPOS>BOND
     1    1    2 2
     2    1    3 1
     3    1    4 1
     4    1    5 1
     5    5    6 1
     6    6    7 2
     7    6    8 1
     8    6    9 1
     9    8   33 1
    10    9   10 1
    11   10   11 2
    12   10   12 1
    13   10   13 1
    14   13   14 1
    15   14   15 1
    16   14   34 1
    17   14   35 1
    18   15   16 1
    19   15   17 1
    20   15   36 1
    21   16   21 1
    22   17   18 1
    23   17   19 1
    24   17   37 1
    25   18   38 1
    26   19   20 1
    27   19   21 1
    28   19   39 1
    29   20   40 1
    30   21   22 1
    31   21   41 1
    32   22   23 ar
    33   22   32 ar
    34   23   24 ar
    35   23   42 1
    36   24   25 ar
    37   24   46 1
    38   25   26 ar
    39   25   32 ar
    40   26   27 2
    41   26   28 ar
    42   28   29 ar
    43   28   43 1
    44   29   30 1
    45   29   31 ar
    46   30   44 1
    47   30   45 1
    48   31   32 ar
@<TRIPOS>SUBSTRUCTURE
     1 GTP         1 GROUP 0 A     ****
@<TRIPOS>MOLECULE
[[[5-(2-amino-6-oxo-7,8-dihydro-1~{H}-purin-8-ylium-9-yl)-3,4-dihydroxy-tetrahydrofuran-2-yl]methoxy-oxido-phosphoryl]oxy-hydroxy-phosphoryl] phosphate
   46    48     1     0     0
SMALL
USER_CHARGES

@<TRIPOS>ATOM
      1 PG         -0.0803   -8.7328    7.3178 P.3       1 GTP        -1.1921
      2 O1G        -1.4065   -8.5096    8.0373 O.co2     1 GTP         0.3195
      3 O2G         1.1479   -8.3393    8.1320 O.co2     1 GTP         0.3195
      4 O3G         0.0374  -10.0844    6.6212 O.co2     1 GTP         0.3195
      5 O3B        -0.1015   -7.6398    6.0839 O.3       1 GTP         0.4672
      6 PB         -1.1309   -7.4704    4.8478 P.3       1 GTP        -0.9715
      7 O1B        -1.2269   -8.6602    3.9392 O.2       1 GTP         0.2707
      8 O2B        -2.5125   -7.0571    5.5790 O.3       1 GTP         0.0326
      9 O3A        -0.6507   -6.0977    4.1446 O.3       1 GTP         0.4672
     10 PA         -0.5519   -4.5800    4.7360 P.3       1 GTP        -1.1062
     11 O1A        -1.9533   -4.0853    5.0208 O.co2     1 GTP         0.3195
     12 O2A         0.5211   -4.5486    5.8024 O.co2     1 GTP         0.3195
     13 O5'         0.0118   -3.8395    3.3916 O.3       1 GTP         0.1618
     14 C5'        -0.7840   -3.8935    2.2172 C.3       1 GTP         0.1504
     15 C4'        -0.0724   -3.1466    1.1027 C.3       1 GTP         0.1111
     16 O4'        -0.8674   -3.1929   -0.0945 O.3       1 GTP        -0.1436
     17 C3'         0.1338   -1.6715    1.4027 C.3       1 GTP         0.1111
     18 O3'         1.2893   -1.4445    2.1808 O.3       1 GTP        -0.2728
     19 C2'         0.2158   -1.0724    0.0128 C.3       1 GTP         0.1111
     20 O2'         1.5141   -1.2448   -0.5513 O.3       1 GTP        -0.2728
     21 C1'        -0.7897   -1.9176   -0.7583 C.3       1 GTP         0.2693
     22 N9         -2.1040   -1.3333   -0.7704 N.pl3     1 GTP        -0.3222
     23 C8         -3.0597   -1.5109    0.1345 C.ar      1 GTP         0.1640
     24 N7         -4.1618   -0.8291   -0.1607 N.pl3     1 GTP        -0.3688
     25 C5         -3.8764   -0.1805   -1.3310 C.ar      1 GTP         0.0648
     26 C6         -4.7187    0.7111   -2.1152 C.ar      1 GTP         0.3597
     27 O6         -5.8617    1.0043   -1.7939 O.2       1 GTP        -0.2755
     28 N1         -4.0405    1.1608   -3.2468 N.pl3     1 GTP        -0.1604
     29 C2         -2.7239    0.8013   -3.5822 C.ar      1 GTP         0.4468
     30 N2         -2.2399    1.3534   -4.7394 N.pl3     1 GTP        -0.5618
     31 N3         -2.0053   -0.0071   -2.8402 N.2       1 GTP        -0.4283
     32 C4         -2.6290   -0.4727   -1.7210 C.ar      1 GTP         0.2226
     33 HOB2       -3.2857   -6.8122    5.0274 H         1 GTP         0.2010
     34 H5'        -0.9348   -4.9415    1.9415 H         1 GTP        -0.0393
     35 H5''       -1.7548   -3.4350    2.4278 H         1 GTP        -0.0393
     36 H4'         0.8874   -3.6466    0.8805 H         1 GTP        -0.0393
     37 H3'        -0.7376   -1.2333    1.9867 H         1 GTP        -0.0393
     38 HO3'        1.1626   -1.9325    3.0084 H         1 GTP         0.2010
     39 H2'        -0.0384   -0.0310    0.0096 H         1 GTP        -0.0393
     40 HO2'        2.1463   -0.7958    0.0370 H         1 GTP         0.2010
     41 H1'        -0.4769   -2.1002   -1.8093 H         1 GTP        -0.0393
     42 H8         -2.9610   -2.1316    1.0079 H         1 GTP         0.0000
     43 HN1        -4.5320    1.7923   -3.8726 H         1 GTP         0.0865
     44 HN21       -1.3128    1.1277   -5.0171 H         1 GTP         0.2048
     45 HN22       -2.8342    1.9586   -5.2572 H         1 GTP         0.2048
     46 H46        -5.0195   -0.8034    0.3729 H         1 GTP         0.2048
@<TRIPOS>BOND
     1    1    2 2
     2    1    3 1
     3    1    4 1
     4    1    5 1
     5    5    6 1
     6    6    7 2
     7    6    8 1
     8    6    9 1
     9    8   33 1
    10    9   10 1
    11   10   11 2
    12   10   12 1
    13   10   13 1
    14   13   14 1
    15   14   15 1
    16   14   34 1
    17   14   35 1
    18   15   16 1
    19   15   17 1
    20   15   36 1
    21   16   21 1
    22   17   18 1
    23   17   19 1
    24   17   37 1
    25   18   38 1
    26   19   20 1
    27   19   21 1
    28   19   39 1
    29   20   40 1
    30   21   22 1
    31   21   41 1
    32   22   23 ar
    33   22   32 ar
    34   23   24 ar
    35   23   42 1
    36   24   25 ar
    37   24   46 1
    38   25   26 ar
    39   25   32 ar
    40   26   27 2
    41   26   28 ar
    42   28   29 ar
    43   28   43 1
    44   29   30 1
    45   29   31 ar
    46   30   44 1
    47   30   45 1
    48   31   32 ar
@<TRIPOS>SUBSTRUCTURE
     1 GTP         1 GROUP 0 A     ****
@<TRIPOS>MOLECULE
[[[5-(2-amino-6-oxo-7,8-dihydro-1~{H}-purin-8-ylium-9-yl)-3,4-dihydroxy-tetrahydrofuran-2-yl]methoxy-oxido-phosphoryl]oxy-hydroxy-phosphoryl] phosphate
   46    48     1     0     0
SMALL
USER_CHARGES

@<TRIPOS>ATOM
      1 PG          4.6877   -4.6197   -3.5952 P.3       1 GTP        -1.1921
      2 O1G         5.7496   -5.3781   -2.8056 O.co2     1 GTP         0.3195
      3 O2G         4.2727   -5.2971   -4.8973 O.co2     1 GTP         0.3195
      4 O3G         3.5208   -4.1131   -2.7539 O.co2     1 GTP         0.3195
      5 O3B         5.4563   -3.2487   -4.0922 O.3       1 GTP         0.4672
      6 PB          6.1498   -2.0640   -3.2366 P.3       1 GTP        -0.9715
      7 O1B         6.9230   -2.5226   -2.0356 O.2       1 GTP         0.2707
      8 O2B         7.0197   -1.2744   -4.3474 O.3       1 GTP         0.0326
      9 O3A         4.9253   -1.0561   -2.9297 O.3       1 GTP         0.4672
     10 PA          3.9458   -0.2356   -3.9447 P.3       1 GTP        -1.1062
     11 O1A         4.7730    0.7993   -4.6757 O.co2     1 GTP         0.3195
     12 O2A         3.0931   -1.2318   -4.6998 O.co2     1 GTP         0.3195
     13 O5'         3.0213    0.5153   -2.8245 O.3       1 GTP         0.1618
     14 C5'         2.2816   -0.2918   -1.9206 C.3       1 GTP         0.1504
     15 C4'         2.7248    0.0226   -0.4980 C.3       1 GTP         0.1111
     16 O4'         2.4697    1.4219   -0.2462 O.3       1 GTP        -0.1436
     17 C3'         1.9404   -0.7419    0.5596 C.3       1 GTP         0.1111
     18 O3'         2.7418   -0.8086    1.7389 O.3       1 GTP        -0.2728
     19 C2'         0.7477    0.1630    0.7858 C.3       1 GTP         0.1111
     20 O2'         0.1373   -0.0577    2.0407 O.3       1 GTP        -0.2728
     21 C1'         1.3733    1.5427    0.6747 C.3       1 GTP         0.2693
     22 N9          0.4520    2.5240    0.1767 N.pl3     1 GTP        -0.3222
     23 C8         -0.2009    2.4849   -0.9792 C.ar      1 GTP         0.1640
     24 N7         -0.9840    3.5454   -1.1481 N.pl3     1 GTP        -0.3688
     25 C5         -0.8090    4.3005   -0.0206 C.ar      1 GTP         0.0648
     26 C6         -1.4206    5.5724    0.3362 C.ar      1 GTP         0.3597
     27 O6         -2.2199    6.1544   -0.3836 O.2       1 GTP        -0.2755
     28 N1         -0.9680    6.0043    1.5817 N.pl3     1 GTP        -0.1604
     29 C2         -0.0474    5.3055    2.3814 C.ar      1 GTP         0.4468
     30 N2          0.2680    5.9024    3.5740 N.pl3     1 GTP        -0.5618
     31 N3          0.4755    4.1601    2.0138 N.2       1 GTP        -0.4283
     32 C4          0.0611    3.6981    0.8001 C.ar      1 GTP         0.2226
     33 HOB2        6.5714   -0.9486   -5.1567 H         1 GTP         0.2010
     34 H5'         1.2163   -0.0770   -2.0471 H         1 GTP        -0.0393
     35 H5''        2.4655   -1.3443   -2.1563 H         1 GTP        -0.0393
     36 H4'         3.8044   -0.1397   -0.4040 H         1 GTP        -0.0393
     37 H3'         1.6764   -1.7639    0.2728 H         1 GTP        -0.0393
     38 HO3'        3.5554   -1.2733    1.4914 H         1 GTP         0.2010
     39 H2'        -0.0011    0.0027    0.0003 H         1 GTP        -0.0393
     40 HO2'       -0.1563   -0.9855    2.0596 H         1 GTP         0.2010
     41 H1'         1.7826    1.9024    1.6451 H         1 GTP        -0.0393
     42 H8         -0.1126    1.6906   -1.6997 H         1 GTP         0.0000
     43 HN1        -1.3285    6.8855    1.9361 H         1 GTP         0.0865
     44 HN21        0.9153    5.4446    4.1732 H         1 GTP         0.2048
     45 HN22       -0.1624    6.7706    3.7948 H         1 GTP         0.2048
     46 H46        -1.5768    3.7405   -1.9429 H         1 GTP         0.2048
@<TRIPOS>BOND
     1    1    2 2
     2    1    3 1
     3    1    4 1
     4    1    5 1
     5    5    6 1
     6    6    7 2
     7    6    8 1
     8    6    9 1
     9    8   33 1
    10    9   10 1
    11   10   11 2
    12   10   12 1
    13   10   13 1
    14   13   14 1
    15   14   15 1
    16   14   34 1
    17   14   35 1
    18   15   16 1
    19   15   17 1
    20   15   36 1
    21   16   21 1
    22   17   18 1
    23   17   19 1
    24   17   37 1
    25   18   38 1
    26   19   20 1
    27   19   21 1
    28   19   39 1
    29   20   40 1
    30   21   22 1
    31   21   41 1
    32   22   23 ar
    33   22   32 ar
    34   23   24 ar
    35   23   42 1
    36   24   25 ar
    37   24   46 1
    38   25   26 ar
    39   25   32 ar
    40   26   27 2
    41   26   28 ar
    42   28   29 ar
    43   28   43 1
    44   29   30 1
    45   29   31 ar
    46   30   44 1
    47   30   45 1
    48   31   32 ar
@<TRIPOS>SUBSTRUCTURE
     1 GTP         1 GROUP 0 A     ****
@<TRIPOS>MOLECULE
[[[5-(2-amino-6-oxo-7,8-dihydro-1~{H}-purin-8-ylium-9-yl)-3,4-dihydroxy-tetrahydrofuran-2-yl]methoxy-oxido-phosphoryl]oxy-hydroxy-phosphoryl] phosphate
   46    48     1     0     0
SMALL
USER_CHARGES

@<TRIPOS>ATOM
      1 PG          2.8648   -8.1931    4.9119 P.3       1 GTP        -1.1921
      2 O1G         2.3193   -9.6099    4.7656 O.co2     1 GTP         0.3195
      3 O2G         3.3947   -7.8669    6.3044 O.co2     1 GTP         0.3195
      4 O3G         3.7799   -7.7512    3.7747 O.co2     1 GTP         0.3195
      5 O3B         1.5349   -7.2308    4.7611 O.3       1 GTP         0.4672
      6 PB          0.4913   -7.0650    3.5365 P.3       1 GTP        -0.9715
      7 O1B         1.1020   -6.6077    2.2448 O.2       1 GTP         0.2707
      8 O2B        -0.2310   -8.5103    3.4758 O.3       1 GTP         0.0326
      9 O3A        -0.6507   -6.0977    4.1446 O.3       1 GTP         0.4672
     10 PA         -0.5519   -4.5800    4.7360 P.3       1 GTP        -1.1062
     11 O1A        -1.9533   -4.0853    5.0208 O.co2     1 GTP         0.3195
     12 O2A         0.5211   -4.5486    5.8024 O.co2     1 GTP         0.3195
     13 O5'         0.0118   -3.8395    3.3916 O.3       1 GTP         0.1618
     14 C5'        -0.7840   -3.8935    2.2172 C.3       1 GTP         0.1504
     15 C4'        -0.0724   -3.1466    1.1027 C.3       1 GTP         0.1111
     16 O4'        -0.8674   -3.1929   -0.0945 O.3       1 GTP        -0.1436
     17 C3'         0.1338   -1.6715    1.4027 C.3       1 GTP         0.1111
     18 O3'         1.2893   -1.4445    2.1808 O.3       1 GTP        -0.2728
     19 C2'         0.2158   -1.0724    0.0128 C.3       1 GTP         0.1111
     20 O2'         1.5141   -1.2448   -0.5513 O.3       1 GTP        -0.2728
     21 C1'        -0.7897   -1.9176   -0.7583 C.3       1 GTP         0.2693
     22 N9         -2.1040   -1.3333   -0.7704 N.pl3     1 GTP        -0.3222
     23 C8         -3.0597   -1.5109    0.1345 C.ar      1 GTP         0.1640
     24 N7         -4.1618   -0.8291   -0.1607 N.pl3     1 GTP        -0.3688
     25 C5         -3.8764   -0.1805   -1.3310 C.ar      1 GTP         0.0648
     26 C6         -4.7187    0.7111   -2.1152 C.ar      1 GTP         0.3597
     27 O6         -5.8617    1.0043   -1.7939 O.2       1 GTP        -0.2755
     28 N1         -4.0405    1.1608   -3.2468 N.pl3     1 GTP        -0.1604
     29 C2         -2.7239    0.8013   -3.5822 C.ar      1 GTP         0.4468
     30 N2         -2.2399    1.3534   -4.7394 N.pl3     1 GTP        -0.5618
     31 N3         -2.0053   -0.0071   -2.8402 N.2       1 GTP        -0.4283
     32 C4         -2.6290   -0.4727   -1.7210 C.ar      1 GTP         0.2226
     33 HOB2        0.3017   -9.2963    3.2294 H         1 GTP         0.2010
     34 H5'        -0.9348   -4.9415    1.9415 H         1 GTP        -0.0393
     35 H5''       -1.7548   -3.4350    2.4278 H         1 GTP        -0.0393
     36 H4'         0.8874   -3.6466    0.8805 H         1 GTP        -0.0393
     37 H3'        -0.7376   -1.2333    1.9867 H         1 GTP        -0.0393
     38 HO3'        1.1626   -1.9325    3.0084 H         1 GTP         0.2010
     39 H2'        -0.0384   -0.0310    0.0096 H         1 GTP        -0.0393
     40 HO2'        2.1463   -0.7958    0.0370 H         1 GTP         0.2010
     41 H1'        -0.4769   -2.1002   -1.8093 H         1 GTP        -0.0393
     42 H8         -2.9610   -2.1316    1.0079 H         1 GTP         0.0000
     43 HN1        -4.5320    1.7923   -3.8726 H         1 GTP         0.0865
     44 HN21       -1.3128    1.1277   -5.0171 H         1 GTP         0.2048
     45 HN22       -2.8342    1.9586   -5.2572 H         1 GTP         0.2048
     46 H46        -5.0195   -0.8034    0.3729 H         1 GTP         0.2048
@<TRIPOS>BOND
     1    1    2 2
     2    1    3 1
     3    1    4 1
     4    1    5 1
     5    5    6 1
     6    6    7 2
     7    6    8 1
     8    6    9 1
     9    8   33 1
    10    9   10 1
    11   10   11 2
    12   10   12 1
    13   10   13 1
    14   13   14 1
    15   14   15 1
    16   14   34 1
    17   14   35 1
    18   15   16 1
    19   15   17 1
    20   15   36 1
    21   16   21 1
    22   17   18 1
    23   17   19 1
    24   17   37 1
    25   18   38 1
    26   19   20 1
    27   19   21 1
    28   19   39 1
    29   20   40 1
    30   21   22 1
    31   21   41 1
    32   22   23 ar
    33   22   32 ar
    34   23   24 ar
    35   23   42 1
    36   24   25 ar
    37   24   46 1
    38   25   26 ar
    39   25   32 ar
    40   26   27 2
    41   26   28 ar
    42   28   29 ar
    43   28   43 1
    44   29   30 1
    45   29   31 ar
    46   30   44 1
    47   30   45 1
    48   31   32 ar
@<TRIPOS>SUBSTRUCTURE
     1 GTP         1 GROUP 0 A     ****
@<TRIPOS>MOLECULE
[[[5-(2-amino-6-oxo-7,8-dihydro-1~{H}-purin-8-ylium-9-yl)-3,4-dihydroxy-tetrahydrofuran-2-yl]methoxy-oxido-phosphoryl]oxy-hydroxy-phosphoryl] phosphate
   46    48     1     0     0
SMALL
USER_CHARGES

@<TRIPOS>ATOM
      1 PG         -1.3135   -0.4750   -7.0841 P.3       1 GTP        -1.1921
      2 O1G        -0.5667    0.4996   -7.9890 O.co2     1 GTP         0.3195
      3 O2G        -2.4580    0.1539   -6.2960 O.co2     1 GTP         0.3195
      4 O3G        -1.6650   -1.8036   -7.7453 O.co2     1 GTP         0.3195
      5 O3B        -0.2114   -0.8761   -5.9258 O.3       1 GTP         0.4672
      6 PB          1.2391   -1.5802   -6.0544 P.3       1 GTP        -0.9715
      7 O1B         1.2234   -2.9496   -6.6668 O.2       1 GTP         0.2707
      8 O2B         2.1066   -0.4812   -6.8629 O.3       1 GTP         0.0326
      9 O3A         1.8308   -1.4985   -4.5535 O.3       1 GTP         0.4672
     10 PA          1.5375   -2.4279   -3.2447 P.3       1 GTP        -1.1062
     11 O1A         0.1009   -2.2157   -2.8193 O.co2     1 GTP         0.3195
     12 O2A         2.0783   -3.8159   -3.5100 O.co2     1 GTP         0.3195
     13 O5'         2.5245   -1.6648   -2.1878 O.3       1 GTP         0.1618
     14 C5'         2.2816   -0.2918   -1.9206 C.3       1 GTP         0.1504
     15 C4'         2.7248    0.0226   -0.4980 C.3       1 GTP         0.1111
     16 O4'         2.4697    1.4219   -0.2462 O.3       1 GTP        -0.1436
     17 C3'         1.9404   -0.7419    0.5596 C.3       1 GTP         0.1111
     18 O3'         2.7418   -0.8086    1.7389 O.3       1 GTP        -0.2728
     19 C2'         0.7477    0.1630    0.7858 C.3       1 GTP         0.1111
     20 O2'         0.1373   -0.0577    2.0407 O.3       1 GTP        -0.2728
     21 C1'         1.3733    1.5427    0.6747 C.3       1 GTP         0.2693
     22 N9          0.4520    2.5240    0.1767 N.pl3     1 GTP        -0.3222
     23 C8          0.5671    3.2221   -0.9473 C.ar      1 GTP         0.1640
     24 N7         -0.4560    4.0508   -1.1290 N.pl3     1 GTP        -0.3688
     25 C5         -1.2671    3.8585   -0.0441 C.ar      1 GTP         0.0648
     26 C6         -2.5318    4.5014    0.2817 C.ar      1 GTP         0.3597
     27 O6         -3.0527    5.3493   -0.4293 O.2       1 GTP        -0.2755
     28 N1         -3.0357    4.0149    1.4868 N.pl3     1 GTP        -0.1604
     29 C2         -2.4069    3.0373    2.2768 C.ar      1 GTP         0.4468
     30 N2         -3.0679    2.6964    3.4278 N.pl3     1 GTP        -0.5618
     31 N3         -1.2653    2.4872    1.9379 N.2       1 GTP        -0.4283
     32 C4         -0.7342    2.9334    0.7643 C.ar      1 GTP         0.2226
     33 HOB2        3.0653   -0.6395   -6.9971 H         1 GTP         0.2010
     34 H5'         2.8432    0.3119   -2.6398 H         1 GTP        -0.0393
     35 H5''        1.2128   -0.0927   -2.0428 H         1 GTP        -0.0393
     36 H4'         3.8044   -0.1397   -0.4040 H         1 GTP        -0.0393
     37 H3'         1.6764   -1.7639    0.2728 H         1 GTP        -0.0393
     38 HO3'        3.5554   -1.2733    1.4914 H         1 GTP         0.2010
     39 H2'        -0.0011    0.0027    0.0003 H         1 GTP        -0.0393
     40 HO2'        0.8082    0.1199    2.7232 H         1 GTP         0.2010
     41 H1'         1.7826    1.9024    1.6451 H         1 GTP        -0.0393
     42 H8          1.3888    3.1325   -1.6361 H         1 GTP         0.0000
     43 HN1        -3.9188    4.3932    1.8170 H         1 GTP         0.0865
     44 HN21       -2.6609    2.0087    4.0186 H         1 GTP         0.2048
     45 HN22       -3.9293    3.1496    3.6283 H         1 GTP         0.2048
     46 H46        -0.5938    4.6820   -1.9060 H         1 GTP         0.2048
@<TRIPOS>BOND
     1    1    2 2
     2    1    3 1
     3    1    4 1
     4    1    5 1
     5    5    6 1
     6    6    7 2
     7    6    8 1
     8    6    9 1
     9    8   33 1
    10    9   10 1
    11   10   11 2
    12   10   12 1
    13   10   13 1
    14   13   14 1
    15   14   15 1
    16   14   34 1
    17   14   35 1
    18   15   16 1
    19   15   17 1
    20   15   36 1
    21   16   21 1
    22   17   18 1
    23   17   19 1
    24   17   37 1
    25   18   38 1
    26   19   20 1
    27   19   21 1
    28   19   39 1
    29   20   40 1
    30   21   22 1
    31   21   41 1
    32   22   23 ar
    33   22   32 ar
    34   23   24 ar
    35   23   42 1
    36   24   25 ar
    37   24   46 1
    38   25   26 ar
    39   25   32 ar
    40   26   27 2
    41   26   28 ar
    42   28   29 ar
    43   28   43 1
    44   29   30 1
    45   29   31 ar
    46   30   44 1
    47   30   45 1
    48   31   32 ar
@<TRIPOS>SUBSTRUCTURE
     1 GTP         1 GROUP 0 A     ****
@<TRIPOS>MOLECULE
[[[5-(2-amino-6-oxo-7,8-dihydro-1~{H}-purin-8-ylium-9-yl)-3,4-dihydroxy-tetrahydrofuran-2-yl]methoxy-oxido-phosphoryl]oxy-hydroxy-phosphoryl] phosphate
   46    48     1     0     0
SMALL
USER_CHARGES

@<TRIPOS>ATOM
      1 PG         -1.1329  -10.2110    3.7134 P.3       1 GTP        -1.1921
      2 O1G        -0.0871  -10.6680    4.7252 O.co2     1 GTP         0.3195
      3 O2G        -0.8456  -10.6407    2.2785 O.co2     1 GTP         0.3195
      4 O3G        -2.5754  -10.4332    4.1563 O.co2     1 GTP         0.3195
      5 O3B        -0.9674   -8.5714    3.6742 O.3       1 GTP         0.4672
      6 PB         -1.1309   -7.4704    4.8478 P.3       1 GTP        -0.9715
      7 O1B        -2.4873   -7.4264    5.4870 O.2       1 GTP         0.2707
      8 O2B         0.0854   -7.8260    5.8521 O.3       1 GTP         0.0326
      9 O3A        -0.6507   -6.0977    4.1446 O.3       1 GTP         0.4672
     10 PA         -0.5519   -4.5800    4.7360 P.3       1 GTP        -1.1062
     11 O1A        -1.9533   -4.0853    5.0208 O.co2     1 GTP         0.3195
     12 O2A         0.5211   -4.5486    5.8024 O.co2     1 GTP         0.3195
     13 O5'         0.0118   -3.8395    3.3916 O.3       1 GTP         0.1618
     14 C5'        -0.7840   -3.8935    2.2172 C.3       1 GTP         0.1504
     15 C4'        -0.0724   -3.1466    1.1027 C.3       1 GTP         0.1111
     16 O4'        -0.8674   -3.1929   -0.0945 O.3       1 GTP        -0.1436
     17 C3'         0.1338   -1.6715    1.4027 C.3       1 GTP         0.1111
     18 O3'         1.2893   -1.4445    2.1808 O.3       1 GTP        -0.2728
     19 C2'         0.2158   -1.0724    0.0128 C.3       1 GTP         0.1111
     20 O2'         1.5141   -1.2448   -0.5513 O.3       1 GTP        -0.2728
     21 C1'        -0.7897   -1.9176   -0.7583 C.3       1 GTP         0.2693
     22 N9         -2.1040   -1.3333   -0.7704 N.pl3     1 GTP        -0.3222
     23 C8         -3.0597   -1.5109    0.1345 C.ar      1 GTP         0.1640
     24 N7         -4.1618   -0.8291   -0.1607 N.pl3     1 GTP        -0.3688
     25 C5         -3.8764   -0.1805   -1.3310 C.ar      1 GTP         0.0648
     26 C6         -4.7187    0.7111   -2.1152 C.ar      1 GTP         0.3597
     27 O6         -5.8617    1.0043   -1.7939 O.2       1 GTP        -0.2755
     28 N1         -4.0405    1.1608   -3.2468 N.pl3     1 GTP        -0.1604
     29 C2         -2.7239    0.8013   -3.5822 C.ar      1 GTP         0.4468
     30 N2         -2.2399    1.3534   -4.7394 N.pl3     1 GTP        -0.5618
     31 N3         -2.0053   -0.0071   -2.8402 N.2       1 GTP        -0.4283
     32 C4         -2.6290   -0.4727   -1.7210 C.ar      1 GTP         0.2226
     33 HOB2        0.0721   -8.6839    6.3273 H         1 GTP         0.2010
     34 H5'        -0.9348   -4.9415    1.9415 H         1 GTP        -0.0393
     35 H5''       -1.7548   -3.4350    2.4278 H         1 GTP        -0.0393
     36 H4'         0.8874   -3.6466    0.8805 H         1 GTP        -0.0393
     37 H3'        -0.7376   -1.2333    1.9867 H         1 GTP        -0.0393
     38 HO3'        1.3408   -0.4870    2.3219 H         1 GTP         0.2010
     39 H2'        -0.0384   -0.0310    0.0096 H         1 GTP        -0.0393
     40 HO2'        1.4998   -0.8412   -1.4369 H         1 GTP         0.2010
     41 H1'        -0.4769   -2.1002   -1.8093 H         1 GTP        -0.0393
     42 H8         -2.9610   -2.1316    1.0079 H         1 GTP         0.0000
     43 HN1        -4.5320    1.7923   -3.8726 H         1 GTP         0.0865
     44 HN21       -1.3128    1.1277   -5.0171 H         1 GTP         0.2048
     45 HN22       -2.8342    1.9586   -5.2572 H         1 GTP         0.2048
     46 H46        -5.0195   -0.8034    0.3729 H         1 GTP         0.2048
@<TRIPOS>BOND
     1    1    2 2
     2    1    3 1
     3    1    4 1
     4    1    5 1
     5    5    6 1
     6    6    7 2
     7    6    8 1
     8    6    9 1
     9    8   33 1
    10    9   10 1
    11   10   11 2
    12   10   12 1
    13   10   13 1
    14   13   14 1
    15   14   15 1
    16   14   34 1
    17   14   35 1
    18   15   16 1
    19   15   17 1
    20   15   36 1
    21   16   21 1
    22   17   18 1
    23   17   19 1
    24   17   37 1
    25   18   38 1
    26   19   20 1
    27   19   21 1
    28   19   39 1
    29   20   40 1
    30   21   22 1
    31   21   41 1
    32   22   23 ar
    33   22   32 ar
    34   23   24 ar
    35   23   42 1
    36   24   25 ar
    37   24   46 1
    38   25   26 ar
    39   25   32 ar
    40   26   27 2
    41   26   28 ar
    42   28   29 ar
    43   28   43 1
    44   29   30 1
    45   29   31 ar
    46   30   44 1
    47   30   45 1
    48   31   32 ar
@<TRIPOS>SUBSTRUCTURE
     1 GTP         1 GROUP 0 A     ****
@<TRIPOS>MOLECULE
[[[5-(2-amino-6-oxo-7,8-dihydro-1~{H}-purin-8-ylium-9-yl)-3,4-dihydroxy-tetrahydrofuran-2-yl]methoxy-oxido-phosphoryl]oxy-hydroxy-phosphoryl] phosphate
   46    48     1     0     0
SMALL
USER_CHARGES

@<TRIPOS>ATOM
      1 PG         -1.3375   -0.3712   -7.2497 P.3       1 GTP        -1.1921
      2 O1G        -0.7429    0.4167   -8.4125 O.co2     1 GTP         0.3195
      3 O2G        -2.4787    0.3400   -6.5300 O.co2     1 GTP         0.3195
      4 O3G        -1.6116   -1.8391   -7.5599 O.co2     1 GTP         0.3195
      5 O3B        -0.1291   -0.4109   -6.1291 O.3       1 GTP         0.4672
      6 PB          1.3669   -1.0195   -6.2182 P.3       1 GTP        -0.9715
      7 O1B         1.4334   -2.4914   -6.5004 O.2       1 GTP         0.2707
      8 O2B         2.0766   -0.0797   -7.3259 O.3       1 GTP         0.0326
      9 O3A         2.0474   -0.5479   -4.8311 O.3       1 GTP         0.4672
     10 PA          2.3065    0.9470   -4.2302 P.3       1 GTP        -1.1062
     11 O1A         3.3234    1.6453   -5.1065 O.co2     1 GTP         0.3195
     12 O2A         0.9669    1.5820   -3.9271 O.co2     1 GTP         0.3195
     13 O5'         3.0213    0.5153   -2.8245 O.3       1 GTP         0.1618
     14 C5'         2.2816   -0.2918   -1.9206 C.3       1 GTP         0.1504
     15 C4'         2.7248    0.0226   -0.4980 C.3       1 GTP         0.1111
     16 O4'         2.4697    1.4219   -0.2462 O.3       1 GTP        -0.1436
     17 C3'         1.9404   -0.7419    0.5596 C.3       1 GTP         0.1111
     18 O3'         2.7418   -0.8086    1.7389 O.3       1 GTP        -0.2728
     19 C2'         0.7477    0.1630    0.7858 C.3       1 GTP         0.1111
     20 O2'         0.1373   -0.0577    2.0407 O.3       1 GTP        -0.2728
     21 C1'         1.3733    1.5427    0.6747 C.3       1 GTP         0.2693
     22 N9          0.4520    2.5240    0.1767 N.pl3     1 GTP        -0.3222
     23 C8         -0.2009    2.4849   -0.9792 C.ar      1 GTP         0.1640
     24 N7         -0.9840    3.5454   -1.1481 N.pl3     1 GTP        -0.3688
     25 C5         -0.8090    4.3005   -0.0206 C.ar      1 GTP         0.0648
     26 C6         -1.4206    5.5724    0.3362 C.ar      1 GTP         0.3597
     27 O6         -2.2199    6.1544   -0.3836 O.2       1 GTP        -0.2755
     28 N1         -0.9680    6.0043    1.5817 N.pl3     1 GTP        -0.1604
     29 C2         -0.0474    5.3055    2.3814 C.ar      1 GTP         0.4468
     30 N2          0.2680    5.9024    3.5740 N.pl3     1 GTP        -0.5618
     31 N3          0.4755    4.1601    2.0138 N.2       1 GTP        -0.4283
     32 C4          0.0611    3.6981    0.8001 C.ar      1 GTP         0.2226
     33 HOB2        2.0672    0.8929   -7.1985 H         1 GTP         0.2010
     34 H5'         1.2163   -0.0770   -2.0471 H         1 GTP        -0.0393
     35 H5''        2.4655   -1.3443   -2.1563 H         1 GTP        -0.0393
     36 H4'         3.8044   -0.1397   -0.4040 H         1 GTP        -0.0393
     37 H3'         1.6764   -1.7639    0.2728 H         1 GTP        -0.0393
     38 HO3'        3.5554   -1.2733    1.4914 H         1 GTP         0.2010
     39 H2'        -0.0011    0.0027    0.0003 H         1 GTP        -0.0393
     40 HO2'       -0.1563   -0.9855    2.0596 H         1 GTP         0.2010
     41 H1'         1.7826    1.9024    1.6451 H         1 GTP        -0.0393
     42 H8         -0.1126    1.6906   -1.6997 H         1 GTP         0.0000
     43 HN1        -1.3285    6.8855    1.9361 H         1 GTP         0.0865
     44 HN21        0.9153    5.4446    4.1732 H         1 GTP         0.2048
     45 HN22       -0.1624    6.7706    3.7948 H         1 GTP         0.2048
     46 H46        -1.5768    3.7405   -1.9429 H         1 GTP         0.2048
@<TRIPOS>BOND
     1    1    2 2
     2    1    3 1
     3    1    4 1
     4    1    5 1
     5    5    6 1
     6    6    7 2
     7    6    8 1
     8    6    9 1
     9    8   33 1
    10    9   10 1
    11   10   11 2
    12   10   12 1
    13   10   13 1
    14   13   14 1
    15   14   15 1
    16   14   34 1
    17   14   35 1
    18   15   16 1
    19   15   17 1
    20   15   36 1
    21   16   21 1
    22   17   18 1
    23   17   19 1
    24   17   37 1
    25   18   38 1
    26   19   20 1
    27   19   21 1
    28   19   39 1
    29   20   40 1
    30   21   22 1
    31   21   41 1
    32   22   23 ar
    33   22   32 ar
    34   23   24 ar
    35   23   42 1
    36   24   25 ar
    37   24   46 1
    38   25   26 ar
    39   25   32 ar
    40   26   27 2
    41   26   28 ar
    42   28   29 ar
    43   28   43 1
    44   29   30 1
    45   29   31 ar
    46   30   44 1
    47   30   45 1
    48   31   32 ar
@<TRIPOS>SUBSTRUCTURE
     1 GTP         1 GROUP 0 A     ****
@<TRIPOS>MOLECULE
[[[5-(2-amino-6-oxo-7,8-dihydro-1~{H}-purin-8-ylium-9-yl)-3,4-dihydroxy-tetrahydrofuran-2-yl]methoxy-oxido-phosphoryl]oxy-hydroxy-phosphoryl] phosphate
   46    48     1     0     0
SMALL
USER_CHARGES

@<TRIPOS>ATOM
      1 PG          2.2180    0.8357   -7.0244 P.3       1 GTP        -1.1921
      2 O1G         0.9591    1.1616   -7.8214 O.co2     1 GTP         0.3195
      3 O2G         3.5146    0.9833   -7.8139 O.co2     1 GTP         0.3195
      4 O3G         2.2591    1.4566   -5.6320 O.co2     1 GTP         0.3195
      5 O3B         2.1101   -0.7851   -6.7440 O.3       1 GTP         0.4672
      6 PB          0.9846   -1.6434   -5.9612 P.3       1 GTP        -0.9715
      7 O1B        -0.4283   -1.2022   -6.2054 O.2       1 GTP         0.2707
      8 O2B         1.3113   -3.1632   -6.4060 O.3       1 GTP         0.0326
      9 O3A         1.4724   -1.5874   -4.4222 O.3       1 GTP         0.4672
     10 PA          2.8575   -2.1002   -3.7283 P.3       1 GTP        -1.1062
     11 O1A         2.9055   -3.6102   -3.8147 O.co2     1 GTP         0.3195
     12 O2A         3.9974   -1.2500   -4.2452 O.co2     1 GTP         0.3195
     13 O5'         2.5245   -1.6648   -2.1878 O.3       1 GTP         0.1618
     14 C5'         2.2816   -0.2918   -1.9206 C.3       1 GTP         0.1504
     15 C4'         2.7248    0.0226   -0.4980 C.3       1 GTP         0.1111
     16 O4'         2.4697    1.4219   -0.2462 O.3       1 GTP        -0.1436
     17 C3'         1.9404   -0.7419    0.5596 C.3       1 GTP         0.1111
     18 O3'         2.7418   -0.8086    1.7389 O.3       1 GTP        -0.2728
     19 C2'         0.7477    0.1630    0.7858 C.3       1 GTP         0.1111
     20 O2'         0.1373   -0.0577    2.0407 O.3       1 GTP        -0.2728
     21 C1'         1.3733    1.5427    0.6747 C.3       1 GTP         0.2693
     22 N9          0.4520    2.5240    0.1767 N.pl3     1 GTP        -0.3222
     23 C8         -0.2009    2.4849   -0.9792 C.ar      1 GTP         0.1640
     24 N7         -0.9840    3.5454   -1.1481 N.pl3     1 GTP        -0.3688
     25 C5         -0.8090    4.3005   -0.0206 C.ar      1 GTP         0.0648
     26 C6         -1.4206    5.5724    0.3362 C.ar      1 GTP         0.3597
     27 O6         -2.2199    6.1544   -0.3836 O.2       1 GTP        -0.2755
     28 N1         -0.9680    6.0043    1.5817 N.pl3     1 GTP        -0.1604
     29 C2         -0.0474    5.3055    2.3814 C.ar      1 GTP         0.4468
     30 N2          0.2680    5.9024    3.5740 N.pl3     1 GTP        -0.5618
     31 N3          0.4755    4.1601    2.0138 N.2       1 GTP        -0.4283
     32 C4          0.0611    3.6981    0.8001 C.ar      1 GTP         0.2226
     33 HOB2        2.2185   -3.5115   -6.2721 H         1 GTP         0.2010
     34 H5'         2.8432    0.3119   -2.6398 H         1 GTP        -0.0393
     35 H5''        1.2128   -0.0927   -2.0428 H         1 GTP        -0.0393
     36 H4'         3.8044   -0.1397   -0.4040 H         1 GTP        -0.0393
     37 H3'         1.6764   -1.7639    0.2728 H         1 GTP        -0.0393
     38 HO3'        3.5554   -1.2733    1.4914 H         1 GTP         0.2010
     39 H2'        -0.0011    0.0027    0.0003 H         1 GTP        -0.0393
     40 HO2'       -0.1563   -0.9855    2.0596 H         1 GTP         0.2010
     41 H1'         1.7826    1.9024    1.6451 H         1 GTP        -0.0393
     42 H8         -0.1126    1.6906   -1.6997 H         1 GTP         0.0000
     43 HN1        -1.3285    6.8855    1.9361 H         1 GTP         0.0865
     44 HN21        0.9153    5.4446    4.1732 H         1 GTP         0.2048
     45 HN22       -0.1624    6.7706    3.7948 H         1 GTP         0.2048
     46 H46        -1.5768    3.7405   -1.9429 H         1 GTP         0.2048
@<TRIPOS>BOND
     1    1    2 2
     2    1    3 1
     3    1    4 1
     4    1    5 1
     5    5    6 1
     6    6    7 2
     7    6    8 1
     8    6    9 1
     9    8   33 1
    10    9   10 1
    11   10   11 2
    12   10   12 1
    13   10   13 1
    14   13   14 1
    15   14   15 1
    16   14   34 1
    17   14   35 1
    18   15   16 1
    19   15   17 1
    20   15   36 1
    21   16   21 1
    22   17   18 1
    23   17   19 1
    24   17   37 1
    25   18   38 1
    26   19   20 1
    27   19   21 1
    28   19   39 1
    29   20   40 1
    30   21   22 1
    31   21   41 1
    32   22   23 ar
    33   22   32 ar
    34   23   24 ar
    35   23   42 1
    36   24   25 ar
    37   24   46 1
    38   25   26 ar
    39   25   32 ar
    40   26   27 2
    41   26   28 ar
    42   28   29 ar
    43   28   43 1
    44   29   30 1
    45   29   31 ar
    46   30   44 1
    47   30   45 1
    48   31   32 ar
@<TRIPOS>SUBSTRUCTURE
     1 GTP         1 GROUP 0 A     ****
@<TRIPOS>MOLECULE
[[[5-(2-amino-6-oxo-7,8-dihydro-1~{H}-purin-8-ylium-9-yl)-3,4-dihydroxy-tetrahydrofuran-2-yl]methoxy-oxido-phosphoryl]oxy-hydroxy-phosphoryl] phosphate
   46    48     1     0     0
SMALL
USER_CHARGES

@<TRIPOS>ATOM
      1 PG          2.8766    0.2938   -7.9394 P.3       1 GTP        -1.1921
      2 O1G         3.0918   -0.9764   -8.7557 O.co2     1 GTP         0.3195
      3 O2G         3.7932    1.4498   -8.3265 O.co2     1 GTP         0.3195
      4 O3G         1.4137    0.6873   -7.7625 O.co2     1 GTP         0.3195
      5 O3B         3.3749   -0.1125   -6.4214 O.3       1 GTP         0.4672
      6 PB          2.8400   -1.2567   -5.4110 P.3       1 GTP        -0.9715
      7 O1B         1.3973   -1.1288   -5.0201 O.2       1 GTP         0.2707
      8 O2B         3.2196   -2.6274   -6.1800 O.3       1 GTP         0.0326
      9 O3A         3.8967   -1.2037   -4.1903 O.3       1 GTP         0.4672
     10 PA          3.9759   -2.0799   -2.8160 P.3       1 GTP        -1.1062
     11 O1A         3.9532   -3.5479   -3.1825 O.co2     1 GTP         0.3195
     12 O2A         5.0721   -1.5078   -1.9438 O.co2     1 GTP         0.3195
     13 O5'         2.5245   -1.6648   -2.1878 O.3       1 GTP         0.1618
     14 C5'         2.2816   -0.2918   -1.9206 C.3       1 GTP         0.1504
     15 C4'         2.7248    0.0226   -0.4980 C.3       1 GTP         0.1111
     16 O4'         2.4697    1.4219   -0.2462 O.3       1 GTP        -0.1436
     17 C3'         1.9404   -0.7419    0.5596 C.3       1 GTP         0.1111
     18 O3'         2.7418   -0.8086    1.7389 O.3       1 GTP        -0.2728
     19 C2'         0.7477    0.1630    0.7858 C.3       1 GTP         0.1111
     20 O2'         0.1373   -0.0577    2.0407 O.3       1 GTP        -0.2728
     21 C1'         1.3733    1.5427    0.6747 C.3       1 GTP         0.2693
     22 N9          0.4520    2.5240    0.1767 N.pl3     1 GTP        -0.3222
     23 C8          0.2203    2.8205   -1.0970 C.ar      1 GTP         0.1640
     24 N7         -0.6947    3.7752   -1.2304 N.pl3     1 GTP        -0.3688
     25 C5         -1.0607    4.0987    0.0476 C.ar      1 GTP         0.0648
     26 C6         -2.0310    5.0839    0.5029 C.ar      1 GTP         0.3597
     27 O6         -2.6779    5.7867   -0.2609 O.2       1 GTP        -0.2755
     28 N1         -2.1030    5.0975    1.8948 N.pl3     1 GTP        -0.1604
     29 C2         -1.3422    4.2721    2.7403 C.ar      1 GTP         0.4468
     30 N2         -1.5624    4.4419    4.0823 N.pl3     1 GTP        -0.5618
     31 N3         -0.4796    3.3981    2.2792 N.2       1 GTP        -0.4283
     32 C4         -0.3754    3.3496    0.9208 C.ar      1 GTP         0.2226
     33 HOB2        2.7743   -2.8332   -7.0294 H         1 GTP         0.2010
     34 H5'         2.8432    0.3119   -2.6398 H         1 GTP        -0.0393
     35 H5''        1.2128   -0.0927   -2.0428 H         1 GTP        -0.0393
     36 H4'         3.8044   -0.1397   -0.4040 H         1 GTP        -0.0393
     37 H3'         1.6764   -1.7639    0.2728 H         1 GTP        -0.0393
     38 HO3'        3.5554   -1.2733    1.4914 H         1 GTP         0.2010
     39 H2'        -0.0011    0.0027    0.0003 H         1 GTP        -0.0393
     40 HO2'       -0.6141    0.5574    2.1082 H         1 GTP         0.2010
     41 H1'         1.7826    1.9024    1.6451 H         1 GTP        -0.0393
     42 H8          0.7110    2.3472   -1.9295 H         1 GTP         0.0000
     43 HN1        -2.7504    5.7495    2.3282 H         1 GTP         0.0865
     44 HN21       -1.0467    3.8796    4.7190 H         1 GTP         0.2048
     45 HN22       -2.2294    5.1209    4.3680 H         1 GTP         0.2048
     46 H46        -1.0382    4.1687   -2.0954 H         1 GTP         0.2048
@<TRIPOS>BOND
     1    1    2 2
     2    1    3 1
     3    1    4 1
     4    1    5 1
     5    5    6 1
     6    6    7 2
     7    6    8 1
     8    6    9 1
     9    8   33 1
    10    9   10 1
    11   10   11 2
    12   10   12 1
    13   10   13 1
    14   13   14 1
    15   14   15 1
    16   14   34 1
    17   14   35 1
    18   15   16 1
    19   15   17 1
    20   15   36 1
    21   16   21 1
    22   17   18 1
    23   17   19 1
    24   17   37 1
    25   18   38 1
    26   19   20 1
    27   19   21 1
    28   19   39 1
    29   20   40 1
    30   21   22 1
    31   21   41 1
    32   22   23 ar
    33   22   32 ar
    34   23   24 ar
    35   23   42 1
    36   24   25 ar
    37   24   46 1
    38   25   26 ar
    39   25   32 ar
    40   26   27 2
    41   26   28 ar
    42   28   29 ar
    43   28   43 1
    44   29   30 1
    45   29   31 ar
    46   30   44 1
    47   30   45 1
    48   31   32 ar
@<TRIPOS>SUBSTRUCTURE
     1 GTP         1 GROUP 0 A     ****
@<TRIPOS>MOLECULE
[[[5-(2-amino-6-oxo-7,8-dihydro-1~{H}-purin-8-ylium-9-yl)-3,4-dihydroxy-tetrahydrofuran-2-yl]methoxy-oxido-phosphoryl]oxy-hydroxy-phosphoryl] phosphate
   46    48     1     0     0
SMALL
USER_CHARGES

@<TRIPOS>ATOM
      1 PG         -3.5350   -1.8559   -2.7220 P.3       1 GTP        -1.1921
      2 O1G        -3.8427   -3.3273   -2.9799 O.co2     1 GTP         0.3195
      3 O2G        -4.2790   -0.8905   -3.6391 O.co2     1 GTP         0.3195
      4 O3G        -3.5517   -1.4587   -1.2496 O.co2     1 GTP         0.3195
      5 O3B        -1.9576   -1.6885   -3.1706 O.3       1 GTP         0.4672
      6 PB         -0.6240   -2.4141   -2.6128 P.3       1 GTP        -0.9715
      7 O1B        -0.3459   -2.1893   -1.1559 O.2       1 GTP         0.2707
      8 O2B        -0.8470   -3.9590   -3.0344 O.3       1 GTP         0.0326
      9 O3A         0.5295   -1.9094   -3.6249 O.3       1 GTP         0.4672
     10 PA          2.1265   -2.2419   -3.6650 P.3       1 GTP        -1.1062
     11 O1A         2.3025   -3.7448   -3.6713 O.co2     1 GTP         0.3195
     12 O2A         2.7717   -1.3738   -4.7233 O.co2     1 GTP         0.3195
     13 O5'         2.5245   -1.6648   -2.1878 O.3       1 GTP         0.1618
     14 C5'         2.2816   -0.2918   -1.9206 C.3       1 GTP         0.1504
     15 C4'         2.7248    0.0226   -0.4980 C.3       1 GTP         0.1111
     16 O4'         2.4697    1.4219   -0.2462 O.3       1 GTP        -0.1436
     17 C3'         1.9404   -0.7419    0.5596 C.3       1 GTP         0.1111
     18 O3'         2.7418   -0.8086    1.7389 O.3       1 GTP        -0.2728
     19 C2'         0.7477    0.1630    0.7858 C.3       1 GTP         0.1111
     20 O2'         0.1373   -0.0577    2.0407 O.3       1 GTP        -0.2728
     21 C1'         1.3733    1.5427    0.6747 C.3       1 GTP         0.2693
     22 N9          0.4520    2.5240    0.1767 N.pl3     1 GTP        -0.3222
     23 C8          0.5671    3.2221   -0.9473 C.ar      1 GTP         0.1640
     24 N7         -0.4560    4.0508   -1.1290 N.pl3     1 GTP        -0.3688
     25 C5         -1.2671    3.8585   -0.0441 C.ar      1 GTP         0.0648
     26 C6         -2.5318    4.5014    0.2817 C.ar      1 GTP         0.3597
     27 O6         -3.0527    5.3493   -0.4293 O.2       1 GTP        -0.2755
     28 N1         -3.0357    4.0149    1.4868 N.pl3     1 GTP        -0.1604
     29 C2         -2.4069    3.0373    2.2768 C.ar      1 GTP         0.4468
     30 N2         -3.0679    2.6964    3.4278 N.pl3     1 GTP        -0.5618
     31 N3         -1.2653    2.4872    1.9379 N.2       1 GTP        -0.4283
     32 C4         -0.7342    2.9334    0.7643 C.ar      1 GTP         0.2226
     33 HOB2       -1.5814   -4.4616   -2.6217 H         1 GTP         0.2010
     34 H5'         2.8432    0.3119   -2.6398 H         1 GTP        -0.0393
     35 H5''        1.2128   -0.0927   -2.0428 H         1 GTP        -0.0393
     36 H4'         3.8044   -0.1397   -0.4040 H         1 GTP        -0.0393
     37 H3'         1.6764   -1.7639    0.2728 H         1 GTP        -0.0393
     38 HO3'        2.2232   -1.2979    2.3953 H         1 GTP         0.2010
     39 H2'        -0.0011    0.0027    0.0003 H         1 GTP        -0.0393
     40 HO2'       -0.1563   -0.9855    2.0596 H         1 GTP         0.2010
     41 H1'         1.7826    1.9024    1.6451 H         1 GTP        -0.0393
     42 H8          1.3888    3.1325   -1.6361 H         1 GTP         0.0000
     43 HN1        -3.9188    4.3932    1.8170 H         1 GTP         0.0865
     44 HN21       -2.6609    2.0087    4.0186 H         1 GTP         0.2048
     45 HN22       -3.9293    3.1496    3.6283 H         1 GTP         0.2048
     46 H46        -0.5938    4.6820   -1.9060 H         1 GTP         0.2048
@<TRIPOS>BOND
     1    1    2 2
     2    1    3 1
     3    1    4 1
     4    1    5 1
     5    5    6 1
     6    6    7 2
     7    6    8 1
     8    6    9 1
     9    8   33 1
    10    9   10 1
    11   10   11 2
    12   10   12 1
    13   10   13 1
    14   13   14 1
    15   14   15 1
    16   14   34 1
    17   14   35 1
    18   15   16 1
    19   15   17 1
    20   15   36 1
    21   16   21 1
    22   17   18 1
    23   17   19 1
    24   17   37 1
    25   18   38 1
    26   19   20 1
    27   19   21 1
    28   19   39 1
    29   20   40 1
    30   21   22 1
    31   21   41 1
    32   22   23 ar
    33   22   32 ar
    34   23   24 ar
    35   23   42 1
    36   24   25 ar
    37   24   46 1
    38   25   26 ar
    39   25   32 ar
    40   26   27 2
    41   26   28 ar
    42   28   29 ar
    43   28   43 1
    44   29   30 1
    45   29   31 ar
    46   30   44 1
    47   30   45 1
    48   31   32 ar
@<TRIPOS>SUBSTRUCTURE
     1 GTP         1 GROUP 0 A     ****
@<TRIPOS>MOLECULE
[[[5-(2-amino-6-oxo-7,8-dihydro-1~{H}-purin-8-ylium-9-yl)-3,4-dihydroxy-tetrahydrofuran-2-yl]methoxy-oxido-phosphoryl]oxy-hydroxy-phosphoryl] phosphate
   46    48     1     0     0
SMALL
USER_CHARGES

@<TRIPOS>ATOM
      1 PG          5.7640   -4.0657   -6.7746 P.3       1 GTP        -1.1921
      2 O1G         6.7146   -4.8181   -5.8491 O.co2     1 GTP         0.3195
      3 O2G         6.4510   -3.0666   -7.6999 O.co2     1 GTP         0.3195
      4 O3G         4.7285   -4.9478   -7.4644 O.co2     1 GTP         0.3195
      5 O3B         4.8781   -3.1167   -5.7587 O.3       1 GTP         0.4672
      6 PB          3.9055   -3.5156   -4.5293 P.3       1 GTP        -0.9715
      7 O1B         2.7437   -4.3886   -4.9017 O.2       1 GTP         0.2707
      8 O2B         4.9255   -4.1597   -3.4528 O.3       1 GTP         0.0326
      9 O3A         3.5200   -2.0888   -3.8773 O.3       1 GTP         0.4672
     10 PA          4.4649   -0.9309   -3.2223 P.3       1 GTP        -1.1062
     11 O1A         5.0842   -1.4788   -1.9550 O.co2     1 GTP         0.3195
     12 O2A         5.3216   -0.3334   -4.3172 O.co2     1 GTP         0.3195
     13 O5'         3.2903    0.1346   -2.8241 O.3       1 GTP         0.1618
     14 C5'         2.2816   -0.2918   -1.9206 C.3       1 GTP         0.1504
     15 C4'         2.7248    0.0226   -0.4980 C.3       1 GTP         0.1111
     16 O4'         2.4697    1.4219   -0.2462 O.3       1 GTP        -0.1436
     17 C3'         1.9404   -0.7419    0.5596 C.3       1 GTP         0.1111
     18 O3'         2.7418   -0.8086    1.7389 O.3       1 GTP        -0.2728
     19 C2'         0.7477    0.1630    0.7858 C.3       1 GTP         0.1111
     20 O2'         0.1373   -0.0577    2.0407 O.3       1 GTP        -0.2728
     21 C1'         1.3733    1.5427    0.6747 C.3       1 GTP         0.2693
     22 N9          0.4520    2.5240    0.1767 N.pl3     1 GTP        -0.3222
     23 C8          0.2203    2.8205   -1.0970 C.ar      1 GTP         0.1640
     24 N7         -0.6947    3.7752   -1.2304 N.pl3     1 GTP        -0.3688
     25 C5         -1.0607    4.0987    0.0476 C.ar      1 GTP         0.0648
     26 C6         -2.0310    5.0839    0.5029 C.ar      1 GTP         0.3597
     27 O6         -2.6779    5.7867   -0.2609 O.2       1 GTP        -0.2755
     28 N1         -2.1030    5.0975    1.8948 N.pl3     1 GTP        -0.1604
     29 C2         -1.3422    4.2721    2.7403 C.ar      1 GTP         0.4468
     30 N2         -1.5624    4.4419    4.0823 N.pl3     1 GTP        -0.5618
     31 N3         -0.4796    3.3981    2.2792 N.2       1 GTP        -0.4283
     32 C4         -0.3754    3.3496    0.9208 C.ar      1 GTP         0.2226
     33 HOB2        4.5847   -4.4091   -2.5674 H         1 GTP         0.2010
     34 H5'         1.3514    0.2330   -2.1577 H         1 GTP        -0.0393
     35 H5''        2.1280   -1.3678   -2.0460 H         1 GTP        -0.0393
     36 H4'         3.8044   -0.1397   -0.4040 H         1 GTP        -0.0393
     37 H3'         1.6764   -1.7639    0.2728 H         1 GTP        -0.0393
     38 HO3'        2.2232   -1.2979    2.3953 H         1 GTP         0.2010
     39 H2'        -0.0011    0.0027    0.0003 H         1 GTP        -0.0393
     40 HO2'       -0.1563   -0.9855    2.0596 H         1 GTP         0.2010
     41 H1'         1.7826    1.9024    1.6451 H         1 GTP        -0.0393
     42 H8          0.7110    2.3472   -1.9295 H         1 GTP         0.0000
     43 HN1        -2.7504    5.7495    2.3282 H         1 GTP         0.0865
     44 HN21       -1.0467    3.8796    4.7190 H         1 GTP         0.2048
     45 HN22       -2.2294    5.1209    4.3680 H         1 GTP         0.2048
     46 H46        -1.0382    4.1687   -2.0954 H         1 GTP         0.2048
@<TRIPOS>BOND
     1    1    2 2
     2    1    3 1
     3    1    4 1
     4    1    5 1
     5    5    6 1
     6    6    7 2
     7    6    8 1
     8    6    9 1
     9    8   33 1
    10    9   10 1
    11   10   11 2
    12   10   12 1
    13   10   13 1
    14   13   14 1
    15   14   15 1
    16   14   34 1
    17   14   35 1
    18   15   16 1
    19   15   17 1
    20   15   36 1
    21   16   21 1
    22   17   18 1
    23   17   19 1
    24   17   37 1
    25   18   38 1
    26   19   20 1
    27   19   21 1
    28   19   39 1
    29   20   40 1
    30   21   22 1
    31   21   41 1
    32   22   23 ar
    33   22   32 ar
    34   23   24 ar
    35   23   42 1
    36   24   25 ar
    37   24   46 1
    38   25   26 ar
    39   25   32 ar
    40   26   27 2
    41   26   28 ar
    42   28   29 ar
    43   28   43 1
    44   29   30 1
    45   29   31 ar
    46   30   44 1
    47   30   45 1
    48   31   32 ar
@<TRIPOS>SUBSTRUCTURE
     1 GTP         1 GROUP 0 A     ****
@<TRIPOS>MOLECULE
[[[5-(2-amino-6-oxo-7,8-dihydro-1~{H}-purin-8-ylium-9-yl)-3,4-dihydroxy-tetrahydrofuran-2-yl]methoxy-oxido-phosphoryl]oxy-hydroxy-phosphoryl] phosphate
   46    48     1     0     0
SMALL
USER_CHARGES

@<TRIPOS>ATOM
      1 PG          5.5254   -0.3958   -7.5671 P.3       1 GTP        -1.1921
      2 O1G         6.7724    0.3972   -7.1897 O.co2     1 GTP         0.3195
      3 O2G         4.4162    0.4425   -8.1941 O.co2     1 GTP         0.3195
      4 O3G         5.8095   -1.7044   -8.2971 O.co2     1 GTP         0.3195
      5 O3B         4.8928   -0.8666   -6.1195 O.3       1 GTP         0.4672
      6 PB          5.5266   -1.7764   -4.9419 P.3       1 GTP        -0.9715
      7 O1B         5.9018   -3.1694   -5.3535 O.2       1 GTP         0.2707
      8 O2B         6.7526   -0.8708   -4.4025 O.3       1 GTP         0.0326
      9 O3A         4.4324   -1.6741   -3.7580 O.3       1 GTP         0.4672
     10 PA          2.8575   -2.1002   -3.7283 P.3       1 GTP        -1.1062
     11 O1A         2.0984   -1.1933   -4.6722 O.co2     1 GTP         0.3195
     12 O2A         2.7647   -3.6059   -3.8457 O.co2     1 GTP         0.3195
     13 O5'         2.5245   -1.6648   -2.1878 O.3       1 GTP         0.1618
     14 C5'         2.2816   -0.2918   -1.9206 C.3       1 GTP         0.1504
     15 C4'         2.7248    0.0226   -0.4980 C.3       1 GTP         0.1111
     16 O4'         2.4697    1.4219   -0.2462 O.3       1 GTP        -0.1436
     17 C3'         1.9404   -0.7419    0.5596 C.3       1 GTP         0.1111
     18 O3'         2.7418   -0.8086    1.7389 O.3       1 GTP        -0.2728
     19 C2'         0.7477    0.1630    0.7858 C.3       1 GTP         0.1111
     20 O2'         0.1373   -0.0577    2.0407 O.3       1 GTP        -0.2728
     21 C1'         1.3733    1.5427    0.6747 C.3       1 GTP         0.2693
     22 N9          0.4520    2.5240    0.1767 N.pl3     1 GTP        -0.3222
     23 C8          0.5671    3.2221   -0.9473 C.ar      1 GTP         0.1640
     24 N7         -0.4560    4.0508   -1.1290 N.pl3     1 GTP        -0.3688
     25 C5         -1.2671    3.8585   -0.0441 C.ar      1 GTP         0.0648
     26 C6         -2.5318    4.5014    0.2817 C.ar      1 GTP         0.3597
     27 O6         -3.0527    5.3493   -0.4293 O.2       1 GTP        -0.2755
     28 N1         -3.0357    4.0149    1.4868 N.pl3     1 GTP        -0.1604
     29 C2         -2.4069    3.0373    2.2768 C.ar      1 GTP         0.4468
     30 N2         -3.0679    2.6964    3.4278 N.pl3     1 GTP        -0.5618
     31 N3         -1.2653    2.4872    1.9379 N.2       1 GTP        -0.4283
     32 C4         -0.7342    2.9334    0.7643 C.ar      1 GTP         0.2226
     33 HOB2        7.5101   -0.6941   -5.0002 H         1 GTP         0.2010
     34 H5'         2.8432    0.3119   -2.6398 H         1 GTP        -0.0393
     35 H5''        1.2128   -0.0927   -2.0428 H         1 GTP        -0.0393
     36 H4'         3.8044   -0.1397   -0.4040 H         1 GTP        -0.0393
     37 H3'         1.6764   -1.7639    0.2728 H         1 GTP        -0.0393
     38 HO3'        3.5554   -1.2733    1.4914 H         1 GTP         0.2010
     39 H2'        -0.0011    0.0027    0.0003 H         1 GTP        -0.0393
     40 HO2'       -0.1563   -0.9855    2.0596 H         1 GTP         0.2010
     41 H1'         1.7826    1.9024    1.6451 H         1 GTP        -0.0393
     42 H8          1.3888    3.1325   -1.6361 H         1 GTP         0.0000
     43 HN1        -3.9188    4.3932    1.8170 H         1 GTP         0.0865
     44 HN21       -2.6609    2.0087    4.0186 H         1 GTP         0.2048
     45 HN22       -3.9293    3.1496    3.6283 H         1 GTP         0.2048
     46 H46        -0.5938    4.6820   -1.9060 H         1 GTP         0.2048
@<TRIPOS>BOND
     1    1    2 2
     2    1    3 1
     3    1    4 1
     4    1    5 1
     5    5    6 1
     6    6    7 2
     7    6    8 1
     8    6    9 1
     9    8   33 1
    10    9   10 1
    11   10   11 2
    12   10   12 1
    13   10   13 1
    14   13   14 1
    15   14   15 1
    16   14   34 1
    17   14   35 1
    18   15   16 1
    19   15   17 1
    20   15   36 1
    21   16   21 1
    22   17   18 1
    23   17   19 1
    24   17   37 1
    25   18   38 1
    26   19   20 1
    27   19   21 1
    28   19   39 1
    29   20   40 1
    30   21   22 1
    31   21   41 1
    32   22   23 ar
    33   22   32 ar
    34   23   24 ar
    35   23   42 1
    36   24   25 ar
    37   24   46 1
    38   25   26 ar
    39   25   32 ar
    40   26   27 2
    41   26   28 ar
    42   28   29 ar
    43   28   43 1
    44   29   30 1
    45   29   31 ar
    46   30   44 1
    47   30   45 1
    48   31   32 ar
@<TRIPOS>SUBSTRUCTURE
     1 GTP         1 GROUP 0 A     ****
@<TRIPOS>MOLECULE
[[[5-(2-amino-6-oxo-7,8-dihydro-1~{H}-purin-8-ylium-9-yl)-3,4-dihydroxy-tetrahydrofuran-2-yl]methoxy-oxido-phosphoryl]oxy-hydroxy-phosphoryl] phosphate
   46    48     1     0     0
SMALL
USER_CHARGES

@<TRIPOS>ATOM
      1 PG          2.1083   -5.4870   -5.8260 P.3       1 GTP        -1.1921
      2 O1G         2.7893   -5.2733   -7.1739 O.co2     1 GTP         0.3195
      3 O2G         0.5843   -5.4806   -5.8865 O.co2     1 GTP         0.3195
      4 O3G         2.6969   -6.6242   -4.9974 O.co2     1 GTP         0.3195
      5 O3B         2.4741   -4.1274   -4.9687 O.3       1 GTP         0.4672
      6 PB          3.9055   -3.5156   -4.5293 P.3       1 GTP        -0.9715
      7 O1B         4.7374   -4.4155   -3.6640 O.2       1 GTP         0.2707
      8 O2B         4.5794   -3.1150   -5.9434 O.3       1 GTP         0.0326
      9 O3A         3.5200   -2.0888   -3.8773 O.3       1 GTP         0.4672
     10 PA          4.4649   -0.9309   -3.2223 P.3       1 GTP        -1.1062
     11 O1A         5.0842   -1.4788   -1.9550 O.co2     1 GTP         0.3195
     12 O2A         5.3216   -0.3334   -4.3172 O.co2     1 GTP         0.3195
     13 O5'         3.2903    0.1346   -2.8241 O.3       1 GTP         0.1618
     14 C5'         2.2816   -0.2918   -1.9206 C.3       1 GTP         0.1504
     15 C4'         2.7248    0.0226   -0.4980 C.3       1 GTP         0.1111
     16 O4'         2.4697    1.4219   -0.2462 O.3       1 GTP        -0.1436
     17 C3'         1.9404   -0.7419    0.5596 C.3       1 GTP         0.1111
     18 O3'         2.7418   -0.8086    1.7389 O.3       1 GTP        -0.2728
     19 C2'         0.7477    0.1630    0.7858 C.3       1 GTP         0.1111
     20 O2'         0.1373   -0.0577    2.0407 O.3       1 GTP        -0.2728
     21 C1'         1.3733    1.5427    0.6747 C.3       1 GTP         0.2693
     22 N9          0.4520    2.5240    0.1767 N.pl3     1 GTP        -0.3222
     23 C8          0.2203    2.8205   -1.0970 C.ar      1 GTP         0.1640
     24 N7         -0.6947    3.7752   -1.2304 N.pl3     1 GTP        -0.3688
     25 C5         -1.0607    4.0987    0.0476 C.ar      1 GTP         0.0648
     26 C6         -2.0310    5.0839    0.5029 C.ar      1 GTP         0.3597
     27 O6         -2.6779    5.7867   -0.2609 O.2       1 GTP        -0.2755
     28 N1         -2.1030    5.0975    1.8948 N.pl3     1 GTP        -0.1604
     29 C2         -1.3422    4.2721    2.7403 C.ar      1 GTP         0.4468
     30 N2         -1.5624    4.4419    4.0823 N.pl3     1 GTP        -0.5618
     31 N3         -0.4796    3.3981    2.2792 N.2       1 GTP        -0.4283
     32 C4         -0.3754    3.3496    0.9208 C.ar      1 GTP         0.2226
     33 HOB2        5.4360   -2.6371   -5.9417 H         1 GTP         0.2010
     34 H5'         1.3514    0.2330   -2.1577 H         1 GTP        -0.0393
     35 H5''        2.1280   -1.3678   -2.0460 H         1 GTP        -0.0393
     36 H4'         3.8044   -0.1397   -0.4040 H         1 GTP        -0.0393
     37 H3'         1.6764   -1.7639    0.2728 H         1 GTP        -0.0393
     38 HO3'        3.5554   -1.2733    1.4914 H         1 GTP         0.2010
     39 H2'        -0.0011    0.0027    0.0003 H         1 GTP        -0.0393
     40 HO2'       -0.6141    0.5574    2.1082 H         1 GTP         0.2010
     41 H1'         1.7826    1.9024    1.6451 H         1 GTP        -0.0393
     42 H8          0.7110    2.3472   -1.9295 H         1 GTP         0.0000
     43 HN1        -2.7504    5.7495    2.3282 H         1 GTP         0.0865
     44 HN21       -1.0467    3.8796    4.7190 H         1 GTP         0.2048
     45 HN22       -2.2294    5.1209    4.3680 H         1 GTP         0.2048
     46 H46        -1.0382    4.1687   -2.0954 H         1 GTP         0.2048
@<TRIPOS>BOND
     1    1    2 2
     2    1    3 1
     3    1    4 1
     4    1    5 1
     5    5    6 1
     6    6    7 2
     7    6    8 1
     8    6    9 1
     9    8   33 1
    10    9   10 1
    11   10   11 2
    12   10   12 1
    13   10   13 1
    14   13   14 1
    15   14   15 1
    16   14   34 1
    17   14   35 1
    18   15   16 1
    19   15   17 1
    20   15   36 1
    21   16   21 1
    22   17   18 1
    23   17   19 1
    24   17   37 1
    25   18   38 1
    26   19   20 1
    27   19   21 1
    28   19   39 1
    29   20   40 1
    30   21   22 1
    31   21   41 1
    32   22   23 ar
    33   22   32 ar
    34   23   24 ar
    35   23   42 1
    36   24   25 ar
    37   24   46 1
    38   25   26 ar
    39   25   32 ar
    40   26   27 2
    41   26   28 ar
    42   28   29 ar
    43   28   43 1
    44   29   30 1
    45   29   31 ar
    46   30   44 1
    47   30   45 1
    48   31   32 ar
@<TRIPOS>SUBSTRUCTURE
     1 GTP         1 GROUP 0 A     ****
@<TRIPOS>MOLECULE
[[[5-(2-amino-6-oxo-7,8-dihydro-1~{H}-purin-8-ylium-9-yl)-3,4-dihydroxy-tetrahydrofuran-2-yl]methoxy-oxido-phosphoryl]oxy-hydroxy-phosphoryl] phosphate
   46    48     1     0     0
SMALL
USER_CHARGES

@<TRIPOS>ATOM
      1 PG          3.0122    4.9353   -5.3960 P.3       1 GTP        -1.1921
      2 O1G         1.9931    6.0482   -5.1740 O.co2     1 GTP         0.3195
      3 O2G         3.8486    5.0954   -6.6613 O.co2     1 GTP         0.3195
      4 O3G         3.8185    4.5645   -4.1556 O.co2     1 GTP         0.3195
      5 O3B         2.0931    3.6005   -5.6978 O.3       1 GTP         0.4672
      6 PB          0.9814    2.8617   -4.7841 P.3       1 GTP        -0.9715
      7 O1B         0.0777    3.7844   -4.0209 O.2       1 GTP         0.2707
      8 O2B         0.2325    1.8899   -5.8372 O.3       1 GTP         0.0326
      9 O3A         1.8527    1.8423   -3.8834 O.3       1 GTP         0.4672
     10 PA          2.8307    0.6109   -4.3192 P.3       1 GTP        -1.1062
     11 O1A         1.9827   -0.4755   -4.9441 O.co2     1 GTP         0.3195
     12 O2A         4.0294    1.1826   -5.0444 O.co2     1 GTP         0.3195
     13 O5'         3.2903    0.1346   -2.8241 O.3       1 GTP         0.1618
     14 C5'         2.2816   -0.2918   -1.9206 C.3       1 GTP         0.1504
     15 C4'         2.7248    0.0226   -0.4980 C.3       1 GTP         0.1111
     16 O4'         2.4697    1.4219   -0.2462 O.3       1 GTP        -0.1436
     17 C3'         1.9404   -0.7419    0.5596 C.3       1 GTP         0.1111
     18 O3'         2.7418   -0.8086    1.7389 O.3       1 GTP        -0.2728
     19 C2'         0.7477    0.1630    0.7858 C.3       1 GTP         0.1111
     20 O2'         0.1373   -0.0577    2.0407 O.3       1 GTP        -0.2728
     21 C1'         1.3733    1.5427    0.6747 C.3       1 GTP         0.2693
     22 N9          0.4520    2.5240    0.1767 N.pl3     1 GTP        -0.3222
     23 C8          0.5671    3.2221   -0.9473 C.ar      1 GTP         0.1640
     24 N7         -0.4560    4.0508   -1.1290 N.pl3     1 GTP        -0.3688
     25 C5         -1.2671    3.8585   -0.0441 C.ar      1 GTP         0.0648
     26 C6         -2.5318    4.5014    0.2817 C.ar      1 GTP         0.3597
     27 O6         -3.0527    5.3493   -0.4293 O.2       1 GTP        -0.2755
     28 N1         -3.0357    4.0149    1.4868 N.pl3     1 GTP        -0.1604
     29 C2         -2.4069    3.0373    2.2768 C.ar      1 GTP         0.4468
     30 N2         -3.0679    2.6964    3.4278 N.pl3     1 GTP        -0.5618
     31 N3         -1.2653    2.4872    1.9379 N.2       1 GTP        -0.4283
     32 C4         -0.7342    2.9334    0.7643 C.ar      1 GTP         0.2226
     33 HOB2        0.7689    1.2627   -6.3674 H         1 GTP         0.2010
     34 H5'         1.3514    0.2330   -2.1577 H         1 GTP        -0.0393
     35 H5''        2.1280   -1.3678   -2.0460 H         1 GTP        -0.0393
     36 H4'         3.8044   -0.1397   -0.4040 H         1 GTP        -0.0393
     37 H3'         1.6764   -1.7639    0.2728 H         1 GTP        -0.0393
     38 HO3'        2.2232   -1.2979    2.3953 H         1 GTP         0.2010
     39 H2'        -0.0011    0.0027    0.0003 H         1 GTP        -0.0393
     40 HO2'       -0.6141    0.5574    2.1082 H         1 GTP         0.2010
     41 H1'         1.7826    1.9024    1.6451 H         1 GTP        -0.0393
     42 H8          1.3888    3.1325   -1.6361 H         1 GTP         0.0000
     43 HN1        -3.9188    4.3932    1.8170 H         1 GTP         0.0865
     44 HN21       -2.6609    2.0087    4.0186 H         1 GTP         0.2048
     45 HN22       -3.9293    3.1496    3.6283 H         1 GTP         0.2048
     46 H46        -0.5938    4.6820   -1.9060 H         1 GTP         0.2048
@<TRIPOS>BOND
     1    1    2 2
     2    1    3 1
     3    1    4 1
     4    1    5 1
     5    5    6 1
     6    6    7 2
     7    6    8 1
     8    6    9 1
     9    8   33 1
    10    9   10 1
    11   10   11 2
    12   10   12 1
    13   10   13 1
    14   13   14 1
    15   14   15 1
    16   14   34 1
    17   14   35 1
    18   15   16 1
    19   15   17 1
    20   15   36 1
    21   16   21 1
    22   17   18 1
    23   17   19 1
    24   17   37 1
    25   18   38 1
    26   19   20 1
    27   19   21 1
    28   19   39 1
    29   20   40 1
    30   21   22 1
    31   21   41 1
    32   22   23 ar
    33   22   32 ar
    34   23   24 ar
    35   23   42 1
    36   24   25 ar
    37   24   46 1
    38   25   26 ar
    39   25   32 ar
    40   26   27 2
    41   26   28 ar
    42   28   29 ar
    43   28   43 1
    44   29   30 1
    45   29   31 ar
    46   30   44 1
    47   30   45 1
    48   31   32 ar
@<TRIPOS>SUBSTRUCTURE
     1 GTP         1 GROUP 0 A     ****
@<TRIPOS>MOLECULE
[[[5-(2-amino-6-oxo-7,8-dihydro-1~{H}-purin-8-ylium-9-yl)-3,4-dihydroxy-tetrahydrofuran-2-yl]methoxy-oxido-phosphoryl]oxy-hydroxy-phosphoryl] phosphate
   46    48     1     0     0
SMALL
USER_CHARGES

@<TRIPOS>ATOM
      1 PG          4.5997   -3.9677   -7.4693 P.3       1 GTP        -1.1921
      2 O1G         4.3478   -5.3591   -6.8978 O.co2     1 GTP         0.3195
      3 O2G         6.0746   -3.6178   -7.6384 O.co2     1 GTP         0.3195
      4 O3G         3.7311   -3.6153   -8.6723 O.co2     1 GTP         0.3195
      5 O3B         4.0859   -2.9448   -6.2830 O.3       1 GTP         0.4672
      6 PB          2.6280   -2.7710   -5.6042 P.3       1 GTP        -0.9715
      7 O1B         1.5305   -2.3935   -6.5547 O.2       1 GTP         0.2707
      8 O2B         2.4132   -4.1788   -4.8384 O.3       1 GTP         0.0326
      9 O3A         2.8955   -1.7248   -4.4028 O.3       1 GTP         0.4672
     10 PA          3.0383   -0.0994   -4.4226 P.3       1 GTP        -1.1062
     11 O1A         4.2986    0.2610   -5.1786 O.co2     1 GTP         0.3195
     12 O2A         1.7002    0.4960   -4.8028 O.co2     1 GTP         0.3195
     13 O5'         3.2903    0.1346   -2.8241 O.3       1 GTP         0.1618
     14 C5'         2.2816   -0.2918   -1.9206 C.3       1 GTP         0.1504
     15 C4'         2.7248    0.0226   -0.4980 C.3       1 GTP         0.1111
     16 O4'         2.4697    1.4219   -0.2462 O.3       1 GTP        -0.1436
     17 C3'         1.9404   -0.7419    0.5596 C.3       1 GTP         0.1111
     18 O3'         2.7418   -0.8086    1.7389 O.3       1 GTP        -0.2728
     19 C2'         0.7477    0.1630    0.7858 C.3       1 GTP         0.1111
     20 O2'         0.1373   -0.0577    2.0407 O.3       1 GTP        -0.2728
     21 C1'         1.3733    1.5427    0.6747 C.3       1 GTP         0.2693
     22 N9          0.4520    2.5240    0.1767 N.pl3     1 GTP        -0.3222
     23 C8         -0.8613    2.5511    0.3730 C.ar      1 GTP         0.1640
     24 N7         -1.4346    3.5939   -0.2188 N.pl3     1 GTP        -0.3688
     25 C5         -0.4099    4.2657   -0.8276 C.ar      1 GTP         0.0648
     26 C6         -0.4554    5.4854   -1.6209 C.ar      1 GTP         0.3597
     27 O6         -1.4907    6.0944   -1.8508 O.2       1 GTP        -0.2755
     28 N1          0.8205    5.8357   -2.0593 N.pl3     1 GTP        -0.1604
     29 C2          1.9890    5.1091   -1.7730 C.ar      1 GTP         0.4468
     30 N2          3.1452    5.6230   -2.2997 N.pl3     1 GTP        -0.5618
     31 N3          1.9765    4.0139   -1.0514 N.2       1 GTP        -0.4283
     32 C4          0.7480    3.6324   -0.6003 C.ar      1 GTP         0.2226
     33 HOB2        2.3319   -4.9995   -5.3695 H         1 GTP         0.2010
     34 H5'         1.3514    0.2330   -2.1577 H         1 GTP        -0.0393
     35 H5''        2.1280   -1.3678   -2.0460 H         1 GTP        -0.0393
     36 H4'         3.8044   -0.1397   -0.4040 H         1 GTP        -0.0393
     37 H3'         1.6764   -1.7639    0.2728 H         1 GTP        -0.0393
     38 HO3'        2.2232   -1.2979    2.3953 H         1 GTP         0.2010
     39 H2'        -0.0011    0.0027    0.0003 H         1 GTP        -0.0393
     40 HO2'       -0.1563   -0.9855    2.0596 H         1 GTP         0.2010
     41 H1'         1.7826    1.9024    1.6451 H         1 GTP        -0.0393
     42 H8         -1.4050    1.8187    0.9438 H         1 GTP         0.0000
     43 HN1         0.9121    6.6744   -2.6251 H         1 GTP         0.0865
     44 HN21        3.9971    5.1427   -2.1235 H         1 GTP         0.2048
     45 HN22        3.0881    6.4564   -2.8380 H         1 GTP         0.2048
     46 H46        -2.4173    3.8294   -0.2127 H         1 GTP         0.2048
@<TRIPOS>BOND
     1    1    2 2
     2    1    3 1
     3    1    4 1
     4    1    5 1
     5    5    6 1
     6    6    7 2
     7    6    8 1
     8    6    9 1
     9    8   33 1
    10    9   10 1
    11   10   11 2
    12   10   12 1
    13   10   13 1
    14   13   14 1
    15   14   15 1
    16   14   34 1
    17   14   35 1
    18   15   16 1
    19   15   17 1
    20   15   36 1
    21   16   21 1
    22   17   18 1
    23   17   19 1
    24   17   37 1
    25   18   38 1
    26   19   20 1
    27   19   21 1
    28   19   39 1
    29   20   40 1
    30   21   22 1
    31   21   41 1
    32   22   23 ar
    33   22   32 ar
    34   23   24 ar
    35   23   42 1
    36   24   25 ar
    37   24   46 1
    38   25   26 ar
    39   25   32 ar
    40   26   27 2
    41   26   28 ar
    42   28   29 ar
    43   28   43 1
    44   29   30 1
    45   29   31 ar
    46   30   44 1
    47   30   45 1
    48   31   32 ar
@<TRIPOS>SUBSTRUCTURE
     1 GTP         1 GROUP 0 A     ****
@<TRIPOS>MOLECULE
[[[5-(2-amino-6-oxo-7,8-dihydro-1~{H}-purin-8-ylium-9-yl)-3,4-dihydroxy-tetrahydrofuran-2-yl]methoxy-oxido-phosphoryl]oxy-hydroxy-phosphoryl] phosphate
   46    48     1     0     0
SMALL
USER_CHARGES

@<TRIPOS>ATOM
      1 PG          2.8985   -4.6378   -6.8254 P.3       1 GTP        -1.1921
      2 O1G         4.2412   -4.5658   -7.5452 O.co2     1 GTP         0.3195
      3 O2G         1.7273   -4.0802   -7.6276 O.co2     1 GTP         0.3195
      4 O3G         2.6157   -5.9780   -6.1545 O.co2     1 GTP         0.3195
      5 O3B         3.0556   -3.5800   -5.5709 O.3       1 GTP         0.4672
      6 PB          4.0993   -3.5630   -4.3353 P.3       1 GTP        -0.9715
      7 O1B         4.0488   -4.7731   -3.4501 O.2       1 GTP         0.2707
      8 O2B         5.5206   -3.3089   -5.0632 O.3       1 GTP         0.0326
      9 O3A         3.7928   -2.1555   -3.6041 O.3       1 GTP         0.4672
     10 PA          3.4597   -0.6852   -4.2287 P.3       1 GTP        -1.1062
     11 O1A         4.6913   -0.1809   -4.9487 O.co2     1 GTP         0.3195
     12 O2A         2.1180   -0.7517   -4.9252 O.co2     1 GTP         0.3195
     13 O5'         3.2903    0.1346   -2.8241 O.3       1 GTP         0.1618
     14 C5'         2.2816   -0.2918   -1.9206 C.3       1 GTP         0.1504
     15 C4'         2.7248    0.0226   -0.4980 C.3       1 GTP         0.1111
     16 O4'         2.4697    1.4219   -0.2462 O.3       1 GTP        -0.1436
     17 C3'         1.9404   -0.7419    0.5596 C.3       1 GTP         0.1111
     18 O3'         2.7418   -0.8086    1.7389 O.3       1 GTP        -0.2728
     19 C2'         0.7477    0.1630    0.7858 C.3       1 GTP         0.1111
     20 O2'         0.1373   -0.0577    2.0407 O.3       1 GTP        -0.2728
     21 C1'         1.3733    1.5427    0.6747 C.3       1 GTP         0.2693
     22 N9          0.4520    2.5240    0.1767 N.pl3     1 GTP        -0.3222
     23 C8          0.5671    3.2221   -0.9473 C.ar      1 GTP         0.1640
     24 N7         -0.4560    4.0508   -1.1290 N.pl3     1 GTP        -0.3688
     25 C5         -1.2671    3.8585   -0.0441 C.ar      1 GTP         0.0648
     26 C6         -2.5318    4.5014    0.2817 C.ar      1 GTP         0.3597
     27 O6         -3.0527    5.3493   -0.4293 O.2       1 GTP        -0.2755
     28 N1         -3.0357    4.0149    1.4868 N.pl3     1 GTP        -0.1604
     29 C2         -2.4069    3.0373    2.2768 C.ar      1 GTP         0.4468
     30 N2         -3.0679    2.6964    3.4278 N.pl3     1 GTP        -0.5618
     31 N3         -1.2653    2.4872    1.9379 N.2       1 GTP        -0.4283
     32 C4         -0.7342    2.9334    0.7643 C.ar      1 GTP         0.2226
     33 HOB2        5.8750   -3.9982   -5.6644 H         1 GTP         0.2010
     34 H5'         1.3514    0.2330   -2.1577 H         1 GTP        -0.0393
     35 H5''        2.1280   -1.3678   -2.0460 H         1 GTP        -0.0393
     36 H4'         3.8044   -0.1397   -0.4040 H         1 GTP        -0.0393
     37 H3'         1.6764   -1.7639    0.2728 H         1 GTP        -0.0393
     38 HO3'        3.5554   -1.2733    1.4914 H         1 GTP         0.2010
     39 H2'        -0.0011    0.0027    0.0003 H         1 GTP        -0.0393
     40 HO2'       -0.1563   -0.9855    2.0596 H         1 GTP         0.2010
     41 H1'         1.7826    1.9024    1.6451 H         1 GTP        -0.0393
     42 H8          1.3888    3.1325   -1.6361 H         1 GTP         0.0000
     43 HN1        -3.9188    4.3932    1.8170 H         1 GTP         0.0865
     44 HN21       -2.6609    2.0087    4.0186 H         1 GTP         0.2048
     45 HN22       -3.9293    3.1496    3.6283 H         1 GTP         0.2048
     46 H46        -0.5938    4.6820   -1.9060 H         1 GTP         0.2048
@<TRIPOS>BOND
     1    1    2 2
     2    1    3 1
     3    1    4 1
     4    1    5 1
     5    5    6 1
     6    6    7 2
     7    6    8 1
     8    6    9 1
     9    8   33 1
    10    9   10 1
    11   10   11 2
    12   10   12 1
    13   10   13 1
    14   13   14 1
    15   14   15 1
    16   14   34 1
    17   14   35 1
    18   15   16 1
    19   15   17 1
    20   15   36 1
    21   16   21 1
    22   17   18 1
    23   17   19 1
    24   17   37 1
    25   18   38 1
    26   19   20 1
    27   19   21 1
    28   19   39 1
    29   20   40 1
    30   21   22 1
    31   21   41 1
    32   22   23 ar
    33   22   32 ar
    34   23   24 ar
    35   23   42 1
    36   24   25 ar
    37   24   46 1
    38   25   26 ar
    39   25   32 ar
    40   26   27 2
    41   26   28 ar
    42   28   29 ar
    43   28   43 1
    44   29   30 1
    45   29   31 ar
    46   30   44 1
    47   30   45 1
    48   31   32 ar
@<TRIPOS>SUBSTRUCTURE
     1 GTP         1 GROUP 0 A     ****
@<TRIPOS>MOLECULE
[[[5-(2-amino-6-oxo-7,8-dihydro-1~{H}-purin-8-ylium-9-yl)-3,4-dihydroxy-tetrahydrofuran-2-yl]methoxy-oxido-phosphoryl]oxy-hydroxy-phosphoryl] phosphate
   46    48     1     0     0
SMALL
USER_CHARGES

@<TRIPOS>ATOM
      1 PG         -5.4491   -7.2889    5.3845 P.3       1 GTP        -1.1921
      2 O1G        -5.0528   -8.7265    5.7044 O.co2     1 GTP         0.3195
      3 O2G        -6.4752   -7.1569    4.2638 O.co2     1 GTP         0.3195
      4 O3G        -5.7471   -6.4313    6.6100 O.co2     1 GTP         0.3195
      5 O3B        -4.0816   -6.6255    4.7465 O.3       1 GTP         0.4672
      6 PB         -2.6089   -6.4340    5.3874 P.3       1 GTP        -0.9715
      7 O1B        -2.5660   -5.5947    6.6301 O.2       1 GTP         0.2707
      8 O2B        -2.0924   -7.9548    5.5731 O.3       1 GTP         0.0326
      9 O3A        -1.7288   -5.8851    4.1491 O.3       1 GTP         0.4672
     10 PA         -1.7309   -6.3113    2.5739 P.3       1 GTP        -1.1062
     11 O1A        -1.2227   -7.7322    2.4619 O.co2     1 GTP         0.3195
     12 O2A        -3.0560   -5.9038    1.9675 O.co2     1 GTP         0.3195
     13 O5'        -0.5687   -5.2869    2.0510 O.3       1 GTP         0.1618
     14 C5'        -0.7840   -3.8935    2.2172 C.3       1 GTP         0.1504
     15 C4'        -0.0724   -3.1466    1.1027 C.3       1 GTP         0.1111
     16 O4'        -0.8674   -3.1929   -0.0945 O.3       1 GTP        -0.1436
     17 C3'         0.1338   -1.6715    1.4027 C.3       1 GTP         0.1111
     18 O3'         1.2893   -1.4445    2.1808 O.3       1 GTP        -0.2728
     19 C2'         0.2158   -1.0724    0.0128 C.3       1 GTP         0.1111
     20 O2'         1.5141   -1.2448   -0.5513 O.3       1 GTP        -0.2728
     21 C1'        -0.7897   -1.9176   -0.7583 C.3       1 GTP         0.2693
     22 N9         -2.1040   -1.3333   -0.7704 N.pl3     1 GTP        -0.3222
     23 C8         -3.0597   -1.5109    0.1345 C.ar      1 GTP         0.1640
     24 N7         -4.1618   -0.8291   -0.1607 N.pl3     1 GTP        -0.3688
     25 C5         -3.8764   -0.1805   -1.3310 C.ar      1 GTP         0.0648
     26 C6         -4.7187    0.7111   -2.1152 C.ar      1 GTP         0.3597
     27 O6         -5.8617    1.0043   -1.7939 O.2       1 GTP        -0.2755
     28 N1         -4.0405    1.1608   -3.2468 N.pl3     1 GTP        -0.1604
     29 C2         -2.7239    0.8013   -3.5822 C.ar      1 GTP         0.4468
     30 N2         -2.2399    1.3534   -4.7394 N.pl3     1 GTP        -0.5618
     31 N3         -2.0053   -0.0071   -2.8402 N.2       1 GTP        -0.4283
     32 C4         -2.6290   -0.4727   -1.7210 C.ar      1 GTP         0.2226
     33 HOB2       -2.5556   -8.5380    6.2116 H         1 GTP         0.2010
     34 H5'        -1.8598   -3.6968    2.1850 H         1 GTP        -0.0393
     35 H5''       -0.3933   -3.5903    3.1931 H         1 GTP        -0.0393
     36 H4'         0.8874   -3.6466    0.8805 H         1 GTP        -0.0393
     37 H3'        -0.7376   -1.2333    1.9867 H         1 GTP        -0.0393
     38 HO3'        1.3408   -0.4870    2.3219 H         1 GTP         0.2010
     39 H2'        -0.0384   -0.0310    0.0096 H         1 GTP        -0.0393
     40 HO2'        2.1463   -0.7958    0.0370 H         1 GTP         0.2010
     41 H1'        -0.4769   -2.1002   -1.8093 H         1 GTP        -0.0393
     42 H8         -2.9610   -2.1316    1.0079 H         1 GTP         0.0000
     43 HN1        -4.5320    1.7923   -3.8726 H         1 GTP         0.0865
     44 HN21       -1.3128    1.1277   -5.0171 H         1 GTP         0.2048
     45 HN22       -2.8342    1.9586   -5.2572 H         1 GTP         0.2048
     46 H46        -5.0195   -0.8034    0.3729 H         1 GTP         0.2048
@<TRIPOS>BOND
     1    1    2 2
     2    1    3 1
     3    1    4 1
     4    1    5 1
     5    5    6 1
     6    6    7 2
     7    6    8 1
     8    6    9 1
     9    8   33 1
    10    9   10 1
    11   10   11 2
    12   10   12 1
    13   10   13 1
    14   13   14 1
    15   14   15 1
    16   14   34 1
    17   14   35 1
    18   15   16 1
    19   15   17 1
    20   15   36 1
    21   16   21 1
    22   17   18 1
    23   17   19 1
    24   17   37 1
    25   18   38 1
    26   19   20 1
    27   19   21 1
    28   19   39 1
    29   20   40 1
    30   21   22 1
    31   21   41 1
    32   22   23 ar
    33   22   32 ar
    34   23   24 ar
    35   23   42 1
    36   24   25 ar
    37   24   46 1
    38   25   26 ar
    39   25   32 ar
    40   26   27 2
    41   26   28 ar
    42   28   29 ar
    43   28   43 1
    44   29   30 1
    45   29   31 ar
    46   30   44 1
    47   30   45 1
    48   31   32 ar
@<TRIPOS>SUBSTRUCTURE
     1 GTP         1 GROUP 0 A     ****
@<TRIPOS>MOLECULE
[[[5-(2-amino-6-oxo-7,8-dihydro-1~{H}-purin-8-ylium-9-yl)-3,4-dihydroxy-tetrahydrofuran-2-yl]methoxy-oxido-phosphoryl]oxy-hydroxy-phosphoryl] phosphate
   46    48     1     0     0
SMALL
USER_CHARGES

@<TRIPOS>ATOM
      1 PG         -2.2720   -2.5508   -0.0040 P.3       1 GTP        -1.1921
      2 O1G        -2.6492   -4.0285   -0.0253 O.co2     1 GTP         0.3195
      3 O2G        -3.3307   -1.6431    0.6137 O.co2     1 GTP         0.3195
      4 O3G        -0.8513   -2.2714    0.4753 O.co2     1 GTP         0.3195
      5 O3B        -2.2582   -2.1146   -1.5936 O.3       1 GTP         0.4672
      6 PB         -1.3728   -2.6702   -2.8280 P.3       1 GTP        -0.9715
      7 O1B        -1.5435   -4.1320   -3.1190 O.2       1 GTP         0.2707
      8 O2B        -1.7786   -1.6812   -4.0409 O.3       1 GTP         0.0326
      9 O3A         0.1286   -2.2088   -2.4509 O.3       1 GTP         0.4672
     10 PA          1.5375   -2.4279   -3.2447 P.3       1 GTP        -1.1062
     11 O1A         1.8622   -3.9058   -3.2441 O.co2     1 GTP         0.3195
     12 O2A         1.4906   -1.6373   -4.5340 O.co2     1 GTP         0.3195
     13 O5'         2.5245   -1.6648   -2.1878 O.3       1 GTP         0.1618
     14 C5'         2.2816   -0.2918   -1.9206 C.3       1 GTP         0.1504
     15 C4'         2.7248    0.0226   -0.4980 C.3       1 GTP         0.1111
     16 O4'         2.4697    1.4219   -0.2462 O.3       1 GTP        -0.1436
     17 C3'         1.9404   -0.7419    0.5596 C.3       1 GTP         0.1111
     18 O3'         2.7418   -0.8086    1.7389 O.3       1 GTP        -0.2728
     19 C2'         0.7477    0.1630    0.7858 C.3       1 GTP         0.1111
     20 O2'         0.1373   -0.0577    2.0407 O.3       1 GTP        -0.2728
     21 C1'         1.3733    1.5427    0.6747 C.3       1 GTP         0.2693
     22 N9          0.4520    2.5240    0.1767 N.pl3     1 GTP        -0.3222
     23 C8          0.5671    3.2221   -0.9473 C.ar      1 GTP         0.1640
     24 N7         -0.4560    4.0508   -1.1290 N.pl3     1 GTP        -0.3688
     25 C5         -1.2671    3.8585   -0.0441 C.ar      1 GTP         0.0648
     26 C6         -2.5318    4.5014    0.2817 C.ar      1 GTP         0.3597
     27 O6         -3.0527    5.3493   -0.4293 O.2       1 GTP        -0.2755
     28 N1         -3.0357    4.0149    1.4868 N.pl3     1 GTP        -0.1604
     29 C2         -2.4069    3.0373    2.2768 C.ar      1 GTP         0.4468
     30 N2         -3.0679    2.6964    3.4278 N.pl3     1 GTP        -0.5618
     31 N3         -1.2653    2.4872    1.9379 N.2       1 GTP        -0.4283
     32 C4         -0.7342    2.9334    0.7643 C.ar      1 GTP         0.2226
     33 HOB2       -1.3045   -1.7606   -4.8960 H         1 GTP         0.2010
     34 H5'         2.8432    0.3119   -2.6398 H         1 GTP        -0.0393
     35 H5''        1.2128   -0.0927   -2.0428 H         1 GTP        -0.0393
     36 H4'         3.8044   -0.1397   -0.4040 H         1 GTP        -0.0393
     37 H3'         1.6764   -1.7639    0.2728 H         1 GTP        -0.0393
     38 HO3'        3.5554   -1.2733    1.4914 H         1 GTP         0.2010
     39 H2'        -0.0011    0.0027    0.0003 H         1 GTP        -0.0393
     40 HO2'       -0.1563   -0.9855    2.0596 H         1 GTP         0.2010
     41 H1'         1.7826    1.9024    1.6451 H         1 GTP        -0.0393
     42 H8          1.3888    3.1325   -1.6361 H         1 GTP         0.0000
     43 HN1        -3.9188    4.3932    1.8170 H         1 GTP         0.0865
     44 HN21       -2.6609    2.0087    4.0186 H         1 GTP         0.2048
     45 HN22       -3.9293    3.1496    3.6283 H         1 GTP         0.2048
     46 H46        -0.5938    4.6820   -1.9060 H         1 GTP         0.2048
@<TRIPOS>BOND
     1    1    2 2
     2    1    3 1
     3    1    4 1
     4    1    5 1
     5    5    6 1
     6    6    7 2
     7    6    8 1
     8    6    9 1
     9    8   33 1
    10    9   10 1
    11   10   11 2
    12   10   12 1
    13   10   13 1
    14   13   14 1
    15   14   15 1
    16   14   34 1
    17   14   35 1
    18   15   16 1
    19   15   17 1
    20   15   36 1
    21   16   21 1
    22   17   18 1
    23   17   19 1
    24   17   37 1
    25   18   38 1
    26   19   20 1
    27   19   21 1
    28   19   39 1
    29   20   40 1
    30   21   22 1
    31   21   41 1
    32   22   23 ar
    33   22   32 ar
    34   23   24 ar
    35   23   42 1
    36   24   25 ar
    37   24   46 1
    38   25   26 ar
    39   25   32 ar
    40   26   27 2
    41   26   28 ar
    42   28   29 ar
    43   28   43 1
    44   29   30 1
    45   29   31 ar
    46   30   44 1
    47   30   45 1
    48   31   32 ar
@<TRIPOS>SUBSTRUCTURE
     1 GTP         1 GROUP 0 A     ****
@<TRIPOS>MOLECULE
[[[5-(2-amino-6-oxo-7,8-dihydro-1~{H}-purin-8-ylium-9-yl)-3,4-dihydroxy-tetrahydrofuran-2-yl]methoxy-oxido-phosphoryl]oxy-hydroxy-phosphoryl] phosphate
   46    48     1     0     0
SMALL
USER_CHARGES

@<TRIPOS>ATOM
      1 PG          5.7527   -4.2300   -6.9366 P.3       1 GTP        -1.1921
      2 O1G         4.9187   -4.0106   -8.1946 O.co2     1 GTP         0.3195
      3 O2G         5.7298   -5.6620   -6.4120 O.co2     1 GTP         0.3195
      4 O3G         7.1426   -3.6041   -6.9866 O.co2     1 GTP         0.3195
      5 O3B         4.9617   -3.3715   -5.7727 O.3       1 GTP         0.4672
      6 PB          4.6217   -1.7929   -5.6800 P.3       1 GTP        -0.9715
      7 O1B         5.8185   -0.8884   -5.6862 O.2       1 GTP         0.2707
      8 O2B         3.5917   -1.5700   -6.9063 O.3       1 GTP         0.0326
      9 O3A         3.6796   -1.6878   -4.3720 O.3       1 GTP         0.4672
     10 PA          3.9759   -2.0799   -2.8160 P.3       1 GTP        -1.1062
     11 O1A         4.1420   -3.5811   -2.7241 O.co2     1 GTP         0.3195
     12 O2A         5.0329   -1.1410   -2.2767 O.co2     1 GTP         0.3195
     13 O5'         2.5245   -1.6648   -2.1878 O.3       1 GTP         0.1618
     14 C5'         2.2816   -0.2918   -1.9206 C.3       1 GTP         0.1504
     15 C4'         2.7248    0.0226   -0.4980 C.3       1 GTP         0.1111
     16 O4'         2.4697    1.4219   -0.2462 O.3       1 GTP        -0.1436
     17 C3'         1.9404   -0.7419    0.5596 C.3       1 GTP         0.1111
     18 O3'         2.7418   -0.8086    1.7389 O.3       1 GTP        -0.2728
     19 C2'         0.7477    0.1630    0.7858 C.3       1 GTP         0.1111
     20 O2'         0.1373   -0.0577    2.0407 O.3       1 GTP        -0.2728
     21 C1'         1.3733    1.5427    0.6747 C.3       1 GTP         0.2693
     22 N9          0.4520    2.5240    0.1767 N.pl3     1 GTP        -0.3222
     23 C8         -0.2009    2.4849   -0.9792 C.ar      1 GTP         0.1640
     24 N7         -0.9840    3.5454   -1.1481 N.pl3     1 GTP        -0.3688
     25 C5         -0.8090    4.3005   -0.0206 C.ar      1 GTP         0.0648
     26 C6         -1.4206    5.5724    0.3362 C.ar      1 GTP         0.3597
     27 O6         -2.2199    6.1544   -0.3836 O.2       1 GTP        -0.2755
     28 N1         -0.9680    6.0043    1.5817 N.pl3     1 GTP        -0.1604
     29 C2         -0.0474    5.3055    2.3814 C.ar      1 GTP         0.4468
     30 N2          0.2680    5.9024    3.5740 N.pl3     1 GTP        -0.5618
     31 N3          0.4755    4.1601    2.0138 N.2       1 GTP        -0.4283
     32 C4          0.0611    3.6981    0.8001 C.ar      1 GTP         0.2226
     33 HOB2        3.9151   -1.6901   -7.8246 H         1 GTP         0.2010
     34 H5'         2.8432    0.3119   -2.6398 H         1 GTP        -0.0393
     35 H5''        1.2128   -0.0927   -2.0428 H         1 GTP        -0.0393
     36 H4'         3.8044   -0.1397   -0.4040 H         1 GTP        -0.0393
     37 H3'         1.6764   -1.7639    0.2728 H         1 GTP        -0.0393
     38 HO3'        2.2232   -1.2979    2.3953 H         1 GTP         0.2010
     39 H2'        -0.0011    0.0027    0.0003 H         1 GTP        -0.0393
     40 HO2'       -0.6141    0.5574    2.1082 H         1 GTP         0.2010
     41 H1'         1.7826    1.9024    1.6451 H         1 GTP        -0.0393
     42 H8         -0.1126    1.6906   -1.6997 H         1 GTP         0.0000
     43 HN1        -1.3285    6.8855    1.9361 H         1 GTP         0.0865
     44 HN21        0.9153    5.4446    4.1732 H         1 GTP         0.2048
     45 HN22       -0.1624    6.7706    3.7948 H         1 GTP         0.2048
     46 H46        -1.5768    3.7405   -1.9429 H         1 GTP         0.2048
@<TRIPOS>BOND
     1    1    2 2
     2    1    3 1
     3    1    4 1
     4    1    5 1
     5    5    6 1
     6    6    7 2
     7    6    8 1
     8    6    9 1
     9    8   33 1
    10    9   10 1
    11   10   11 2
    12   10   12 1
    13   10   13 1
    14   13   14 1
    15   14   15 1
    16   14   34 1
    17   14   35 1
    18   15   16 1
    19   15   17 1
    20   15   36 1
    21   16   21 1
    22   17   18 1
    23   17   19 1
    24   17   37 1
    25   18   38 1
    26   19   20 1
    27   19   21 1
    28   19   39 1
    29   20   40 1
    30   21   22 1
    31   21   41 1
    32   22   23 ar
    33   22   32 ar
    34   23   24 ar
    35   23   42 1
    36   24   25 ar
    37   24   46 1
    38   25   26 ar
    39   25   32 ar
    40   26   27 2
    41   26   28 ar
    42   28   29 ar
    43   28   43 1
    44   29   30 1
    45   29   31 ar
    46   30   44 1
    47   30   45 1
    48   31   32 ar
@<TRIPOS>SUBSTRUCTURE
     1 GTP         1 GROUP 0 A     ****
@<TRIPOS>MOLECULE
[[[5-(2-amino-6-oxo-7,8-dihydro-1~{H}-purin-8-ylium-9-yl)-3,4-dihydroxy-tetrahydrofuran-2-yl]methoxy-oxido-phosphoryl]oxy-hydroxy-phosphoryl] phosphate
   46    48     1     0     0
SMALL
USER_CHARGES

@<TRIPOS>ATOM
      1 PG          8.7627   -0.8668   -2.2041 P.3       1 GTP        -1.1921
      2 O1G         9.1459   -0.4274   -0.7947 O.co2     1 GTP         0.3195
      3 O2G         8.7944    0.2529   -3.2394 O.co2     1 GTP         0.3195
      4 O3G         9.4271   -2.1611   -2.6617 O.co2     1 GTP         0.3195
      5 O3B         7.1637   -1.2496   -2.0870 O.3       1 GTP         0.4672
      6 PB          6.4115   -2.3531   -1.1743 P.3       1 GTP        -0.9715
      7 O1B         6.8442   -3.7697   -1.4123 O.2       1 GTP         0.2707
      8 O2B         6.6547   -1.8089    0.3287 O.3       1 GTP         0.0326
      9 O3A         4.8460   -2.0528   -1.4357 O.3       1 GTP         0.4672
     10 PA          3.9759   -2.0799   -2.8160 P.3       1 GTP        -1.1062
     11 O1A         4.4639   -0.9618   -3.7112 O.co2     1 GTP         0.3195
     12 O2A         3.9076   -3.5074   -3.3131 O.co2     1 GTP         0.3195
     13 O5'         2.5245   -1.6648   -2.1878 O.3       1 GTP         0.1618
     14 C5'         2.2816   -0.2918   -1.9206 C.3       1 GTP         0.1504
     15 C4'         2.7248    0.0226   -0.4980 C.3       1 GTP         0.1111
     16 O4'         2.4697    1.4219   -0.2462 O.3       1 GTP        -0.1436
     17 C3'         1.9404   -0.7419    0.5596 C.3       1 GTP         0.1111
     18 O3'         2.7418   -0.8086    1.7389 O.3       1 GTP        -0.2728
     19 C2'         0.7477    0.1630    0.7858 C.3       1 GTP         0.1111
     20 O2'         0.1373   -0.0577    2.0407 O.3       1 GTP        -0.2728
     21 C1'         1.3733    1.5427    0.6747 C.3       1 GTP         0.2693
     22 N9          0.4520    2.5240    0.1767 N.pl3     1 GTP        -0.3222
     23 C8          0.2203    2.8205   -1.0970 C.ar      1 GTP         0.1640
     24 N7         -0.6947    3.7752   -1.2304 N.pl3     1 GTP        -0.3688
     25 C5         -1.0607    4.0987    0.0476 C.ar      1 GTP         0.0648
     26 C6         -2.0310    5.0839    0.5029 C.ar      1 GTP         0.3597
     27 O6         -2.6779    5.7867   -0.2609 O.2       1 GTP        -0.2755
     28 N1         -2.1030    5.0975    1.8948 N.pl3     1 GTP        -0.1604
     29 C2         -1.3422    4.2721    2.7403 C.ar      1 GTP         0.4468
     30 N2         -1.5624    4.4419    4.0823 N.pl3     1 GTP        -0.5618
     31 N3         -0.4796    3.3981    2.2792 N.2       1 GTP        -0.4283
     32 C4         -0.3754    3.3496    0.9208 C.ar      1 GTP         0.2226
     33 HOB2        7.5689   -1.7898    0.6837 H         1 GTP         0.2010
     34 H5'         2.8432    0.3119   -2.6398 H         1 GTP        -0.0393
     35 H5''        1.2128   -0.0927   -2.0428 H         1 GTP        -0.0393
     36 H4'         3.8044   -0.1397   -0.4040 H         1 GTP        -0.0393
     37 H3'         1.6764   -1.7639    0.2728 H         1 GTP        -0.0393
     38 HO3'        3.5554   -1.2733    1.4914 H         1 GTP         0.2010
     39 H2'        -0.0011    0.0027    0.0003 H         1 GTP        -0.0393
     40 HO2'       -0.1563   -0.9855    2.0596 H         1 GTP         0.2010
     41 H1'         1.7826    1.9024    1.6451 H         1 GTP        -0.0393
     42 H8          0.7110    2.3472   -1.9295 H         1 GTP         0.0000
     43 HN1        -2.7504    5.7495    2.3282 H         1 GTP         0.0865
     44 HN21       -1.0467    3.8796    4.7190 H         1 GTP         0.2048
     45 HN22       -2.2294    5.1209    4.3680 H         1 GTP         0.2048
     46 H46        -1.0382    4.1687   -2.0954 H         1 GTP         0.2048
@<TRIPOS>BOND
     1    1    2 2
     2    1    3 1
     3    1    4 1
     4    1    5 1
     5    5    6 1
     6    6    7 2
     7    6    8 1
     8    6    9 1
     9    8   33 1
    10    9   10 1
    11   10   11 2
    12   10   12 1
    13   10   13 1
    14   13   14 1
    15   14   15 1
    16   14   34 1
    17   14   35 1
    18   15   16 1
    19   15   17 1
    20   15   36 1
    21   16   21 1
    22   17   18 1
    23   17   19 1
    24   17   37 1
    25   18   38 1
    26   19   20 1
    27   19   21 1
    28   19   39 1
    29   20   40 1
    30   21   22 1
    31   21   41 1
    32   22   23 ar
    33   22   32 ar
    34   23   24 ar
    35   23   42 1
    36   24   25 ar
    37   24   46 1
    38   25   26 ar
    39   25   32 ar
    40   26   27 2
    41   26   28 ar
    42   28   29 ar
    43   28   43 1
    44   29   30 1
    45   29   31 ar
    46   30   44 1
    47   30   45 1
    48   31   32 ar
@<TRIPOS>SUBSTRUCTURE
     1 GTP         1 GROUP 0 A     ****
@<TRIPOS>MOLECULE
[[[5-(2-amino-6-oxo-7,8-dihydro-1~{H}-purin-8-ylium-9-yl)-3,4-dihydroxy-tetrahydrofuran-2-yl]methoxy-oxido-phosphoryl]oxy-hydroxy-phosphoryl] phosphate
   46    48     1     0     0
SMALL
USER_CHARGES

@<TRIPOS>ATOM
      1 PG          4.9152   -3.1208   -6.8322 P.3       1 GTP        -1.1921
      2 O1G         4.6124   -2.4203   -8.1528 O.co2     1 GTP         0.3195
      3 O2G         4.8022   -4.6407   -6.8894 O.co2     1 GTP         0.3195
      4 O3G         6.1662   -2.6125   -6.1233 O.co2     1 GTP         0.3195
      5 O3B         3.6758   -2.6707   -5.8430 O.3       1 GTP         0.4672
      6 PB          3.2070   -1.2043   -5.3465 P.3       1 GTP        -0.9715
      7 O1B         4.2423   -0.4379   -4.5775 O.2       1 GTP         0.2707
      8 O2B         2.7116   -0.4984   -6.7141 O.3       1 GTP         0.0326
      9 O3A         1.8308   -1.4985   -4.5535 O.3       1 GTP         0.4672
     10 PA          1.5375   -2.4279   -3.2447 P.3       1 GTP        -1.1062
     11 O1A         0.1009   -2.2157   -2.8193 O.co2     1 GTP         0.3195
     12 O2A         2.0783   -3.8159   -3.5100 O.co2     1 GTP         0.3195
     13 O5'         2.5245   -1.6648   -2.1878 O.3       1 GTP         0.1618
     14 C5'         2.2816   -0.2918   -1.9206 C.3       1 GTP         0.1504
     15 C4'         2.7248    0.0226   -0.4980 C.3       1 GTP         0.1111
     16 O4'         2.4697    1.4219   -0.2462 O.3       1 GTP        -0.1436
     17 C3'         1.9404   -0.7419    0.5596 C.3       1 GTP         0.1111
     18 O3'         2.7418   -0.8086    1.7389 O.3       1 GTP        -0.2728
     19 C2'         0.7477    0.1630    0.7858 C.3       1 GTP         0.1111
     20 O2'         0.1373   -0.0577    2.0407 O.3       1 GTP        -0.2728
     21 C1'         1.3733    1.5427    0.6747 C.3       1 GTP         0.2693
     22 N9          0.4520    2.5240    0.1767 N.pl3     1 GTP        -0.3222
     23 C8          0.5671    3.2221   -0.9473 C.ar      1 GTP         0.1640
     24 N7         -0.4560    4.0508   -1.1290 N.pl3     1 GTP        -0.3688
     25 C5         -1.2671    3.8585   -0.0441 C.ar      1 GTP         0.0648
     26 C6         -2.5318    4.5014    0.2817 C.ar      1 GTP         0.3597
     27 O6         -3.0527    5.3493   -0.4293 O.2       1 GTP        -0.2755
     28 N1         -3.0357    4.0149    1.4868 N.pl3     1 GTP        -0.1604
     29 C2         -2.4069    3.0373    2.2768 C.ar      1 GTP         0.4468
     30 N2         -3.0679    2.6964    3.4278 N.pl3     1 GTP        -0.5618
     31 N3         -1.2653    2.4872    1.9379 N.2       1 GTP        -0.4283
     32 C4         -0.7342    2.9334    0.7643 C.ar      1 GTP         0.2226
     33 HOB2        3.3701   -0.3123   -7.4169 H         1 GTP         0.2010
     34 H5'         2.8432    0.3119   -2.6398 H         1 GTP        -0.0393
     35 H5''        1.2128   -0.0927   -2.0428 H         1 GTP        -0.0393
     36 H4'         3.8044   -0.1397   -0.4040 H         1 GTP        -0.0393
     37 H3'         1.6764   -1.7639    0.2728 H         1 GTP        -0.0393
     38 HO3'        3.5554   -1.2733    1.4914 H         1 GTP         0.2010
     39 H2'        -0.0011    0.0027    0.0003 H         1 GTP        -0.0393
     40 HO2'       -0.1563   -0.9855    2.0596 H         1 GTP         0.2010
     41 H1'         1.7826    1.9024    1.6451 H         1 GTP        -0.0393
     42 H8          1.3888    3.1325   -1.6361 H         1 GTP         0.0000
     43 HN1        -3.9188    4.3932    1.8170 H         1 GTP         0.0865
     44 HN21       -2.6609    2.0087    4.0186 H         1 GTP         0.2048
     45 HN22       -3.9293    3.1496    3.6283 H         1 GTP         0.2048
     46 H46        -0.5938    4.6820   -1.9060 H         1 GTP         0.2048
@<TRIPOS>BOND
     1    1    2 2
     2    1    3 1
     3    1    4 1
     4    1    5 1
     5    5    6 1
     6    6    7 2
     7    6    8 1
     8    6    9 1
     9    8   33 1
    10    9   10 1
    11   10   11 2
    12   10   12 1
    13   10   13 1
    14   13   14 1
    15   14   15 1
    16   14   34 1
    17   14   35 1
    18   15   16 1
    19   15   17 1
    20   15   36 1
    21   16   21 1
    22   17   18 1
    23   17   19 1
    24   17   37 1
    25   18   38 1
    26   19   20 1
    27   19   21 1
    28   19   39 1
    29   20   40 1
    30   21   22 1
    31   21   41 1
    32   22   23 ar
    33   22   32 ar
    34   23   24 ar
    35   23   42 1
    36   24   25 ar
    37   24   46 1
    38   25   26 ar
    39   25   32 ar
    40   26   27 2
    41   26   28 ar
    42   28   29 ar
    43   28   43 1
    44   29   30 1
    45   29   31 ar
    46   30   44 1
    47   30   45 1
    48   31   32 ar
@<TRIPOS>SUBSTRUCTURE
     1 GTP         1 GROUP 0 A     ****
@<TRIPOS>MOLECULE
[[[5-(2-amino-6-oxo-7,8-dihydro-1~{H}-purin-8-ylium-9-yl)-3,4-dihydroxy-tetrahydrofuran-2-yl]methoxy-oxido-phosphoryl]oxy-hydroxy-phosphoryl] phosphate
   46    48     1     0     0
SMALL
USER_CHARGES

@<TRIPOS>ATOM
      1 PG          2.6126   -1.3001   -8.4167 P.3       1 GTP        -1.1921
      2 O1G         2.3607   -2.7471   -8.8277 O.co2     1 GTP         0.3195
      3 O2G         4.0686   -0.8607   -8.5321 O.co2     1 GTP         0.3195
      4 O3G         1.6105   -0.3012   -8.9860 O.co2     1 GTP         0.3195
      5 O3B         2.3244   -1.2853   -6.7937 O.3       1 GTP         0.4672
      6 PB          0.9846   -1.6434   -5.9612 P.3       1 GTP        -0.9715
      7 O1B        -0.2082   -0.7950   -6.2900 O.2       1 GTP         0.2707
      8 O2B         0.7948   -3.2247   -6.2400 O.3       1 GTP         0.0326
      9 O3A         1.4724   -1.5874   -4.4222 O.3       1 GTP         0.4672
     10 PA          2.8575   -2.1002   -3.7283 P.3       1 GTP        -1.1062
     11 O1A         2.9055   -3.6102   -3.8147 O.co2     1 GTP         0.3195
     12 O2A         3.9974   -1.2500   -4.2452 O.co2     1 GTP         0.3195
     13 O5'         2.5245   -1.6648   -2.1878 O.3       1 GTP         0.1618
     14 C5'         2.2816   -0.2918   -1.9206 C.3       1 GTP         0.1504
     15 C4'         2.7248    0.0226   -0.4980 C.3       1 GTP         0.1111
     16 O4'         2.4697    1.4219   -0.2462 O.3       1 GTP        -0.1436
     17 C3'         1.9404   -0.7419    0.5596 C.3       1 GTP         0.1111
     18 O3'         2.7418   -0.8086    1.7389 O.3       1 GTP        -0.2728
     19 C2'         0.7477    0.1630    0.7858 C.3       1 GTP         0.1111
     20 O2'         0.1373   -0.0577    2.0407 O.3       1 GTP        -0.2728
     21 C1'         1.3733    1.5427    0.6747 C.3       1 GTP         0.2693
     22 N9          0.4520    2.5240    0.1767 N.pl3     1 GTP        -0.3222
     23 C8          0.5671    3.2221   -0.9473 C.ar      1 GTP         0.1640
     24 N7         -0.4560    4.0508   -1.1290 N.pl3     1 GTP        -0.3688
     25 C5         -1.2671    3.8585   -0.0441 C.ar      1 GTP         0.0648
     26 C6         -2.5318    4.5014    0.2817 C.ar      1 GTP         0.3597
     27 O6         -3.0527    5.3493   -0.4293 O.2       1 GTP        -0.2755
     28 N1         -3.0357    4.0149    1.4868 N.pl3     1 GTP        -0.1604
     29 C2         -2.4069    3.0373    2.2768 C.ar      1 GTP         0.4468
     30 N2         -3.0679    2.6964    3.4278 N.pl3     1 GTP        -0.5618
     31 N3         -1.2653    2.4872    1.9379 N.2       1 GTP        -0.4283
     32 C4         -0.7342    2.9334    0.7643 C.ar      1 GTP         0.2226
     33 HOB2        0.5950   -3.5244   -7.1524 H         1 GTP         0.2010
     34 H5'         2.8432    0.3119   -2.6398 H         1 GTP        -0.0393
     35 H5''        1.2128   -0.0927   -2.0428 H         1 GTP        -0.0393
     36 H4'         3.8044   -0.1397   -0.4040 H         1 GTP        -0.0393
     37 H3'         1.6764   -1.7639    0.2728 H         1 GTP        -0.0393
     38 HO3'        2.2232   -1.2979    2.3953 H         1 GTP         0.2010
     39 H2'        -0.0011    0.0027    0.0003 H         1 GTP        -0.0393
     40 HO2'       -0.6141    0.5574    2.1082 H         1 GTP         0.2010
     41 H1'         1.7826    1.9024    1.6451 H         1 GTP        -0.0393
     42 H8          1.3888    3.1325   -1.6361 H         1 GTP         0.0000
     43 HN1        -3.9188    4.3932    1.8170 H         1 GTP         0.0865
     44 HN21       -2.6609    2.0087    4.0186 H         1 GTP         0.2048
     45 HN22       -3.9293    3.1496    3.6283 H         1 GTP         0.2048
     46 H46        -0.5938    4.6820   -1.9060 H         1 GTP         0.2048
@<TRIPOS>BOND
     1    1    2 2
     2    1    3 1
     3    1    4 1
     4    1    5 1
     5    5    6 1
     6    6    7 2
     7    6    8 1
     8    6    9 1
     9    8   33 1
    10    9   10 1
    11   10   11 2
    12   10   12 1
    13   10   13 1
    14   13   14 1
    15   14   15 1
    16   14   34 1
    17   14   35 1
    18   15   16 1
    19   15   17 1
    20   15   36 1
    21   16   21 1
    22   17   18 1
    23   17   19 1
    24   17   37 1
    25   18   38 1
    26   19   20 1
    27   19   21 1
    28   19   39 1
    29   20   40 1
    30   21   22 1
    31   21   41 1
    32   22   23 ar
    33   22   32 ar
    34   23   24 ar
    35   23   42 1
    36   24   25 ar
    37   24   46 1
    38   25   26 ar
    39   25   32 ar
    40   26   27 2
    41   26   28 ar
    42   28   29 ar
    43   28   43 1
    44   29   30 1
    45   29   31 ar
    46   30   44 1
    47   30   45 1
    48   31   32 ar
@<TRIPOS>SUBSTRUCTURE
     1 GTP         1 GROUP 0 A     ****
@<TRIPOS>MOLECULE
[[[5-(2-amino-6-oxo-7,8-dihydro-1~{H}-purin-8-ylium-9-yl)-3,4-dihydroxy-tetrahydrofuran-2-yl]methoxy-oxido-phosphoryl]oxy-hydroxy-phosphoryl] phosphate
   46    48     1     0     0
SMALL
USER_CHARGES

@<TRIPOS>ATOM
      1 PG          3.4795   -7.8590    6.1882 P.3       1 GTP        -1.1921
      2 O1G         4.4840   -6.7673    6.5424 O.co2     1 GTP         0.3195
      3 O2G         4.0346   -8.9490    5.2771 O.co2     1 GTP         0.3195
      4 O3G         2.6767   -8.3836    7.3741 O.co2     1 GTP         0.3195
      5 O3B         2.3633   -7.0914    5.2490 O.3       1 GTP         0.4672
      6 PB          1.3957   -5.8380    5.5791 P.3       1 GTP        -0.9715
      7 O1B         0.4447   -6.0581    6.7183 O.2       1 GTP         0.2707
      8 O2B         2.4374   -4.6188    5.7859 O.3       1 GTP         0.0326
      9 O3A         0.7077   -5.5092    4.1550 O.3       1 GTP         0.4672
     10 PA         -0.5433   -6.2250    3.3899 P.3       1 GTP        -1.1062
     11 O1A        -0.1278   -7.6273    3.0018 O.co2     1 GTP         0.3195
     12 O2A        -1.8027   -5.9752    4.1906 O.co2     1 GTP         0.3195
     13 O5'        -0.5687   -5.2869    2.0510 O.3       1 GTP         0.1618
     14 C5'        -0.7840   -3.8935    2.2172 C.3       1 GTP         0.1504
     15 C4'        -0.0724   -3.1466    1.1027 C.3       1 GTP         0.1111
     16 O4'        -0.8674   -3.1929   -0.0945 O.3       1 GTP        -0.1436
     17 C3'         0.1338   -1.6715    1.4027 C.3       1 GTP         0.1111
     18 O3'         1.2893   -1.4445    2.1808 O.3       1 GTP        -0.2728
     19 C2'         0.2158   -1.0724    0.0128 C.3       1 GTP         0.1111
     20 O2'         1.5141   -1.2448   -0.5513 O.3       1 GTP        -0.2728
     21 C1'        -0.7897   -1.9176   -0.7583 C.3       1 GTP         0.2693
     22 N9         -2.1040   -1.3333   -0.7704 N.pl3     1 GTP        -0.3222
     23 C8         -3.0597   -1.5109    0.1345 C.ar      1 GTP         0.1640
     24 N7         -4.1618   -0.8291   -0.1607 N.pl3     1 GTP        -0.3688
     25 C5         -3.8764   -0.1805   -1.3310 C.ar      1 GTP         0.0648
     26 C6         -4.7187    0.7111   -2.1152 C.ar      1 GTP         0.3597
     27 O6         -5.8617    1.0043   -1.7939 O.2       1 GTP        -0.2755
     28 N1         -4.0405    1.1608   -3.2468 N.pl3     1 GTP        -0.1604
     29 C2         -2.7239    0.8013   -3.5822 C.ar      1 GTP         0.4468
     30 N2         -2.2399    1.3534   -4.7394 N.pl3     1 GTP        -0.5618
     31 N3         -2.0053   -0.0071   -2.8402 N.2       1 GTP        -0.4283
     32 C4         -2.6290   -0.4727   -1.7210 C.ar      1 GTP         0.2226
     33 HOB2        2.0861   -3.7124    5.9171 H         1 GTP         0.2010
     34 H5'        -1.8598   -3.6968    2.1850 H         1 GTP        -0.0393
     35 H5''       -0.3933   -3.5903    3.1931 H         1 GTP        -0.0393
     36 H4'         0.8874   -3.6466    0.8805 H         1 GTP        -0.0393
     37 H3'        -0.7376   -1.2333    1.9867 H         1 GTP        -0.0393
     38 HO3'        1.1626   -1.9325    3.0084 H         1 GTP         0.2010
     39 H2'        -0.0384   -0.0310    0.0096 H         1 GTP        -0.0393
     40 HO2'        2.1463   -0.7958    0.0370 H         1 GTP         0.2010
     41 H1'        -0.4769   -2.1002   -1.8093 H         1 GTP        -0.0393
     42 H8         -2.9610   -2.1316    1.0079 H         1 GTP         0.0000
     43 HN1        -4.5320    1.7923   -3.8726 H         1 GTP         0.0865
     44 HN21       -1.3128    1.1277   -5.0171 H         1 GTP         0.2048
     45 HN22       -2.8342    1.9586   -5.2572 H         1 GTP         0.2048
     46 H46        -5.0195   -0.8034    0.3729 H         1 GTP         0.2048
@<TRIPOS>BOND
     1    1    2 2
     2    1    3 1
     3    1    4 1
     4    1    5 1
     5    5    6 1
     6    6    7 2
     7    6    8 1
     8    6    9 1
     9    8   33 1
    10    9   10 1
    11   10   11 2
    12   10   12 1
    13   10   13 1
    14   13   14 1
    15   14   15 1
    16   14   34 1
    17   14   35 1
    18   15   16 1
    19   15   17 1
    20   15   36 1
    21   16   21 1
    22   17   18 1
    23   17   19 1
    24   17   37 1
    25   18   38 1
    26   19   20 1
    27   19   21 1
    28   19   39 1
    29   20   40 1
    30   21   22 1
    31   21   41 1
    32   22   23 ar
    33   22   32 ar
    34   23   24 ar
    35   23   42 1
    36   24   25 ar
    37   24   46 1
    38   25   26 ar
    39   25   32 ar
    40   26   27 2
    41   26   28 ar
    42   28   29 ar
    43   28   43 1
    44   29   30 1
    45   29   31 ar
    46   30   44 1
    47   30   45 1
    48   31   32 ar
@<TRIPOS>SUBSTRUCTURE
     1 GTP         1 GROUP 0 A     ****
@<TRIPOS>MOLECULE
[[[5-(2-amino-6-oxo-7,8-dihydro-1~{H}-purin-8-ylium-9-yl)-3,4-dihydroxy-tetrahydrofuran-2-yl]methoxy-oxido-phosphoryl]oxy-hydroxy-phosphoryl] phosphate
   46    48     1     0     0
SMALL
USER_CHARGES

@<TRIPOS>ATOM
      1 PG          6.9935   -1.7829   -0.2914 P.3       1 GTP        -1.1921
      2 O1G         6.4781   -0.9839    0.9011 O.co2     1 GTP         0.3195
      3 O2G         8.3716   -2.4019   -0.0819 O.co2     1 GTP         0.3195
      4 O3G         5.9679   -2.7316   -0.9032 O.co2     1 GTP         0.3195
      5 O3B         7.2452   -0.6476   -1.4598 O.3       1 GTP         0.4672
      6 PB          6.2152    0.3816   -2.1641 P.3       1 GTP        -0.9715
      7 O1B         5.5408    1.3394   -1.2268 O.2       1 GTP         0.2707
      8 O2B         7.1198    1.0732   -3.3119 O.3       1 GTP         0.0326
      9 O3A         5.2259   -0.5873   -2.9958 O.3       1 GTP         0.4672
     10 PA          3.9458   -0.2356   -3.9447 P.3       1 GTP        -1.1062
     11 O1A         4.3826    0.7757   -4.9821 O.co2     1 GTP         0.3195
     12 O2A         3.2762   -1.5312   -4.3480 O.co2     1 GTP         0.3195
     13 O5'         3.0213    0.5153   -2.8245 O.3       1 GTP         0.1618
     14 C5'         2.2816   -0.2918   -1.9206 C.3       1 GTP         0.1504
     15 C4'         2.7248    0.0226   -0.4980 C.3       1 GTP         0.1111
     16 O4'         2.4697    1.4219   -0.2462 O.3       1 GTP        -0.1436
     17 C3'         1.9404   -0.7419    0.5596 C.3       1 GTP         0.1111
     18 O3'         2.7418   -0.8086    1.7389 O.3       1 GTP        -0.2728
     19 C2'         0.7477    0.1630    0.7858 C.3       1 GTP         0.1111
     20 O2'         0.1373   -0.0577    2.0407 O.3       1 GTP        -0.2728
     21 C1'         1.3733    1.5427    0.6747 C.3       1 GTP         0.2693
     22 N9          0.4520    2.5240    0.1767 N.pl3     1 GTP        -0.3222
     23 C8          0.5671    3.2221   -0.9473 C.ar      1 GTP         0.1640
     24 N7         -0.4560    4.0508   -1.1290 N.pl3     1 GTP        -0.3688
     25 C5         -1.2671    3.8585   -0.0441 C.ar      1 GTP         0.0648
     26 C6         -2.5318    4.5014    0.2817 C.ar      1 GTP         0.3597
     27 O6         -3.0527    5.3493   -0.4293 O.2       1 GTP        -0.2755
     28 N1         -3.0357    4.0149    1.4868 N.pl3     1 GTP        -0.1604
     29 C2         -2.4069    3.0373    2.2768 C.ar      1 GTP         0.4468
     30 N2         -3.0679    2.6964    3.4278 N.pl3     1 GTP        -0.5618
     31 N3         -1.2653    2.4872    1.9379 N.2       1 GTP        -0.4283
     32 C4         -0.7342    2.9334    0.7643 C.ar      1 GTP         0.2226
     33 HOB2        6.6928    1.6887   -3.9452 H         1 GTP         0.2010
     34 H5'         1.2163   -0.0770   -2.0471 H         1 GTP        -0.0393
     35 H5''        2.4655   -1.3443   -2.1563 H         1 GTP        -0.0393
     36 H4'         3.8044   -0.1397   -0.4040 H         1 GTP        -0.0393
     37 H3'         1.6764   -1.7639    0.2728 H         1 GTP        -0.0393
     38 HO3'        2.2232   -1.2979    2.3953 H         1 GTP         0.2010
     39 H2'        -0.0011    0.0027    0.0003 H         1 GTP        -0.0393
     40 HO2'       -0.1563   -0.9855    2.0596 H         1 GTP         0.2010
     41 H1'         1.7826    1.9024    1.6451 H         1 GTP        -0.0393
     42 H8          1.3888    3.1325   -1.6361 H         1 GTP         0.0000
     43 HN1        -3.9188    4.3932    1.8170 H         1 GTP         0.0865
     44 HN21       -2.6609    2.0087    4.0186 H         1 GTP         0.2048
     45 HN22       -3.9293    3.1496    3.6283 H         1 GTP         0.2048
     46 H46        -0.5938    4.6820   -1.9060 H         1 GTP         0.2048
@<TRIPOS>BOND
     1    1    2 2
     2    1    3 1
     3    1    4 1
     4    1    5 1
     5    5    6 1
     6    6    7 2
     7    6    8 1
     8    6    9 1
     9    8   33 1
    10    9   10 1
    11   10   11 2
    12   10   12 1
    13   10   13 1
    14   13   14 1
    15   14   15 1
    16   14   34 1
    17   14   35 1
    18   15   16 1
    19   15   17 1
    20   15   36 1
    21   16   21 1
    22   17   18 1
    23   17   19 1
    24   17   37 1
    25   18   38 1
    26   19   20 1
    27   19   21 1
    28   19   39 1
    29   20   40 1
    30   21   22 1
    31   21   41 1
    32   22   23 ar
    33   22   32 ar
    34   23   24 ar
    35   23   42 1
    36   24   25 ar
    37   24   46 1
    38   25   26 ar
    39   25   32 ar
    40   26   27 2
    41   26   28 ar
    42   28   29 ar
    43   28   43 1
    44   29   30 1
    45   29   31 ar
    46   30   44 1
    47   30   45 1
    48   31   32 ar
@<TRIPOS>SUBSTRUCTURE
     1 GTP         1 GROUP 0 A     ****
@<TRIPOS>MOLECULE
[[[5-(2-amino-6-oxo-7,8-dihydro-1~{H}-purin-8-ylium-9-yl)-3,4-dihydroxy-tetrahydrofuran-2-yl]methoxy-oxido-phosphoryl]oxy-hydroxy-phosphoryl] phosphate
   46    48     1     0     0
SMALL
USER_CHARGES

@<TRIPOS>ATOM
      1 PG         -1.0696   -5.1275    7.3694 P.3       1 GTP        -1.1921
      2 O1G         0.0970   -4.4050    8.0352 O.co2     1 GTP         0.3195
      3 O2G        -2.1151   -5.6596    8.3441 O.co2     1 GTP         0.3195
      4 O3G        -1.6524   -4.4010    6.1617 O.co2     1 GTP         0.3195
      5 O3B        -0.3920   -6.4904    6.7361 O.3       1 GTP         0.4672
      6 PB          0.7837   -6.6671    5.6393 P.3       1 GTP        -0.9715
      7 O1B         2.1009   -6.0603    6.0231 O.2       1 GTP         0.2707
      8 O2B         0.8143   -8.2648    5.3932 O.3       1 GTP         0.0326
      9 O3A         0.1225   -6.0890    4.2836 O.3       1 GTP         0.4672
     10 PA          0.7354   -5.9544    2.7772 P.3       1 GTP        -1.1062
     11 O1A         1.8573   -4.9394    2.8060 O.co2     1 GTP         0.3195
     12 O2A         0.9516   -7.3446    2.2203 O.co2     1 GTP         0.3195
     13 O5'        -0.5687   -5.2869    2.0510 O.3       1 GTP         0.1618
     14 C5'        -0.7840   -3.8935    2.2172 C.3       1 GTP         0.1504
     15 C4'        -0.0724   -3.1466    1.1027 C.3       1 GTP         0.1111
     16 O4'        -0.8674   -3.1929   -0.0945 O.3       1 GTP        -0.1436
     17 C3'         0.1338   -1.6715    1.4027 C.3       1 GTP         0.1111
     18 O3'         1.2893   -1.4445    2.1808 O.3       1 GTP        -0.2728
     19 C2'         0.2158   -1.0724    0.0128 C.3       1 GTP         0.1111
     20 O2'         1.5141   -1.2448   -0.5513 O.3       1 GTP        -0.2728
     21 C1'        -0.7897   -1.9176   -0.7583 C.3       1 GTP         0.2693
     22 N9         -2.1040   -1.3333   -0.7704 N.pl3     1 GTP        -0.3222
     23 C8         -3.0597   -1.5109    0.1345 C.ar      1 GTP         0.1640
     24 N7         -4.1618   -0.8291   -0.1607 N.pl3     1 GTP        -0.3688
     25 C5         -3.8764   -0.1805   -1.3310 C.ar      1 GTP         0.0648
     26 C6         -4.7187    0.7111   -2.1152 C.ar      1 GTP         0.3597
     27 O6         -5.8617    1.0043   -1.7939 O.2       1 GTP        -0.2755
     28 N1         -4.0405    1.1608   -3.2468 N.pl3     1 GTP        -0.1604
     29 C2         -2.7239    0.8013   -3.5822 C.ar      1 GTP         0.4468
     30 N2         -2.2399    1.3534   -4.7394 N.pl3     1 GTP        -0.5618
     31 N3         -2.0053   -0.0071   -2.8402 N.2       1 GTP        -0.4283
     32 C4         -2.6290   -0.4727   -1.7210 C.ar      1 GTP         0.2226
     33 HOB2        1.3999   -8.6254    4.6937 H         1 GTP         0.2010
     34 H5'        -1.8598   -3.6968    2.1850 H         1 GTP        -0.0393
     35 H5''       -0.3933   -3.5903    3.1931 H         1 GTP        -0.0393
     36 H4'         0.8874   -3.6466    0.8805 H         1 GTP        -0.0393
     37 H3'        -0.7376   -1.2333    1.9867 H         1 GTP        -0.0393
     38 HO3'        1.3408   -0.4870    2.3219 H         1 GTP         0.2010
     39 H2'        -0.0384   -0.0310    0.0096 H         1 GTP        -0.0393
     40 HO2'        2.1463   -0.7958    0.0370 H         1 GTP         0.2010
     41 H1'        -0.4769   -2.1002   -1.8093 H         1 GTP        -0.0393
     42 H8         -2.9610   -2.1316    1.0079 H         1 GTP         0.0000
     43 HN1        -4.5320    1.7923   -3.8726 H         1 GTP         0.0865
     44 HN21       -1.3128    1.1277   -5.0171 H         1 GTP         0.2048
     45 HN22       -2.8342    1.9586   -5.2572 H         1 GTP         0.2048
     46 H46        -5.0195   -0.8034    0.3729 H         1 GTP         0.2048
@<TRIPOS>BOND
     1    1    2 2
     2    1    3 1
     3    1    4 1
     4    1    5 1
     5    5    6 1
     6    6    7 2
     7    6    8 1
     8    6    9 1
     9    8   33 1
    10    9   10 1
    11   10   11 2
    12   10   12 1
    13   10   13 1
    14   13   14 1
    15   14   15 1
    16   14   34 1
    17   14   35 1
    18   15   16 1
    19   15   17 1
    20   15   36 1
    21   16   21 1
    22   17   18 1
    23   17   19 1
    24   17   37 1
    25   18   38 1
    26   19   20 1
    27   19   21 1
    28   19   39 1
    29   20   40 1
    30   21   22 1
    31   21   41 1
    32   22   23 ar
    33   22   32 ar
    34   23   24 ar
    35   23   42 1
    36   24   25 ar
    37   24   46 1
    38   25   26 ar
    39   25   32 ar
    40   26   27 2
    41   26   28 ar
    42   28   29 ar
    43   28   43 1
    44   29   30 1
    45   29   31 ar
    46   30   44 1
    47   30   45 1
    48   31   32 ar
@<TRIPOS>SUBSTRUCTURE
     1 GTP         1 GROUP 0 A     ****
@<TRIPOS>MOLECULE
[[[5-(2-amino-6-oxo-7,8-dihydro-1~{H}-purin-8-ylium-9-yl)-3,4-dihydroxy-tetrahydrofuran-2-yl]methoxy-oxido-phosphoryl]oxy-hydroxy-phosphoryl] phosphate
   46    48     1     0     0
SMALL
USER_CHARGES

@<TRIPOS>ATOM
      1 PG          7.1279    2.1392    0.1855 P.3       1 GTP        -1.1921
      2 O1G         8.1816    2.8800   -0.6312 O.co2     1 GTP         0.3195
      3 O2G         7.4646    2.0044    1.6670 O.co2     1 GTP         0.3195
      4 O3G         5.6938    2.5775   -0.0928 O.co2     1 GTP         0.3195
      5 O3B         7.1963    0.5910   -0.3764 O.3       1 GTP         0.4672
      6 PB          6.9478    0.0003   -1.8615 P.3       1 GTP        -0.9715
      7 O1B         7.8683    0.5385   -2.9167 O.2       1 GTP         0.2707
      8 O2B         7.0299   -1.5986   -1.6354 O.3       1 GTP         0.0326
      9 O3A         5.3743    0.2656   -2.1128 O.3       1 GTP         0.4672
     10 PA          4.4330   -0.0741   -3.4017 P.3       1 GTP        -1.1062
     11 O1A         4.8864    0.7820   -4.5642 O.co2     1 GTP         0.3195
     12 O2A         4.3223   -1.5774   -3.5332 O.co2     1 GTP         0.3195
     13 O5'         3.0213    0.5153   -2.8245 O.3       1 GTP         0.1618
     14 C5'         2.2816   -0.2918   -1.9206 C.3       1 GTP         0.1504
     15 C4'         2.7248    0.0226   -0.4980 C.3       1 GTP         0.1111
     16 O4'         2.4697    1.4219   -0.2462 O.3       1 GTP        -0.1436
     17 C3'         1.9404   -0.7419    0.5596 C.3       1 GTP         0.1111
     18 O3'         2.7418   -0.8086    1.7389 O.3       1 GTP        -0.2728
     19 C2'         0.7477    0.1630    0.7858 C.3       1 GTP         0.1111
     20 O2'         0.1373   -0.0577    2.0407 O.3       1 GTP        -0.2728
     21 C1'         1.3733    1.5427    0.6747 C.3       1 GTP         0.2693
     22 N9          0.4520    2.5240    0.1767 N.pl3     1 GTP        -0.3222
     23 C8          0.5671    3.2221   -0.9473 C.ar      1 GTP         0.1640
     24 N7         -0.4560    4.0508   -1.1290 N.pl3     1 GTP        -0.3688
     25 C5         -1.2671    3.8585   -0.0441 C.ar      1 GTP         0.0648
     26 C6         -2.5318    4.5014    0.2817 C.ar      1 GTP         0.3597
     27 O6         -3.0527    5.3493   -0.4293 O.2       1 GTP        -0.2755
     28 N1         -3.0357    4.0149    1.4868 N.pl3     1 GTP        -0.1604
     29 C2         -2.4069    3.0373    2.2768 C.ar      1 GTP         0.4468
     30 N2         -3.0679    2.6964    3.4278 N.pl3     1 GTP        -0.5618
     31 N3         -1.2653    2.4872    1.9379 N.2       1 GTP        -0.4283
     32 C4         -0.7342    2.9334    0.7643 C.ar      1 GTP         0.2226
     33 HOB2        6.8253   -2.1946   -2.3872 H         1 GTP         0.2010
     34 H5'         1.2163   -0.0770   -2.0471 H         1 GTP        -0.0393
     35 H5''        2.4655   -1.3443   -2.1563 H         1 GTP        -0.0393
     36 H4'         3.8044   -0.1397   -0.4040 H         1 GTP        -0.0393
     37 H3'         1.6764   -1.7639    0.2728 H         1 GTP        -0.0393
     38 HO3'        2.2232   -1.2979    2.3953 H         1 GTP         0.2010
     39 H2'        -0.0011    0.0027    0.0003 H         1 GTP        -0.0393
     40 HO2'       -0.1563   -0.9855    2.0596 H         1 GTP         0.2010
     41 H1'         1.7826    1.9024    1.6451 H         1 GTP        -0.0393
     42 H8          1.3888    3.1325   -1.6361 H         1 GTP         0.0000
     43 HN1        -3.9188    4.3932    1.8170 H         1 GTP         0.0865
     44 HN21       -2.6609    2.0087    4.0186 H         1 GTP         0.2048
     45 HN22       -3.9293    3.1496    3.6283 H         1 GTP         0.2048
     46 H46        -0.5938    4.6820   -1.9060 H         1 GTP         0.2048
@<TRIPOS>BOND
     1    1    2 2
     2    1    3 1
     3    1    4 1
     4    1    5 1
     5    5    6 1
     6    6    7 2
     7    6    8 1
     8    6    9 1
     9    8   33 1
    10    9   10 1
    11   10   11 2
    12   10   12 1
    13   10   13 1
    14   13   14 1
    15   14   15 1
    16   14   34 1
    17   14   35 1
    18   15   16 1
    19   15   17 1
    20   15   36 1
    21   16   21 1
    22   17   18 1
    23   17   19 1
    24   17   37 1
    25   18   38 1
    26   19   20 1
    27   19   21 1
    28   19   39 1
    29   20   40 1
    30   21   22 1
    31   21   41 1
    32   22   23 ar
    33   22   32 ar
    34   23   24 ar
    35   23   42 1
    36   24   25 ar
    37   24   46 1
    38   25   26 ar
    39   25   32 ar
    40   26   27 2
    41   26   28 ar
    42   28   29 ar
    43   28   43 1
    44   29   30 1
    45   29   31 ar
    46   30   44 1
    47   30   45 1
    48   31   32 ar
@<TRIPOS>SUBSTRUCTURE
     1 GTP         1 GROUP 0 A     ****
@<TRIPOS>MOLECULE
[[[5-(2-amino-6-oxo-7,8-dihydro-1~{H}-purin-8-ylium-9-yl)-3,4-dihydroxy-tetrahydrofuran-2-yl]methoxy-oxido-phosphoryl]oxy-hydroxy-phosphoryl] phosphate
   46    48     1     0     0
SMALL
USER_CHARGES

@<TRIPOS>ATOM
      1 PG          2.2992   -1.8517   -7.5241 P.3       1 GTP        -1.1921
      2 O1G         2.7230   -3.2114   -8.0700 O.co2     1 GTP         0.3195
      3 O2G         1.9179   -0.8372   -8.5972 O.co2     1 GTP         0.3195
      4 O3G         1.3242   -1.9204   -6.3533 O.co2     1 GTP         0.3195
      5 O3B         3.6789   -1.2319   -6.8686 O.3       1 GTP         0.4672
      6 PB          4.6217   -1.7929   -5.6800 P.3       1 GTP        -0.9715
      7 O1B         5.2213   -3.1442   -5.9350 O.2       1 GTP         0.2707
      8 O2B         5.6925   -0.5996   -5.4712 O.3       1 GTP         0.0326
      9 O3A         3.6796   -1.6878   -4.3720 O.3       1 GTP         0.4672
     10 PA          3.9759   -2.0799   -2.8160 P.3       1 GTP        -1.1062
     11 O1A         4.1420   -3.5811   -2.7241 O.co2     1 GTP         0.3195
     12 O2A         5.0329   -1.1410   -2.2767 O.co2     1 GTP         0.3195
     13 O5'         2.5245   -1.6648   -2.1878 O.3       1 GTP         0.1618
     14 C5'         2.2816   -0.2918   -1.9206 C.3       1 GTP         0.1504
     15 C4'         2.7248    0.0226   -0.4980 C.3       1 GTP         0.1111
     16 O4'         2.4697    1.4219   -0.2462 O.3       1 GTP        -0.1436
     17 C3'         1.9404   -0.7419    0.5596 C.3       1 GTP         0.1111
     18 O3'         2.7418   -0.8086    1.7389 O.3       1 GTP        -0.2728
     19 C2'         0.7477    0.1630    0.7858 C.3       1 GTP         0.1111
     20 O2'         0.1373   -0.0577    2.0407 O.3       1 GTP        -0.2728
     21 C1'         1.3733    1.5427    0.6747 C.3       1 GTP         0.2693
     22 N9          0.4520    2.5240    0.1767 N.pl3     1 GTP        -0.3222
     23 C8          0.5671    3.2221   -0.9473 C.ar      1 GTP         0.1640
     24 N7         -0.4560    4.0508   -1.1290 N.pl3     1 GTP        -0.3688
     25 C5         -1.2671    3.8585   -0.0441 C.ar      1 GTP         0.0648
     26 C6         -2.5318    4.5014    0.2817 C.ar      1 GTP         0.3597
     27 O6         -3.0527    5.3493   -0.4293 O.2       1 GTP        -0.2755
     28 N1         -3.0357    4.0149    1.4868 N.pl3     1 GTP        -0.1604
     29 C2         -2.4069    3.0373    2.2768 C.ar      1 GTP         0.4468
     30 N2         -3.0679    2.6964    3.4278 N.pl3     1 GTP        -0.5618
     31 N3         -1.2653    2.4872    1.9379 N.2       1 GTP        -0.4283
     32 C4         -0.7342    2.9334    0.7643 C.ar      1 GTP         0.2226
     33 HOB2        6.3356   -0.6637   -4.7332 H         1 GTP         0.2010
     34 H5'         2.8432    0.3119   -2.6398 H         1 GTP        -0.0393
     35 H5''        1.2128   -0.0927   -2.0428 H         1 GTP        -0.0393
     36 H4'         3.8044   -0.1397   -0.4040 H         1 GTP        -0.0393
     37 H3'         1.6764   -1.7639    0.2728 H         1 GTP        -0.0393
     38 HO3'        2.2232   -1.2979    2.3953 H         1 GTP         0.2010
     39 H2'        -0.0011    0.0027    0.0003 H         1 GTP        -0.0393
     40 HO2'       -0.1563   -0.9855    2.0596 H         1 GTP         0.2010
     41 H1'         1.7826    1.9024    1.6451 H         1 GTP        -0.0393
     42 H8          1.3888    3.1325   -1.6361 H         1 GTP         0.0000
     43 HN1        -3.9188    4.3932    1.8170 H         1 GTP         0.0865
     44 HN21       -2.6609    2.0087    4.0186 H         1 GTP         0.2048
     45 HN22       -3.9293    3.1496    3.6283 H         1 GTP         0.2048
     46 H46        -0.5938    4.6820   -1.9060 H         1 GTP         0.2048
@<TRIPOS>BOND
     1    1    2 2
     2    1    3 1
     3    1    4 1
     4    1    5 1
     5    5    6 1
     6    6    7 2
     7    6    8 1
     8    6    9 1
     9    8   33 1
    10    9   10 1
    11   10   11 2
    12   10   12 1
    13   10   13 1
    14   13   14 1
    15   14   15 1
    16   14   34 1
    17   14   35 1
    18   15   16 1
    19   15   17 1
    20   15   36 1
    21   16   21 1
    22   17   18 1
    23   17   19 1
    24   17   37 1
    25   18   38 1
    26   19   20 1
    27   19   21 1
    28   19   39 1
    29   20   40 1
    30   21   22 1
    31   21   41 1
    32   22   23 ar
    33   22   32 ar
    34   23   24 ar
    35   23   42 1
    36   24   25 ar
    37   24   46 1
    38   25   26 ar
    39   25   32 ar
    40   26   27 2
    41   26   28 ar
    42   28   29 ar
    43   28   43 1
    44   29   30 1
    45   29   31 ar
    46   30   44 1
    47   30   45 1
    48   31   32 ar
@<TRIPOS>SUBSTRUCTURE
     1 GTP         1 GROUP 0 A     ****
@<TRIPOS>MOLECULE
[[[5-(2-amino-6-oxo-7,8-dihydro-1~{H}-purin-8-ylium-9-yl)-3,4-dihydroxy-tetrahydrofuran-2-yl]methoxy-oxido-phosphoryl]oxy-hydroxy-phosphoryl] phosphate
   46    48     1     0     0
SMALL
USER_CHARGES

@<TRIPOS>ATOM
      1 PG          0.9110   -2.4187   -7.9970 P.3       1 GTP        -1.1921
      2 O1G         2.1251   -2.4703   -8.9187 O.co2     1 GTP         0.3195
      3 O2G        -0.0610   -1.2843   -8.3047 O.co2     1 GTP         0.3195
      4 O3G         0.2423   -3.7692   -7.7618 O.co2     1 GTP         0.3195
      5 O3B         1.5369   -2.0132   -6.5269 O.3       1 GTP         0.4672
      6 PB          2.6280   -2.7710   -5.6042 P.3       1 GTP        -0.9715
      7 O1B         2.2405   -4.1562   -5.1778 O.2       1 GTP         0.2707
      8 O2B         3.9778   -2.6823   -6.4898 O.3       1 GTP         0.0326
      9 O3A         2.8955   -1.7248   -4.4028 O.3       1 GTP         0.4672
     10 PA          3.0383   -0.0994   -4.4226 P.3       1 GTP        -1.1062
     11 O1A         4.2986    0.2610   -5.1786 O.co2     1 GTP         0.3195
     12 O2A         1.7002    0.4960   -4.8028 O.co2     1 GTP         0.3195
     13 O5'         3.2903    0.1346   -2.8241 O.3       1 GTP         0.1618
     14 C5'         2.2816   -0.2918   -1.9206 C.3       1 GTP         0.1504
     15 C4'         2.7248    0.0226   -0.4980 C.3       1 GTP         0.1111
     16 O4'         2.4697    1.4219   -0.2462 O.3       1 GTP        -0.1436
     17 C3'         1.9404   -0.7419    0.5596 C.3       1 GTP         0.1111
     18 O3'         2.7418   -0.8086    1.7389 O.3       1 GTP        -0.2728
     19 C2'         0.7477    0.1630    0.7858 C.3       1 GTP         0.1111
     20 O2'         0.1373   -0.0577    2.0407 O.3       1 GTP        -0.2728
     21 C1'         1.3733    1.5427    0.6747 C.3       1 GTP         0.2693
     22 N9          0.4520    2.5240    0.1767 N.pl3     1 GTP        -0.3222
     23 C8         -0.8613    2.5511    0.3730 C.ar      1 GTP         0.1640
     24 N7         -1.4346    3.5939   -0.2188 N.pl3     1 GTP        -0.3688
     25 C5         -0.4099    4.2657   -0.8276 C.ar      1 GTP         0.0648
     26 C6         -0.4554    5.4854   -1.6209 C.ar      1 GTP         0.3597
     27 O6         -1.4907    6.0944   -1.8508 O.2       1 GTP        -0.2755
     28 N1          0.8205    5.8357   -2.0593 N.pl3     1 GTP        -0.1604
     29 C2          1.9890    5.1091   -1.7730 C.ar      1 GTP         0.4468
     30 N2          3.1452    5.6230   -2.2997 N.pl3     1 GTP        -0.5618
     31 N3          1.9765    4.0139   -1.0514 N.2       1 GTP        -0.4283
     32 C4          0.7480    3.6324   -0.6003 C.ar      1 GTP         0.2226
     33 HOB2        4.0158   -3.1613   -7.3450 H         1 GTP         0.2010
     34 H5'         1.3514    0.2330   -2.1577 H         1 GTP        -0.0393
     35 H5''        2.1280   -1.3678   -2.0460 H         1 GTP        -0.0393
     36 H4'         3.8044   -0.1397   -0.4040 H         1 GTP        -0.0393
     37 H3'         1.6764   -1.7639    0.2728 H         1 GTP        -0.0393
     38 HO3'        3.5554   -1.2733    1.4914 H         1 GTP         0.2010
     39 H2'        -0.0011    0.0027    0.0003 H         1 GTP        -0.0393
     40 HO2'       -0.1563   -0.9855    2.0596 H         1 GTP         0.2010
     41 H1'         1.7826    1.9024    1.6451 H         1 GTP        -0.0393
     42 H8         -1.4050    1.8187    0.9438 H         1 GTP         0.0000
     43 HN1         0.9121    6.6744   -2.6251 H         1 GTP         0.0865
     44 HN21        3.9971    5.1427   -2.1235 H         1 GTP         0.2048
     45 HN22        3.0881    6.4564   -2.8380 H         1 GTP         0.2048
     46 H46        -2.4173    3.8294   -0.2127 H         1 GTP         0.2048
@<TRIPOS>BOND
     1    1    2 2
     2    1    3 1
     3    1    4 1
     4    1    5 1
     5    5    6 1
     6    6    7 2
     7    6    8 1
     8    6    9 1
     9    8   33 1
    10    9   10 1
    11   10   11 2
    12   10   12 1
    13   10   13 1
    14   13   14 1
    15   14   15 1
    16   14   34 1
    17   14   35 1
    18   15   16 1
    19   15   17 1
    20   15   36 1
    21   16   21 1
    22   17   18 1
    23   17   19 1
    24   17   37 1
    25   18   38 1
    26   19   20 1
    27   19   21 1
    28   19   39 1
    29   20   40 1
    30   21   22 1
    31   21   41 1
    32   22   23 ar
    33   22   32 ar
    34   23   24 ar
    35   23   42 1
    36   24   25 ar
    37   24   46 1
    38   25   26 ar
    39   25   32 ar
    40   26   27 2
    41   26   28 ar
    42   28   29 ar
    43   28   43 1
    44   29   30 1
    45   29   31 ar
    46   30   44 1
    47   30   45 1
    48   31   32 ar
@<TRIPOS>SUBSTRUCTURE
     1 GTP         1 GROUP 0 A     ****
@<TRIPOS>MOLECULE
[[[5-(2-amino-6-oxo-7,8-dihydro-1~{H}-purin-8-ylium-9-yl)-3,4-dihydroxy-tetrahydrofuran-2-yl]methoxy-oxido-phosphoryl]oxy-hydroxy-phosphoryl] phosphate
   46    48     1     0     0
SMALL
USER_CHARGES

@<TRIPOS>ATOM
      1 PG         -2.6568   -8.2425    4.3753 P.3       1 GTP        -1.1921
      2 O1G        -3.8558   -7.3029    4.4513 O.co2     1 GTP         0.3195
      3 O2G        -2.9275   -9.6471    4.9047 O.co2     1 GTP         0.3195
      4 O3G        -1.9143   -8.2080    3.0435 O.co2     1 GTP         0.3195
      5 O3B        -1.5825   -7.6145    5.4564 O.3       1 GTP         0.4672
      6 PB         -0.8701   -6.1632    5.5076 P.3       1 GTP        -0.9715
      7 O1B        -1.8132   -5.0007    5.6053 O.2       1 GTP         0.2707
      8 O2B         0.1637   -6.3088    6.7421 O.3       1 GTP         0.0326
      9 O3A         0.0900   -6.1701    4.2085 O.3       1 GTP         0.4672
     10 PA          1.1060   -5.0301    3.6333 P.3       1 GTP        -1.1062
     11 O1A         2.0442   -4.6192    4.7472 O.co2     1 GTP         0.3195
     12 O2A         1.6365   -5.4911    2.2932 O.co2     1 GTP         0.3195
     13 O5'         0.0118   -3.8395    3.3916 O.3       1 GTP         0.1618
     14 C5'        -0.7840   -3.8935    2.2172 C.3       1 GTP         0.1504
     15 C4'        -0.0724   -3.1466    1.1027 C.3       1 GTP         0.1111
     16 O4'        -0.8674   -3.1929   -0.0945 O.3       1 GTP        -0.1436
     17 C3'         0.1338   -1.6715    1.4027 C.3       1 GTP         0.1111
     18 O3'         1.2893   -1.4445    2.1808 O.3       1 GTP        -0.2728
     19 C2'         0.2158   -1.0724    0.0128 C.3       1 GTP         0.1111
     20 O2'         1.5141   -1.2448   -0.5513 O.3       1 GTP        -0.2728
     21 C1'        -0.7897   -1.9176   -0.7583 C.3       1 GTP         0.2693
     22 N9         -2.1040   -1.3333   -0.7704 N.pl3     1 GTP        -0.3222
     23 C8         -3.0597   -1.5109    0.1345 C.ar      1 GTP         0.1640
     24 N7         -4.1618   -0.8291   -0.1607 N.pl3     1 GTP        -0.3688
     25 C5         -3.8764   -0.1805   -1.3310 C.ar      1 GTP         0.0648
     26 C6         -4.7187    0.7111   -2.1152 C.ar      1 GTP         0.3597
     27 O6         -5.8617    1.0043   -1.7939 O.2       1 GTP        -0.2755
     28 N1         -4.0405    1.1608   -3.2468 N.pl3     1 GTP        -0.1604
     29 C2         -2.7239    0.8013   -3.5822 C.ar      1 GTP         0.4468
     30 N2         -2.2399    1.3534   -4.7394 N.pl3     1 GTP        -0.5618
     31 N3         -2.0053   -0.0071   -2.8402 N.2       1 GTP        -0.4283
     32 C4         -2.6290   -0.4727   -1.7210 C.ar      1 GTP         0.2226
     33 HOB2        0.7871   -5.5744    6.9274 H         1 GTP         0.2010
     34 H5'        -0.9348   -4.9415    1.9415 H         1 GTP        -0.0393
     35 H5''       -1.7548   -3.4350    2.4278 H         1 GTP        -0.0393
     36 H4'         0.8874   -3.6466    0.8805 H         1 GTP        -0.0393
     37 H3'        -0.7376   -1.2333    1.9867 H         1 GTP        -0.0393
     38 HO3'        1.3408   -0.4870    2.3219 H         1 GTP         0.2010
     39 H2'        -0.0384   -0.0310    0.0096 H         1 GTP        -0.0393
     40 HO2'        2.1463   -0.7958    0.0370 H         1 GTP         0.2010
     41 H1'        -0.4769   -2.1002   -1.8093 H         1 GTP        -0.0393
     42 H8         -2.9610   -2.1316    1.0079 H         1 GTP         0.0000
     43 HN1        -4.5320    1.7923   -3.8726 H         1 GTP         0.0865
     44 HN21       -1.3128    1.1277   -5.0171 H         1 GTP         0.2048
     45 HN22       -2.8342    1.9586   -5.2572 H         1 GTP         0.2048
     46 H46        -5.0195   -0.8034    0.3729 H         1 GTP         0.2048
@<TRIPOS>BOND
     1    1    2 2
     2    1    3 1
     3    1    4 1
     4    1    5 1
     5    5    6 1
     6    6    7 2
     7    6    8 1
     8    6    9 1
     9    8   33 1
    10    9   10 1
    11   10   11 2
    12   10   12 1
    13   10   13 1
    14   13   14 1
    15   14   15 1
    16   14   34 1
    17   14   35 1
    18   15   16 1
    19   15   17 1
    20   15   36 1
    21   16   21 1
    22   17   18 1
    23   17   19 1
    24   17   37 1
    25   18   38 1
    26   19   20 1
    27   19   21 1
    28   19   39 1
    29   20   40 1
    30   21   22 1
    31   21   41 1
    32   22   23 ar
    33   22   32 ar
    34   23   24 ar
    35   23   42 1
    36   24   25 ar
    37   24   46 1
    38   25   26 ar
    39   25   32 ar
    40   26   27 2
    41   26   28 ar
    42   28   29 ar
    43   28   43 1
    44   29   30 1
    45   29   31 ar
    46   30   44 1
    47   30   45 1
    48   31   32 ar
@<TRIPOS>SUBSTRUCTURE
     1 GTP         1 GROUP 0 A     ****
@<TRIPOS>MOLECULE
[[[5-(2-amino-6-oxo-7,8-dihydro-1~{H}-purin-8-ylium-9-yl)-3,4-dihydroxy-tetrahydrofuran-2-yl]methoxy-oxido-phosphoryl]oxy-hydroxy-phosphoryl] phosphate
   46    48     1     0     0
SMALL
USER_CHARGES

@<TRIPOS>ATOM
      1 PG          2.4788   -5.7458   -2.2275 P.3       1 GTP        -1.1921
      2 O1G         2.5990   -7.1894   -2.7048 O.co2     1 GTP         0.3195
      3 O2G         3.3649   -4.7607   -2.9829 O.co2     1 GTP         0.3195
      4 O3G         1.0448   -5.2683   -2.0234 O.co2     1 GTP         0.3195
      5 O3B         3.1202   -5.7678   -0.7090 O.3       1 GTP         0.4672
      6 PB          2.6755   -6.5958    0.6074 P.3       1 GTP        -0.9715
      7 O1B         2.7081   -8.0879    0.4551 O.2       1 GTP         0.2707
      8 O2B         3.6500   -6.0056    1.7547 O.3       1 GTP         0.0326
      9 O3A         1.2338   -5.9677    0.9770 O.3       1 GTP         0.4672
     10 PA          0.2005   -6.3223    2.1891 P.3       1 GTP        -1.1062
     11 O1A        -0.3307   -7.7223    1.9709 O.co2     1 GTP         0.3195
     12 O2A         0.8429   -5.9244    3.5001 O.co2     1 GTP         0.3195
     13 O5'        -0.9724   -5.2440    1.8220 O.3       1 GTP         0.1618
     14 C5'        -0.7840   -3.8935    2.2172 C.3       1 GTP         0.1504
     15 C4'        -0.0724   -3.1466    1.1027 C.3       1 GTP         0.1111
     16 O4'        -0.8674   -3.1929   -0.0945 O.3       1 GTP        -0.1436
     17 C3'         0.1338   -1.6715    1.4027 C.3       1 GTP         0.1111
     18 O3'         1.2893   -1.4445    2.1808 O.3       1 GTP        -0.2728
     19 C2'         0.2158   -1.0724    0.0128 C.3       1 GTP         0.1111
     20 O2'         1.5141   -1.2448   -0.5513 O.3       1 GTP        -0.2728
     21 C1'        -0.7897   -1.9176   -0.7583 C.3       1 GTP         0.2693
     22 N9         -2.1040   -1.3333   -0.7704 N.pl3     1 GTP        -0.3222
     23 C8         -3.0597   -1.5109    0.1345 C.ar      1 GTP         0.1640
     24 N7         -4.1618   -0.8291   -0.1607 N.pl3     1 GTP        -0.3688
     25 C5         -3.8764   -0.1805   -1.3310 C.ar      1 GTP         0.0648
     26 C6         -4.7187    0.7111   -2.1152 C.ar      1 GTP         0.3597
     27 O6         -5.8617    1.0043   -1.7939 O.2       1 GTP        -0.2755
     28 N1         -4.0405    1.1608   -3.2468 N.pl3     1 GTP        -0.1604
     29 C2         -2.7239    0.8013   -3.5822 C.ar      1 GTP         0.4468
     30 N2         -2.2399    1.3534   -4.7394 N.pl3     1 GTP        -0.5618
     31 N3         -2.0053   -0.0071   -2.8402 N.2       1 GTP        -0.4283
     32 C4         -2.6290   -0.4727   -1.7210 C.ar      1 GTP         0.2226
     33 HOB2        3.5178   -6.2936    2.6830 H         1 GTP         0.2010
     34 H5'        -1.7618   -3.4448    2.4164 H         1 GTP        -0.0393
     35 H5''       -0.1874   -3.8744    3.1341 H         1 GTP        -0.0393
     36 H4'         0.8874   -3.6466    0.8805 H         1 GTP        -0.0393
     37 H3'        -0.7376   -1.2333    1.9867 H         1 GTP        -0.0393
     38 HO3'        1.3408   -0.4870    2.3219 H         1 GTP         0.2010
     39 H2'        -0.0384   -0.0310    0.0096 H         1 GTP        -0.0393
     40 HO2'        2.1463   -0.7958    0.0370 H         1 GTP         0.2010
     41 H1'        -0.4769   -2.1002   -1.8093 H         1 GTP        -0.0393
     42 H8         -2.9610   -2.1316    1.0079 H         1 GTP         0.0000
     43 HN1        -4.5320    1.7923   -3.8726 H         1 GTP         0.0865
     44 HN21       -1.3128    1.1277   -5.0171 H         1 GTP         0.2048
     45 HN22       -2.8342    1.9586   -5.2572 H         1 GTP         0.2048
     46 H46        -5.0195   -0.8034    0.3729 H         1 GTP         0.2048
@<TRIPOS>BOND
     1    1    2 2
     2    1    3 1
     3    1    4 1
     4    1    5 1
     5    5    6 1
     6    6    7 2
     7    6    8 1
     8    6    9 1
     9    8   33 1
    10    9   10 1
    11   10   11 2
    12   10   12 1
    13   10   13 1
    14   13   14 1
    15   14   15 1
    16   14   34 1
    17   14   35 1
    18   15   16 1
    19   15   17 1
    20   15   36 1
    21   16   21 1
    22   17   18 1
    23   17   19 1
    24   17   37 1
    25   18   38 1
    26   19   20 1
    27   19   21 1
    28   19   39 1
    29   20   40 1
    30   21   22 1
    31   21   41 1
    32   22   23 ar
    33   22   32 ar
    34   23   24 ar
    35   23   42 1
    36   24   25 ar
    37   24   46 1
    38   25   26 ar
    39   25   32 ar
    40   26   27 2
    41   26   28 ar
    42   28   29 ar
    43   28   43 1
    44   29   30 1
    45   29   31 ar
    46   30   44 1
    47   30   45 1
    48   31   32 ar
@<TRIPOS>SUBSTRUCTURE
     1 GTP         1 GROUP 0 A     ****
@<TRIPOS>MOLECULE
[[[5-(2-amino-6-oxo-7,8-dihydro-1~{H}-purin-8-ylium-9-yl)-3,4-dihydroxy-tetrahydrofuran-2-yl]methoxy-oxido-phosphoryl]oxy-hydroxy-phosphoryl] phosphate
   46    48     1     0     0
SMALL
USER_CHARGES

@<TRIPOS>ATOM
      1 PG         -2.0729   -7.7564    6.3703 P.3       1 GTP        -1.1921
      2 O1G        -1.2497   -8.0237    7.6262 O.co2     1 GTP         0.3195
      3 O2G        -3.2942   -8.6574    6.2186 O.co2     1 GTP         0.3195
      4 O3G        -2.3466   -6.2806    6.1001 O.co2     1 GTP         0.3195
      5 O3B        -1.0856   -8.2200    5.1342 O.3       1 GTP         0.4672
      6 PB          0.3766   -7.6823    4.6991 P.3       1 GTP        -0.9715
      7 O1B         1.4401   -7.8288    5.7470 O.2       1 GTP         0.2707
      8 O2B         0.6619   -8.4788    3.3213 O.3       1 GTP         0.0326
      9 O3A         0.0900   -6.1701    4.2085 O.3       1 GTP         0.4672
     10 PA          1.1060   -5.0301    3.6333 P.3       1 GTP        -1.1062
     11 O1A         2.0442   -4.6192    4.7472 O.co2     1 GTP         0.3195
     12 O2A         1.6365   -5.4911    2.2932 O.co2     1 GTP         0.3195
     13 O5'         0.0118   -3.8395    3.3916 O.3       1 GTP         0.1618
     14 C5'        -0.7840   -3.8935    2.2172 C.3       1 GTP         0.1504
     15 C4'        -0.0724   -3.1466    1.1027 C.3       1 GTP         0.1111
     16 O4'        -0.8674   -3.1929   -0.0945 O.3       1 GTP        -0.1436
     17 C3'         0.1338   -1.6715    1.4027 C.3       1 GTP         0.1111
     18 O3'         1.2893   -1.4445    2.1808 O.3       1 GTP        -0.2728
     19 C2'         0.2158   -1.0724    0.0128 C.3       1 GTP         0.1111
     20 O2'         1.5141   -1.2448   -0.5513 O.3       1 GTP        -0.2728
     21 C1'        -0.7897   -1.9176   -0.7583 C.3       1 GTP         0.2693
     22 N9         -2.1040   -1.3333   -0.7704 N.pl3     1 GTP        -0.3222
     23 C8         -3.0597   -1.5109    0.1345 C.ar      1 GTP         0.1640
     24 N7         -4.1618   -0.8291   -0.1607 N.pl3     1 GTP        -0.3688
     25 C5         -3.8764   -0.1805   -1.3310 C.ar      1 GTP         0.0648
     26 C6         -4.7187    0.7111   -2.1152 C.ar      1 GTP         0.3597
     27 O6         -5.8617    1.0043   -1.7939 O.2       1 GTP        -0.2755
     28 N1         -4.0405    1.1608   -3.2468 N.pl3     1 GTP        -0.1604
     29 C2         -2.7239    0.8013   -3.5822 C.ar      1 GTP         0.4468
     30 N2         -2.2399    1.3534   -4.7394 N.pl3     1 GTP        -0.5618
     31 N3         -2.0053   -0.0071   -2.8402 N.2       1 GTP        -0.4283
     32 C4         -2.6290   -0.4727   -1.7210 C.ar      1 GTP         0.2226
     33 HOB2        1.4672   -8.2603    2.8057 H         1 GTP         0.2010
     34 H5'        -0.9348   -4.9415    1.9415 H         1 GTP        -0.0393
     35 H5''       -1.7548   -3.4350    2.4278 H         1 GTP        -0.0393
     36 H4'         0.8874   -3.6466    0.8805 H         1 GTP        -0.0393
     37 H3'        -0.7376   -1.2333    1.9867 H         1 GTP        -0.0393
     38 HO3'        1.1626   -1.9325    3.0084 H         1 GTP         0.2010
     39 H2'        -0.0384   -0.0310    0.0096 H         1 GTP        -0.0393
     40 HO2'        2.1463   -0.7958    0.0370 H         1 GTP         0.2010
     41 H1'        -0.4769   -2.1002   -1.8093 H         1 GTP        -0.0393
     42 H8         -2.9610   -2.1316    1.0079 H         1 GTP         0.0000
     43 HN1        -4.5320    1.7923   -3.8726 H         1 GTP         0.0865
     44 HN21       -1.3128    1.1277   -5.0171 H         1 GTP         0.2048
     45 HN22       -2.8342    1.9586   -5.2572 H         1 GTP         0.2048
     46 H46        -5.0195   -0.8034    0.3729 H         1 GTP         0.2048
@<TRIPOS>BOND
     1    1    2 2
     2    1    3 1
     3    1    4 1
     4    1    5 1
     5    5    6 1
     6    6    7 2
     7    6    8 1
     8    6    9 1
     9    8   33 1
    10    9   10 1
    11   10   11 2
    12   10   12 1
    13   10   13 1
    14   13   14 1
    15   14   15 1
    16   14   34 1
    17   14   35 1
    18   15   16 1
    19   15   17 1
    20   15   36 1
    21   16   21 1
    22   17   18 1
    23   17   19 1
    24   17   37 1
    25   18   38 1
    26   19   20 1
    27   19   21 1
    28   19   39 1
    29   20   40 1
    30   21   22 1
    31   21   41 1
    32   22   23 ar
    33   22   32 ar
    34   23   24 ar
    35   23   42 1
    36   24   25 ar
    37   24   46 1
    38   25   26 ar
    39   25   32 ar
    40   26   27 2
    41   26   28 ar
    42   28   29 ar
    43   28   43 1
    44   29   30 1
    45   29   31 ar
    46   30   44 1
    47   30   45 1
    48   31   32 ar
@<TRIPOS>SUBSTRUCTURE
     1 GTP         1 GROUP 0 A     ****
@<TRIPOS>MOLECULE
[[[5-(2-amino-6-oxo-7,8-dihydro-1~{H}-purin-8-ylium-9-yl)-3,4-dihydroxy-tetrahydrofuran-2-yl]methoxy-oxido-phosphoryl]oxy-hydroxy-phosphoryl] phosphate
   46    48     1     0     0
SMALL
USER_CHARGES

@<TRIPOS>ATOM
      1 PG          9.2589    1.1364   -3.3332 P.3       1 GTP        -1.1921
      2 O1G         9.7203    1.8946   -2.0928 O.co2     1 GTP         0.3195
      3 O2G         9.2494    1.9710   -4.6097 O.co2     1 GTP         0.3195
      4 O3G         9.8835   -0.2457   -3.4938 O.co2     1 GTP         0.3195
      5 O3B         7.6638    0.8316   -3.0500 O.3       1 GTP         0.4672
      6 PB          6.9478    0.0003   -1.8615 P.3       1 GTP        -0.9715
      7 O1B         7.3511   -1.4417   -1.7686 O.2       1 GTP         0.2707
      8 O2B         7.2755    0.8862   -0.5493 O.3       1 GTP         0.0326
      9 O3A         5.3743    0.2656   -2.1128 O.3       1 GTP         0.4672
     10 PA          4.4330   -0.0741   -3.4017 P.3       1 GTP        -1.1062
     11 O1A         4.8864    0.7820   -4.5642 O.co2     1 GTP         0.3195
     12 O2A         4.3223   -1.5774   -3.5332 O.co2     1 GTP         0.3195
     13 O5'         3.0213    0.5153   -2.8245 O.3       1 GTP         0.1618
     14 C5'         2.2816   -0.2918   -1.9206 C.3       1 GTP         0.1504
     15 C4'         2.7248    0.0226   -0.4980 C.3       1 GTP         0.1111
     16 O4'         2.4697    1.4219   -0.2462 O.3       1 GTP        -0.1436
     17 C3'         1.9404   -0.7419    0.5596 C.3       1 GTP         0.1111
     18 O3'         2.7418   -0.8086    1.7389 O.3       1 GTP        -0.2728
     19 C2'         0.7477    0.1630    0.7858 C.3       1 GTP         0.1111
     20 O2'         0.1373   -0.0577    2.0407 O.3       1 GTP        -0.2728
     21 C1'         1.3733    1.5427    0.6747 C.3       1 GTP         0.2693
     22 N9          0.4520    2.5240    0.1767 N.pl3     1 GTP        -0.3222
     23 C8         -0.2009    2.4849   -0.9792 C.ar      1 GTP         0.1640
     24 N7         -0.9840    3.5454   -1.1481 N.pl3     1 GTP        -0.3688
     25 C5         -0.8090    4.3005   -0.0206 C.ar      1 GTP         0.0648
     26 C6         -1.4206    5.5724    0.3362 C.ar      1 GTP         0.3597
     27 O6         -2.2199    6.1544   -0.3836 O.2       1 GTP        -0.2755
     28 N1         -0.9680    6.0043    1.5817 N.pl3     1 GTP        -0.1604
     29 C2         -0.0474    5.3055    2.3814 C.ar      1 GTP         0.4468
     30 N2          0.2680    5.9024    3.5740 N.pl3     1 GTP        -0.5618
     31 N3          0.4755    4.1601    2.0138 N.2       1 GTP        -0.4283
     32 C4          0.0611    3.6981    0.8001 C.ar      1 GTP         0.2226
     33 HOB2        8.2072    0.9688   -0.2538 H         1 GTP         0.2010
     34 H5'         1.2163   -0.0770   -2.0471 H         1 GTP        -0.0393
     35 H5''        2.4655   -1.3443   -2.1563 H         1 GTP        -0.0393
     36 H4'         3.8044   -0.1397   -0.4040 H         1 GTP        -0.0393
     37 H3'         1.6764   -1.7639    0.2728 H         1 GTP        -0.0393
     38 HO3'        2.2232   -1.2979    2.3953 H         1 GTP         0.2010
     39 H2'        -0.0011    0.0027    0.0003 H         1 GTP        -0.0393
     40 HO2'       -0.6141    0.5574    2.1082 H         1 GTP         0.2010
     41 H1'         1.7826    1.9024    1.6451 H         1 GTP        -0.0393
     42 H8         -0.1126    1.6906   -1.6997 H         1 GTP         0.0000
     43 HN1        -1.3285    6.8855    1.9361 H         1 GTP         0.0865
     44 HN21        0.9153    5.4446    4.1732 H         1 GTP         0.2048
     45 HN22       -0.1624    6.7706    3.7948 H         1 GTP         0.2048
     46 H46        -1.5768    3.7405   -1.9429 H         1 GTP         0.2048
@<TRIPOS>BOND
     1    1    2 2
     2    1    3 1
     3    1    4 1
     4    1    5 1
     5    5    6 1
     6    6    7 2
     7    6    8 1
     8    6    9 1
     9    8   33 1
    10    9   10 1
    11   10   11 2
    12   10   12 1
    13   10   13 1
    14   13   14 1
    15   14   15 1
    16   14   34 1
    17   14   35 1
    18   15   16 1
    19   15   17 1
    20   15   36 1
    21   16   21 1
    22   17   18 1
    23   17   19 1
    24   17   37 1
    25   18   38 1
    26   19   20 1
    27   19   21 1
    28   19   39 1
    29   20   40 1
    30   21   22 1
    31   21   41 1
    32   22   23 ar
    33   22   32 ar
    34   23   24 ar
    35   23   42 1
    36   24   25 ar
    37   24   46 1
    38   25   26 ar
    39   25   32 ar
    40   26   27 2
    41   26   28 ar
    42   28   29 ar
    43   28   43 1
    44   29   30 1
    45   29   31 ar
    46   30   44 1
    47   30   45 1
    48   31   32 ar
@<TRIPOS>SUBSTRUCTURE
     1 GTP         1 GROUP 0 A     ****
@<TRIPOS>MOLECULE
[[[5-(2-amino-6-oxo-7,8-dihydro-1~{H}-purin-8-ylium-9-yl)-3,4-dihydroxy-tetrahydrofuran-2-yl]methoxy-oxido-phosphoryl]oxy-hydroxy-phosphoryl] phosphate
   46    48     1     0     0
SMALL
USER_CHARGES

@<TRIPOS>ATOM
      1 PG          3.0607   -2.7050   -7.6331 P.3       1 GTP        -1.1921
      2 O1G         1.8794   -2.4321   -8.5585 O.co2     1 GTP         0.3195
      3 O2G         3.5980   -4.1305   -7.7074 O.co2     1 GTP         0.3195
      4 O3G         4.1399   -1.6275   -7.6565 O.co2     1 GTP         0.3195
      5 O3B         2.4186   -2.6046   -6.1182 O.3       1 GTP         0.4672
      6 PB          1.6810   -1.3755   -5.3689 P.3       1 GTP        -0.9715
      7 O1B         2.5159   -0.1387   -5.2140 O.2       1 GTP         0.2707
      8 O2B         0.3283   -1.1817   -6.2331 O.3       1 GTP         0.0326
      9 O3A         1.1571   -2.0357   -3.9908 O.3       1 GTP         0.4672
     10 PA          1.9795   -2.7507   -2.7763 P.3       1 GTP        -1.1062
     11 O1A         1.0116   -3.0447   -1.6510 O.co2     1 GTP         0.3195
     12 O2A         2.8524   -3.8390   -3.3624 O.co2     1 GTP         0.3195
     13 O5'         2.9216   -1.4836   -2.3516 O.3       1 GTP         0.1618
     14 C5'         2.2816   -0.2918   -1.9206 C.3       1 GTP         0.1504
     15 C4'         2.7248    0.0226   -0.4980 C.3       1 GTP         0.1111
     16 O4'         2.4697    1.4219   -0.2462 O.3       1 GTP        -0.1436
     17 C3'         1.9404   -0.7419    0.5596 C.3       1 GTP         0.1111
     18 O3'         2.7418   -0.8086    1.7389 O.3       1 GTP        -0.2728
     19 C2'         0.7477    0.1630    0.7858 C.3       1 GTP         0.1111
     20 O2'         0.1373   -0.0577    2.0407 O.3       1 GTP        -0.2728
     21 C1'         1.3733    1.5427    0.6747 C.3       1 GTP         0.2693
     22 N9          0.4520    2.5240    0.1767 N.pl3     1 GTP        -0.3222
     23 C8         -0.2009    2.4849   -0.9792 C.ar      1 GTP         0.1640
     24 N7         -0.9840    3.5454   -1.1481 N.pl3     1 GTP        -0.3688
     25 C5         -0.8090    4.3005   -0.0206 C.ar      1 GTP         0.0648
     26 C6         -1.4206    5.5724    0.3362 C.ar      1 GTP         0.3597
     27 O6         -2.2199    6.1544   -0.3836 O.2       1 GTP        -0.2755
     28 N1         -0.9680    6.0043    1.5817 N.pl3     1 GTP        -0.1604
     29 C2         -0.0474    5.3055    2.3814 C.ar      1 GTP         0.4468
     30 N2          0.2680    5.9024    3.5740 N.pl3     1 GTP        -0.5618
     31 N3          0.4755    4.1601    2.0138 N.2       1 GTP        -0.4283
     32 C4          0.0611    3.6981    0.8001 C.ar      1 GTP         0.2226
     33 HOB2       -0.3434   -0.5372   -5.9238 H         1 GTP         0.2010
     34 H5'         2.5589    0.5217   -2.5976 H         1 GTP        -0.0393
     35 H5''        1.1982   -0.4388   -1.9617 H         1 GTP        -0.0393
     36 H4'         3.8044   -0.1397   -0.4040 H         1 GTP        -0.0393
     37 H3'         1.6764   -1.7639    0.2728 H         1 GTP        -0.0393
     38 HO3'        2.2232   -1.2979    2.3953 H         1 GTP         0.2010
     39 H2'        -0.0011    0.0027    0.0003 H         1 GTP        -0.0393
     40 HO2'       -0.1563   -0.9855    2.0596 H         1 GTP         0.2010
     41 H1'         1.7826    1.9024    1.6451 H         1 GTP        -0.0393
     42 H8         -0.1126    1.6906   -1.6997 H         1 GTP         0.0000
     43 HN1        -1.3285    6.8855    1.9361 H         1 GTP         0.0865
     44 HN21        0.9153    5.4446    4.1732 H         1 GTP         0.2048
     45 HN22       -0.1624    6.7706    3.7948 H         1 GTP         0.2048
     46 H46        -1.5768    3.7405   -1.9429 H         1 GTP         0.2048
@<TRIPOS>BOND
     1    1    2 2
     2    1    3 1
     3    1    4 1
     4    1    5 1
     5    5    6 1
     6    6    7 2
     7    6    8 1
     8    6    9 1
     9    8   33 1
    10    9   10 1
    11   10   11 2
    12   10   12 1
    13   10   13 1
    14   13   14 1
    15   14   15 1
    16   14   34 1
    17   14   35 1
    18   15   16 1
    19   15   17 1
    20   15   36 1
    21   16   21 1
    22   17   18 1
    23   17   19 1
    24   17   37 1
    25   18   38 1
    26   19   20 1
    27   19   21 1
    28   19   39 1
    29   20   40 1
    30   21   22 1
    31   21   41 1
    32   22   23 ar
    33   22   32 ar
    34   23   24 ar
    35   23   42 1
    36   24   25 ar
    37   24   46 1
    38   25   26 ar
    39   25   32 ar
    40   26   27 2
    41   26   28 ar
    42   28   29 ar
    43   28   43 1
    44   29   30 1
    45   29   31 ar
    46   30   44 1
    47   30   45 1
    48   31   32 ar
@<TRIPOS>SUBSTRUCTURE
     1 GTP         1 GROUP 0 A     ****
@<TRIPOS>MOLECULE
[[[5-(2-amino-6-oxo-7,8-dihydro-1~{H}-purin-8-ylium-9-yl)-3,4-dihydroxy-tetrahydrofuran-2-yl]methoxy-oxido-phosphoryl]oxy-hydroxy-phosphoryl] phosphate
   46    48     1     0     0
SMALL
USER_CHARGES

@<TRIPOS>ATOM
      1 PG          3.2096   -7.3673    6.0118 P.3       1 GTP        -1.1921
      2 O1G         2.6471   -7.0356    7.3902 O.co2     1 GTP         0.3195
      3 O2G         4.3656   -6.4732    5.5755 O.co2     1 GTP         0.3195
      4 O3G         3.4430   -8.8549    5.7693 O.co2     1 GTP         0.3195
      5 O3B         1.9922   -6.9720    4.9730 O.3       1 GTP         0.4672
      6 PB          0.4798   -7.5350    4.8638 P.3       1 GTP        -0.9715
      7 O1B         0.3725   -9.0078    4.5998 O.2       1 GTP         0.2707
      8 O2B        -0.1938   -7.0389    6.2474 O.3       1 GTP         0.0326
      9 O3A        -0.1971   -6.5797    3.7507 O.3       1 GTP         0.4672
     10 PA          0.2005   -6.3223    2.1891 P.3       1 GTP        -1.1062
     11 O1A         1.5428   -5.6251    2.1457 O.co2     1 GTP         0.3195
     12 O2A        -0.0438   -7.5989    1.4143 O.co2     1 GTP         0.3195
     13 O5'        -0.9724   -5.2440    1.8220 O.3       1 GTP         0.1618
     14 C5'        -0.7840   -3.8935    2.2172 C.3       1 GTP         0.1504
     15 C4'        -0.0724   -3.1466    1.1027 C.3       1 GTP         0.1111
     16 O4'        -0.8674   -3.1929   -0.0945 O.3       1 GTP        -0.1436
     17 C3'         0.1338   -1.6715    1.4027 C.3       1 GTP         0.1111
     18 O3'         1.2893   -1.4445    2.1808 O.3       1 GTP        -0.2728
     19 C2'         0.2158   -1.0724    0.0128 C.3       1 GTP         0.1111
     20 O2'         1.5141   -1.2448   -0.5513 O.3       1 GTP        -0.2728
     21 C1'        -0.7897   -1.9176   -0.7583 C.3       1 GTP         0.2693
     22 N9         -2.1040   -1.3333   -0.7704 N.pl3     1 GTP        -0.3222
     23 C8         -3.0597   -1.5109    0.1345 C.ar      1 GTP         0.1640
     24 N7         -4.1618   -0.8291   -0.1607 N.pl3     1 GTP        -0.3688
     25 C5         -3.8764   -0.1805   -1.3310 C.ar      1 GTP         0.0648
     26 C6         -4.7187    0.7111   -2.1152 C.ar      1 GTP         0.3597
     27 O6         -5.8617    1.0043   -1.7939 O.2       1 GTP        -0.2755
     28 N1         -4.0405    1.1608   -3.2468 N.pl3     1 GTP        -0.1604
     29 C2         -2.7239    0.8013   -3.5822 C.ar      1 GTP         0.4468
     30 N2         -2.2399    1.3534   -4.7394 N.pl3     1 GTP        -0.5618
     31 N3         -2.0053   -0.0071   -2.8402 N.2       1 GTP        -0.4283
     32 C4         -2.6290   -0.4727   -1.7210 C.ar      1 GTP         0.2226
     33 HOB2        0.1366   -7.4076    7.0942 H         1 GTP         0.2010
     34 H5'        -1.7618   -3.4448    2.4164 H         1 GTP        -0.0393
     35 H5''       -0.1874   -3.8744    3.1341 H         1 GTP        -0.0393
     36 H4'         0.8874   -3.6466    0.8805 H         1 GTP        -0.0393
     37 H3'        -0.7376   -1.2333    1.9867 H         1 GTP        -0.0393
     38 HO3'        1.3408   -0.4870    2.3219 H         1 GTP         0.2010
     39 H2'        -0.0384   -0.0310    0.0096 H         1 GTP        -0.0393
     40 HO2'        2.1463   -0.7958    0.0370 H         1 GTP         0.2010
     41 H1'        -0.4769   -2.1002   -1.8093 H         1 GTP        -0.0393
     42 H8         -2.9610   -2.1316    1.0079 H         1 GTP         0.0000
     43 HN1        -4.5320    1.7923   -3.8726 H         1 GTP         0.0865
     44 HN21       -1.3128    1.1277   -5.0171 H         1 GTP         0.2048
     45 HN22       -2.8342    1.9586   -5.2572 H         1 GTP         0.2048
     46 H46        -5.0195   -0.8034    0.3729 H         1 GTP         0.2048
@<TRIPOS>BOND
     1    1    2 2
     2    1    3 1
     3    1    4 1
     4    1    5 1
     5    5    6 1
     6    6    7 2
     7    6    8 1
     8    6    9 1
     9    8   33 1
    10    9   10 1
    11   10   11 2
    12   10   12 1
    13   10   13 1
    14   13   14 1
    15   14   15 1
    16   14   34 1
    17   14   35 1
    18   15   16 1
    19   15   17 1
    20   15   36 1
    21   16   21 1
    22   17   18 1
    23   17   19 1
    24   17   37 1
    25   18   38 1
    26   19   20 1
    27   19   21 1
    28   19   39 1
    29   20   40 1
    30   21   22 1
    31   21   41 1
    32   22   23 ar
    33   22   32 ar
    34   23   24 ar
    35   23   42 1
    36   24   25 ar
    37   24   46 1
    38   25   26 ar
    39   25   32 ar
    40   26   27 2
    41   26   28 ar
    42   28   29 ar
    43   28   43 1
    44   29   30 1
    45   29   31 ar
    46   30   44 1
    47   30   45 1
    48   31   32 ar
@<TRIPOS>SUBSTRUCTURE
     1 GTP         1 GROUP 0 A     ****
@<TRIPOS>MOLECULE
[[[5-(2-amino-6-oxo-7,8-dihydro-1~{H}-purin-8-ylium-9-yl)-3,4-dihydroxy-tetrahydrofuran-2-yl]methoxy-oxido-phosphoryl]oxy-hydroxy-phosphoryl] phosphate
   46    48     1     0     0
SMALL
USER_CHARGES

@<TRIPOS>ATOM
      1 PG          1.0650   -4.2316   -4.9952 P.3       1 GTP        -1.1921
      2 O1G         1.1991   -5.4749   -4.1220 O.co2     1 GTP         0.3195
      3 O2G         0.3564   -4.4731   -6.3241 O.co2     1 GTP         0.3195
      4 O3G         0.5909   -2.9881   -4.2502 O.co2     1 GTP         0.3195
      5 O3B         2.6141   -3.8771   -5.4337 O.3       1 GTP         0.4672
      6 PB          3.9055   -3.5156   -4.5293 P.3       1 GTP        -0.9715
      7 O1B         4.3109   -4.5810   -3.5541 O.2       1 GTP         0.2707
      8 O2B         5.0266   -3.1369   -5.6311 O.3       1 GTP         0.0326
      9 O3A         3.5200   -2.0888   -3.8773 O.3       1 GTP         0.4672
     10 PA          4.4649   -0.9309   -3.2223 P.3       1 GTP        -1.1062
     11 O1A         5.0842   -1.4788   -1.9550 O.co2     1 GTP         0.3195
     12 O2A         5.3216   -0.3334   -4.3172 O.co2     1 GTP         0.3195
     13 O5'         3.2903    0.1346   -2.8241 O.3       1 GTP         0.1618
     14 C5'         2.2816   -0.2918   -1.9206 C.3       1 GTP         0.1504
     15 C4'         2.7248    0.0226   -0.4980 C.3       1 GTP         0.1111
     16 O4'         2.4697    1.4219   -0.2462 O.3       1 GTP        -0.1436
     17 C3'         1.9404   -0.7419    0.5596 C.3       1 GTP         0.1111
     18 O3'         2.7418   -0.8086    1.7389 O.3       1 GTP        -0.2728
     19 C2'         0.7477    0.1630    0.7858 C.3       1 GTP         0.1111
     20 O2'         0.1373   -0.0577    2.0407 O.3       1 GTP        -0.2728
     21 C1'         1.3733    1.5427    0.6747 C.3       1 GTP         0.2693
     22 N9          0.4520    2.5240    0.1767 N.pl3     1 GTP        -0.3222
     23 C8          0.5671    3.2221   -0.9473 C.ar      1 GTP         0.1640
     24 N7         -0.4560    4.0508   -1.1290 N.pl3     1 GTP        -0.3688
     25 C5         -1.2671    3.8585   -0.0441 C.ar      1 GTP         0.0648
     26 C6         -2.5318    4.5014    0.2817 C.ar      1 GTP         0.3597
     27 O6         -3.0527    5.3493   -0.4293 O.2       1 GTP        -0.2755
     28 N1         -3.0357    4.0149    1.4868 N.pl3     1 GTP        -0.1604
     29 C2         -2.4069    3.0373    2.2768 C.ar      1 GTP         0.4468
     30 N2         -3.0679    2.6964    3.4278 N.pl3     1 GTP        -0.5618
     31 N3         -1.2653    2.4872    1.9379 N.2       1 GTP        -0.4283
     32 C4         -0.7342    2.9334    0.7643 C.ar      1 GTP         0.2226
     33 HOB2        5.3497   -3.8363   -6.2382 H         1 GTP         0.2010
     34 H5'         1.3514    0.2330   -2.1577 H         1 GTP        -0.0393
     35 H5''        2.1280   -1.3678   -2.0460 H         1 GTP        -0.0393
     36 H4'         3.8044   -0.1397   -0.4040 H         1 GTP        -0.0393
     37 H3'         1.6764   -1.7639    0.2728 H         1 GTP        -0.0393
     38 HO3'        3.5554   -1.2733    1.4914 H         1 GTP         0.2010
     39 H2'        -0.0011    0.0027    0.0003 H         1 GTP        -0.0393
     40 HO2'       -0.1563   -0.9855    2.0596 H         1 GTP         0.2010
     41 H1'         1.7826    1.9024    1.6451 H         1 GTP        -0.0393
     42 H8          1.3888    3.1325   -1.6361 H         1 GTP         0.0000
     43 HN1        -3.9188    4.3932    1.8170 H         1 GTP         0.0865
     44 HN21       -2.6609    2.0087    4.0186 H         1 GTP         0.2048
     45 HN22       -3.9293    3.1496    3.6283 H         1 GTP         0.2048
     46 H46        -0.5938    4.6820   -1.9060 H         1 GTP         0.2048
@<TRIPOS>BOND
     1    1    2 2
     2    1    3 1
     3    1    4 1
     4    1    5 1
     5    5    6 1
     6    6    7 2
     7    6    8 1
     8    6    9 1
     9    8   33 1
    10    9   10 1
    11   10   11 2
    12   10   12 1
    13   10   13 1
    14   13   14 1
    15   14   15 1
    16   14   34 1
    17   14   35 1
    18   15   16 1
    19   15   17 1
    20   15   36 1
    21   16   21 1
    22   17   18 1
    23   17   19 1
    24   17   37 1
    25   18   38 1
    26   19   20 1
    27   19   21 1
    28   19   39 1
    29   20   40 1
    30   21   22 1
    31   21   41 1
    32   22   23 ar
    33   22   32 ar
    34   23   24 ar
    35   23   42 1
    36   24   25 ar
    37   24   46 1
    38   25   26 ar
    39   25   32 ar
    40   26   27 2
    41   26   28 ar
    42   28   29 ar
    43   28   43 1
    44   29   30 1
    45   29   31 ar
    46   30   44 1
    47   30   45 1
    48   31   32 ar
@<TRIPOS>SUBSTRUCTURE
     1 GTP         1 GROUP 0 A     ****
@<TRIPOS>MOLECULE
[[[5-(2-amino-6-oxo-7,8-dihydro-1~{H}-purin-8-ylium-9-yl)-3,4-dihydroxy-tetrahydrofuran-2-yl]methoxy-oxido-phosphoryl]oxy-hydroxy-phosphoryl] phosphate
   46    48     1     0     0
SMALL
USER_CHARGES

@<TRIPOS>ATOM
      1 PG          7.9163   -0.9774   -5.2530 P.3       1 GTP        -1.1921
      2 O1G         8.0215   -2.2923   -6.0188 O.co2     1 GTP         0.3195
      3 O2G         8.7995   -0.9035   -4.0116 O.co2     1 GTP         0.3195
      4 O3G         7.9668    0.2679   -6.1320 O.co2     1 GTP         0.3195
      5 O3B         6.3837   -0.9851   -4.6460 O.3       1 GTP         0.4672
      6 PB          4.9548   -1.0500   -5.4012 P.3       1 GTP        -0.9715
      7 O1B         4.6898    0.0828   -6.3483 O.2       1 GTP         0.2707
      8 O2B         4.9683   -2.5176   -6.0796 O.3       1 GTP         0.0326
      9 O3A         3.8967   -1.2037   -4.1903 O.3       1 GTP         0.4672
     10 PA          3.9759   -2.0799   -2.8160 P.3       1 GTP        -1.1062
     11 O1A         3.9532   -3.5479   -3.1825 O.co2     1 GTP         0.3195
     12 O2A         5.0721   -1.5078   -1.9438 O.co2     1 GTP         0.3195
     13 O5'         2.5245   -1.6648   -2.1878 O.3       1 GTP         0.1618
     14 C5'         2.2816   -0.2918   -1.9206 C.3       1 GTP         0.1504
     15 C4'         2.7248    0.0226   -0.4980 C.3       1 GTP         0.1111
     16 O4'         2.4697    1.4219   -0.2462 O.3       1 GTP        -0.1436
     17 C3'         1.9404   -0.7419    0.5596 C.3       1 GTP         0.1111
     18 O3'         2.7418   -0.8086    1.7389 O.3       1 GTP        -0.2728
     19 C2'         0.7477    0.1630    0.7858 C.3       1 GTP         0.1111
     20 O2'         0.1373   -0.0577    2.0407 O.3       1 GTP        -0.2728
     21 C1'         1.3733    1.5427    0.6747 C.3       1 GTP         0.2693
     22 N9          0.4520    2.5240    0.1767 N.pl3     1 GTP        -0.3222
     23 C8         -0.2009    2.4849   -0.9792 C.ar      1 GTP         0.1640
     24 N7         -0.9840    3.5454   -1.1481 N.pl3     1 GTP        -0.3688
     25 C5         -0.8090    4.3005   -0.0206 C.ar      1 GTP         0.0648
     26 C6         -1.4206    5.5724    0.3362 C.ar      1 GTP         0.3597
     27 O6         -2.2199    6.1544   -0.3836 O.2       1 GTP        -0.2755
     28 N1         -0.9680    6.0043    1.5817 N.pl3     1 GTP        -0.1604
     29 C2         -0.0474    5.3055    2.3814 C.ar      1 GTP         0.4468
     30 N2          0.2680    5.9024    3.5740 N.pl3     1 GTP        -0.5618
     31 N3          0.4755    4.1601    2.0138 N.2       1 GTP        -0.4283
     32 C4          0.0611    3.6981    0.8001 C.ar      1 GTP         0.2226
     33 HOB2        5.6203   -2.7063   -6.7878 H         1 GTP         0.2010
     34 H5'         2.8432    0.3119   -2.6398 H         1 GTP        -0.0393
     35 H5''        1.2128   -0.0927   -2.0428 H         1 GTP        -0.0393
     36 H4'         3.8044   -0.1397   -0.4040 H         1 GTP        -0.0393
     37 H3'         1.6764   -1.7639    0.2728 H         1 GTP        -0.0393
     38 HO3'        3.5554   -1.2733    1.4914 H         1 GTP         0.2010
     39 H2'        -0.0011    0.0027    0.0003 H         1 GTP        -0.0393
     40 HO2'       -0.6141    0.5574    2.1082 H         1 GTP         0.2010
     41 H1'         1.7826    1.9024    1.6451 H         1 GTP        -0.0393
     42 H8         -0.1126    1.6906   -1.6997 H         1 GTP         0.0000
     43 HN1        -1.3285    6.8855    1.9361 H         1 GTP         0.0865
     44 HN21        0.9153    5.4446    4.1732 H         1 GTP         0.2048
     45 HN22       -0.1624    6.7706    3.7948 H         1 GTP         0.2048
     46 H46        -1.5768    3.7405   -1.9429 H         1 GTP         0.2048
@<TRIPOS>BOND
     1    1    2 2
     2    1    3 1
     3    1    4 1
     4    1    5 1
     5    5    6 1
     6    6    7 2
     7    6    8 1
     8    6    9 1
     9    8   33 1
    10    9   10 1
    11   10   11 2
    12   10   12 1
    13   10   13 1
    14   13   14 1
    15   14   15 1
    16   14   34 1
    17   14   35 1
    18   15   16 1
    19   15   17 1
    20   15   36 1
    21   16   21 1
    22   17   18 1
    23   17   19 1
    24   17   37 1
    25   18   38 1
    26   19   20 1
    27   19   21 1
    28   19   39 1
    29   20   40 1
    30   21   22 1
    31   21   41 1
    32   22   23 ar
    33   22   32 ar
    34   23   24 ar
    35   23   42 1
    36   24   25 ar
    37   24   46 1
    38   25   26 ar
    39   25   32 ar
    40   26   27 2
    41   26   28 ar
    42   28   29 ar
    43   28   43 1
    44   29   30 1
    45   29   31 ar
    46   30   44 1
    47   30   45 1
    48   31   32 ar
@<TRIPOS>SUBSTRUCTURE
     1 GTP         1 GROUP 0 A     ****
@<TRIPOS>MOLECULE
[[[5-(2-amino-6-oxo-7,8-dihydro-1~{H}-purin-8-ylium-9-yl)-3,4-dihydroxy-tetrahydrofuran-2-yl]methoxy-oxido-phosphoryl]oxy-hydroxy-phosphoryl] phosphate
   46    48     1     0     0
SMALL
USER_CHARGES

@<TRIPOS>ATOM
      1 PG          6.6962    1.1066   -4.3455 P.3       1 GTP        -1.1921
      2 O1G         6.7548    1.7769   -5.7143 O.co2     1 GTP         0.3195
      3 O2G         8.0493    0.9760   -3.6538 O.co2     1 GTP         0.3195
      4 O3G         5.5785    1.6178   -3.4424 O.co2     1 GTP         0.3195
      5 O3B         6.2712   -0.4513   -4.6766 O.3       1 GTP         0.4672
      6 PB          4.9548   -1.0500   -5.4012 P.3       1 GTP        -0.9715
      7 O1B         4.4716   -0.2619   -6.5827 O.2       1 GTP         0.2707
      8 O2B         5.3807   -2.5755   -5.7266 O.3       1 GTP         0.0326
      9 O3A         3.8967   -1.2037   -4.1903 O.3       1 GTP         0.4672
     10 PA          3.9759   -2.0799   -2.8160 P.3       1 GTP        -1.1062
     11 O1A         3.9532   -3.5479   -3.1825 O.co2     1 GTP         0.3195
     12 O2A         5.0721   -1.5078   -1.9438 O.co2     1 GTP         0.3195
     13 O5'         2.5245   -1.6648   -2.1878 O.3       1 GTP         0.1618
     14 C5'         2.2816   -0.2918   -1.9206 C.3       1 GTP         0.1504
     15 C4'         2.7248    0.0226   -0.4980 C.3       1 GTP         0.1111
     16 O4'         2.4697    1.4219   -0.2462 O.3       1 GTP        -0.1436
     17 C3'         1.9404   -0.7419    0.5596 C.3       1 GTP         0.1111
     18 O3'         2.7418   -0.8086    1.7389 O.3       1 GTP        -0.2728
     19 C2'         0.7477    0.1630    0.7858 C.3       1 GTP         0.1111
     20 O2'         0.1373   -0.0577    2.0407 O.3       1 GTP        -0.2728
     21 C1'         1.3733    1.5427    0.6747 C.3       1 GTP         0.2693
     22 N9          0.4520    2.5240    0.1767 N.pl3     1 GTP        -0.3222
     23 C8         -0.2009    2.4849   -0.9792 C.ar      1 GTP         0.1640
     24 N7         -0.9840    3.5454   -1.1481 N.pl3     1 GTP        -0.3688
     25 C5         -0.8090    4.3005   -0.0206 C.ar      1 GTP         0.0648
     26 C6         -1.4206    5.5724    0.3362 C.ar      1 GTP         0.3597
     27 O6         -2.2199    6.1544   -0.3836 O.2       1 GTP        -0.2755
     28 N1         -0.9680    6.0043    1.5817 N.pl3     1 GTP        -0.1604
     29 C2         -0.0474    5.3055    2.3814 C.ar      1 GTP         0.4468
     30 N2          0.2680    5.9024    3.5740 N.pl3     1 GTP        -0.5618
     31 N3          0.4755    4.1601    2.0138 N.2       1 GTP        -0.4283
     32 C4          0.0611    3.6981    0.8001 C.ar      1 GTP         0.2226
     33 HOB2        5.7053   -3.1431   -4.9954 H         1 GTP         0.2010
     34 H5'         2.8432    0.3119   -2.6398 H         1 GTP        -0.0393
     35 H5''        1.2128   -0.0927   -2.0428 H         1 GTP        -0.0393
     36 H4'         3.8044   -0.1397   -0.4040 H         1 GTP        -0.0393
     37 H3'         1.6764   -1.7639    0.2728 H         1 GTP        -0.0393
     38 HO3'        3.5554   -1.2733    1.4914 H         1 GTP         0.2010
     39 H2'        -0.0011    0.0027    0.0003 H         1 GTP        -0.0393
     40 HO2'       -0.6141    0.5574    2.1082 H         1 GTP         0.2010
     41 H1'         1.7826    1.9024    1.6451 H         1 GTP        -0.0393
     42 H8         -0.1126    1.6906   -1.6997 H         1 GTP         0.0000
     43 HN1        -1.3285    6.8855    1.9361 H         1 GTP         0.0865
     44 HN21        0.9153    5.4446    4.1732 H         1 GTP         0.2048
     45 HN22       -0.1624    6.7706    3.7948 H         1 GTP         0.2048
     46 H46        -1.5768    3.7405   -1.9429 H         1 GTP         0.2048
@<TRIPOS>BOND
     1    1    2 2
     2    1    3 1
     3    1    4 1
     4    1    5 1
     5    5    6 1
     6    6    7 2
     7    6    8 1
     8    6    9 1
     9    8   33 1
    10    9   10 1
    11   10   11 2
    12   10   12 1
    13   10   13 1
    14   13   14 1
    15   14   15 1
    16   14   34 1
    17   14   35 1
    18   15   16 1
    19   15   17 1
    20   15   36 1
    21   16   21 1
    22   17   18 1
    23   17   19 1
    24   17   37 1
    25   18   38 1
    26   19   20 1
    27   19   21 1
    28   19   39 1
    29   20   40 1
    30   21   22 1
    31   21   41 1
    32   22   23 ar
    33   22   32 ar
    34   23   24 ar
    35   23   42 1
    36   24   25 ar
    37   24   46 1
    38   25   26 ar
    39   25   32 ar
    40   26   27 2
    41   26   28 ar
    42   28   29 ar
    43   28   43 1
    44   29   30 1
    45   29   31 ar
    46   30   44 1
    47   30   45 1
    48   31   32 ar
@<TRIPOS>SUBSTRUCTURE
     1 GTP         1 GROUP 0 A     ****
@<TRIPOS>MOLECULE
[[[5-(2-amino-6-oxo-7,8-dihydro-1~{H}-purin-8-ylium-9-yl)-3,4-dihydroxy-tetrahydrofuran-2-yl]methoxy-oxido-phosphoryl]oxy-hydroxy-phosphoryl] phosphate
   46    48     1     0     0
SMALL
USER_CHARGES

@<TRIPOS>ATOM
      1 PG         -4.1751   -5.5348   -3.0953 P.3       1 GTP        -1.1921
      2 O1G        -3.4894   -4.6672   -4.1457 O.co2     1 GTP         0.3195
      3 O2G        -5.4149   -4.9015   -2.4723 O.co2     1 GTP         0.3195
      4 O3G        -4.3557   -6.9929   -3.5045 O.co2     1 GTP         0.3195
      5 O3B        -3.0949   -5.5922   -1.8514 O.3       1 GTP         0.4672
      6 PB         -1.5752   -6.1442   -1.8041 P.3       1 GTP        -0.9715
      7 O1B        -1.4204   -7.5961   -2.1482 O.2       1 GTP         0.2707
      8 O2B        -0.7871   -5.1240   -2.7799 O.3       1 GTP         0.0326
      9 O3A        -1.0685   -5.7231   -0.3291 O.3       1 GTP         0.4672
     10 PA         -1.6398   -6.1268    1.1451 P.3       1 GTP        -1.1062
     11 O1A        -3.0133   -5.5138    1.3104 O.co2     1 GTP         0.3195
     12 O2A        -1.4124   -7.6073    1.3597 O.co2     1 GTP         0.3195
     13 O5'        -0.5687   -5.2869    2.0510 O.3       1 GTP         0.1618
     14 C5'        -0.7840   -3.8935    2.2172 C.3       1 GTP         0.1504
     15 C4'        -0.0724   -3.1466    1.1027 C.3       1 GTP         0.1111
     16 O4'        -0.8674   -3.1929   -0.0945 O.3       1 GTP        -0.1436
     17 C3'         0.1338   -1.6715    1.4027 C.3       1 GTP         0.1111
     18 O3'         1.2893   -1.4445    2.1808 O.3       1 GTP        -0.2728
     19 C2'         0.2158   -1.0724    0.0128 C.3       1 GTP         0.1111
     20 O2'         1.5141   -1.2448   -0.5513 O.3       1 GTP        -0.2728
     21 C1'        -0.7897   -1.9176   -0.7583 C.3       1 GTP         0.2693
     22 N9         -2.1040   -1.3333   -0.7704 N.pl3     1 GTP        -0.3222
     23 C8         -3.0597   -1.5109    0.1345 C.ar      1 GTP         0.1640
     24 N7         -4.1618   -0.8291   -0.1607 N.pl3     1 GTP        -0.3688
     25 C5         -3.8764   -0.1805   -1.3310 C.ar      1 GTP         0.0648
     26 C6         -4.7187    0.7111   -2.1152 C.ar      1 GTP         0.3597
     27 O6         -5.8617    1.0043   -1.7939 O.2       1 GTP        -0.2755
     28 N1         -4.0405    1.1608   -3.2468 N.pl3     1 GTP        -0.1604
     29 C2         -2.7239    0.8013   -3.5822 C.ar      1 GTP         0.4468
     30 N2         -2.2399    1.3534   -4.7394 N.pl3     1 GTP        -0.5618
     31 N3         -2.0053   -0.0071   -2.8402 N.2       1 GTP        -0.4283
     32 C4         -2.6290   -0.4727   -1.7210 C.ar      1 GTP         0.2226
     33 HOB2       -1.0078   -5.1166   -3.7356 H         1 GTP         0.2010
     34 H5'        -1.8598   -3.6968    2.1850 H         1 GTP        -0.0393
     35 H5''       -0.3933   -3.5903    3.1931 H         1 GTP        -0.0393
     36 H4'         0.8874   -3.6466    0.8805 H         1 GTP        -0.0393
     37 H3'        -0.7376   -1.2333    1.9867 H         1 GTP        -0.0393
     38 HO3'        1.3408   -0.4870    2.3219 H         1 GTP         0.2010
     39 H2'        -0.0384   -0.0310    0.0096 H         1 GTP        -0.0393
     40 HO2'        2.1463   -0.7958    0.0370 H         1 GTP         0.2010
     41 H1'        -0.4769   -2.1002   -1.8093 H         1 GTP        -0.0393
     42 H8         -2.9610   -2.1316    1.0079 H         1 GTP         0.0000
     43 HN1        -4.5320    1.7923   -3.8726 H         1 GTP         0.0865
     44 HN21       -1.3128    1.1277   -5.0171 H         1 GTP         0.2048
     45 HN22       -2.8342    1.9586   -5.2572 H         1 GTP         0.2048
     46 H46        -5.0195   -0.8034    0.3729 H         1 GTP         0.2048
@<TRIPOS>BOND
     1    1    2 2
     2    1    3 1
     3    1    4 1
     4    1    5 1
     5    5    6 1
     6    6    7 2
     7    6    8 1
     8    6    9 1
     9    8   33 1
    10    9   10 1
    11   10   11 2
    12   10   12 1
    13   10   13 1
    14   13   14 1
    15   14   15 1
    16   14   34 1
    17   14   35 1
    18   15   16 1
    19   15   17 1
    20   15   36 1
    21   16   21 1
    22   17   18 1
    23   17   19 1
    24   17   37 1
    25   18   38 1
    26   19   20 1
    27   19   21 1
    28   19   39 1
    29   20   40 1
    30   21   22 1
    31   21   41 1
    32   22   23 ar
    33   22   32 ar
    34   23   24 ar
    35   23   42 1
    36   24   25 ar
    37   24   46 1
    38   25   26 ar
    39   25   32 ar
    40   26   27 2
    41   26   28 ar
    42   28   29 ar
    43   28   43 1
    44   29   30 1
    45   29   31 ar
    46   30   44 1
    47   30   45 1
    48   31   32 ar
@<TRIPOS>SUBSTRUCTURE
     1 GTP         1 GROUP 0 A     ****
@<TRIPOS>MOLECULE
[[[5-(2-amino-6-oxo-7,8-dihydro-1~{H}-purin-8-ylium-9-yl)-3,4-dihydroxy-tetrahydrofuran-2-yl]methoxy-oxido-phosphoryl]oxy-hydroxy-phosphoryl] phosphate
   46    48     1     0     0
SMALL
USER_CHARGES

@<TRIPOS>ATOM
      1 PG          8.1409   -0.6288    0.8771 P.3       1 GTP        -1.1921
      2 O1G         8.6168   -2.0517    1.1515 O.co2     1 GTP         0.3195
      3 O2G         7.6717    0.1246    2.1175 O.co2     1 GTP         0.3195
      4 O3G         9.0608    0.1772   -0.0340 O.co2     1 GTP         0.3195
      5 O3B         6.7641   -0.8271   -0.0075 O.3       1 GTP         0.4672
      6 PB          6.5288   -1.5427   -1.4389 P.3       1 GTP        -0.9715
      7 O1B         7.3031   -0.9464   -2.5771 O.2       1 GTP         0.2707
      8 O2B         6.8586   -3.0947   -1.1283 O.3       1 GTP         0.0326
      9 O3A         4.9224   -1.5247   -1.6082 O.3       1 GTP         0.4672
     10 PA          3.9759   -2.0799   -2.8160 P.3       1 GTP        -1.1062
     11 O1A         4.2362   -1.2445   -4.0505 O.co2     1 GTP         0.3195
     12 O2A         4.0825   -3.5888   -2.8552 O.co2     1 GTP         0.3195
     13 O5'         2.5245   -1.6648   -2.1878 O.3       1 GTP         0.1618
     14 C5'         2.2816   -0.2918   -1.9206 C.3       1 GTP         0.1504
     15 C4'         2.7248    0.0226   -0.4980 C.3       1 GTP         0.1111
     16 O4'         2.4697    1.4219   -0.2462 O.3       1 GTP        -0.1436
     17 C3'         1.9404   -0.7419    0.5596 C.3       1 GTP         0.1111
     18 O3'         2.7418   -0.8086    1.7389 O.3       1 GTP        -0.2728
     19 C2'         0.7477    0.1630    0.7858 C.3       1 GTP         0.1111
     20 O2'         0.1373   -0.0577    2.0407 O.3       1 GTP        -0.2728
     21 C1'         1.3733    1.5427    0.6747 C.3       1 GTP         0.2693
     22 N9          0.4520    2.5240    0.1767 N.pl3     1 GTP        -0.3222
     23 C8          0.2203    2.8205   -1.0970 C.ar      1 GTP         0.1640
     24 N7         -0.6947    3.7752   -1.2304 N.pl3     1 GTP        -0.3688
     25 C5         -1.0607    4.0987    0.0476 C.ar      1 GTP         0.0648
     26 C6         -2.0310    5.0839    0.5029 C.ar      1 GTP         0.3597
     27 O6         -2.6779    5.7867   -0.2609 O.2       1 GTP        -0.2755
     28 N1         -2.1030    5.0975    1.8948 N.pl3     1 GTP        -0.1604
     29 C2         -1.3422    4.2721    2.7403 C.ar      1 GTP         0.4468
     30 N2         -1.5624    4.4419    4.0823 N.pl3     1 GTP        -0.5618
     31 N3         -0.4796    3.3981    2.2792 N.2       1 GTP        -0.4283
     32 C4         -0.3754    3.3496    0.9208 C.ar      1 GTP         0.2226
     33 HOB2        6.7056   -3.7616   -1.8312 H         1 GTP         0.2010
     34 H5'         2.8432    0.3119   -2.6398 H         1 GTP        -0.0393
     35 H5''        1.2128   -0.0927   -2.0428 H         1 GTP        -0.0393
     36 H4'         3.8044   -0.1397   -0.4040 H         1 GTP        -0.0393
     37 H3'         1.6764   -1.7639    0.2728 H         1 GTP        -0.0393
     38 HO3'        2.2232   -1.2979    2.3953 H         1 GTP         0.2010
     39 H2'        -0.0011    0.0027    0.0003 H         1 GTP        -0.0393
     40 HO2'       -0.6141    0.5574    2.1082 H         1 GTP         0.2010
     41 H1'         1.7826    1.9024    1.6451 H         1 GTP        -0.0393
     42 H8          0.7110    2.3472   -1.9295 H         1 GTP         0.0000
     43 HN1        -2.7504    5.7495    2.3282 H         1 GTP         0.0865
     44 HN21       -1.0467    3.8796    4.7190 H         1 GTP         0.2048
     45 HN22       -2.2294    5.1209    4.3680 H         1 GTP         0.2048
     46 H46        -1.0382    4.1687   -2.0954 H         1 GTP         0.2048
@<TRIPOS>BOND
     1    1    2 2
     2    1    3 1
     3    1    4 1
     4    1    5 1
     5    5    6 1
     6    6    7 2
     7    6    8 1
     8    6    9 1
     9    8   33 1
    10    9   10 1
    11   10   11 2
    12   10   12 1
    13   10   13 1
    14   13   14 1
    15   14   15 1
    16   14   34 1
    17   14   35 1
    18   15   16 1
    19   15   17 1
    20   15   36 1
    21   16   21 1
    22   17   18 1
    23   17   19 1
    24   17   37 1
    25   18   38 1
    26   19   20 1
    27   19   21 1
    28   19   39 1
    29   20   40 1
    30   21   22 1
    31   21   41 1
    32   22   23 ar
    33   22   32 ar
    34   23   24 ar
    35   23   42 1
    36   24   25 ar
    37   24   46 1
    38   25   26 ar
    39   25   32 ar
    40   26   27 2
    41   26   28 ar
    42   28   29 ar
    43   28   43 1
    44   29   30 1
    45   29   31 ar
    46   30   44 1
    47   30   45 1
    48   31   32 ar
@<TRIPOS>SUBSTRUCTURE
     1 GTP         1 GROUP 0 A     ****
@<TRIPOS>MOLECULE
[[[5-(2-amino-6-oxo-7,8-dihydro-1~{H}-purin-8-ylium-9-yl)-3,4-dihydroxy-tetrahydrofuran-2-yl]methoxy-oxido-phosphoryl]oxy-hydroxy-phosphoryl] phosphate
   46    48     1     0     0
SMALL
USER_CHARGES

@<TRIPOS>ATOM
      1 PG          0.0298    5.3484   -4.0701 P.3       1 GTP        -1.1921
      2 O1G         0.9314    6.0221   -5.0994 O.co2     1 GTP         0.3195
      3 O2G         0.1115    5.9555   -2.6733 O.co2     1 GTP         0.3195
      4 O3G        -1.3918    5.0853   -4.5559 O.co2     1 GTP         0.3195
      5 O3B         0.6811    3.8455   -3.8850 O.3       1 GTP         0.4672
      6 PB          0.9089    2.6592   -4.9607 P.3       1 GTP        -0.9715
      7 O1B        -0.3419    2.1543   -5.6173 O.2       1 GTP         0.2707
      8 O2B         2.0031    3.2892   -5.9707 O.3       1 GTP         0.0326
      9 O3A         1.7506    1.5572   -4.1320 O.3       1 GTP         0.4672
     10 PA          3.2070    1.6613   -3.4034 P.3       1 GTP        -1.1062
     11 O1A         4.2642    1.8423   -4.4707 O.co2     1 GTP         0.3195
     12 O2A         3.0952    2.6238   -2.2412 O.co2     1 GTP         0.3195
     13 O5'         3.2903    0.1346   -2.8241 O.3       1 GTP         0.1618
     14 C5'         2.2816   -0.2918   -1.9206 C.3       1 GTP         0.1504
     15 C4'         2.7248    0.0226   -0.4980 C.3       1 GTP         0.1111
     16 O4'         2.4697    1.4219   -0.2462 O.3       1 GTP        -0.1436
     17 C3'         1.9404   -0.7419    0.5596 C.3       1 GTP         0.1111
     18 O3'         2.7418   -0.8086    1.7389 O.3       1 GTP        -0.2728
     19 C2'         0.7477    0.1630    0.7858 C.3       1 GTP         0.1111
     20 O2'         0.1373   -0.0577    2.0407 O.3       1 GTP        -0.2728
     21 C1'         1.3733    1.5427    0.6747 C.3       1 GTP         0.2693
     22 N9          0.4520    2.5240    0.1767 N.pl3     1 GTP        -0.3222
     23 C8         -0.2009    2.4849   -0.9792 C.ar      1 GTP         0.1640
     24 N7         -0.9840    3.5454   -1.1481 N.pl3     1 GTP        -0.3688
     25 C5         -0.8090    4.3005   -0.0206 C.ar      1 GTP         0.0648
     26 C6         -1.4206    5.5724    0.3362 C.ar      1 GTP         0.3597
     27 O6         -2.2199    6.1544   -0.3836 O.2       1 GTP        -0.2755
     28 N1         -0.9680    6.0043    1.5817 N.pl3     1 GTP        -0.1604
     29 C2         -0.0474    5.3055    2.3814 C.ar      1 GTP         0.4468
     30 N2          0.2680    5.9024    3.5740 N.pl3     1 GTP        -0.5618
     31 N3          0.4755    4.1601    2.0138 N.2       1 GTP        -0.4283
     32 C4          0.0611    3.6981    0.8001 C.ar      1 GTP         0.2226
     33 HOB2        2.3765    2.7220   -6.6786 H         1 GTP         0.2010
     34 H5'         1.3514    0.2330   -2.1577 H         1 GTP        -0.0393
     35 H5''        2.1280   -1.3678   -2.0460 H         1 GTP        -0.0393
     36 H4'         3.8044   -0.1397   -0.4040 H         1 GTP        -0.0393
     37 H3'         1.6764   -1.7639    0.2728 H         1 GTP        -0.0393
     38 HO3'        2.2232   -1.2979    2.3953 H         1 GTP         0.2010
     39 H2'        -0.0011    0.0027    0.0003 H         1 GTP        -0.0393
     40 HO2'       -0.1563   -0.9855    2.0596 H         1 GTP         0.2010
     41 H1'         1.7826    1.9024    1.6451 H         1 GTP        -0.0393
     42 H8         -0.1126    1.6906   -1.6997 H         1 GTP         0.0000
     43 HN1        -1.3285    6.8855    1.9361 H         1 GTP         0.0865
     44 HN21        0.9153    5.4446    4.1732 H         1 GTP         0.2048
     45 HN22       -0.1624    6.7706    3.7948 H         1 GTP         0.2048
     46 H46        -1.5768    3.7405   -1.9429 H         1 GTP         0.2048
@<TRIPOS>BOND
     1    1    2 2
     2    1    3 1
     3    1    4 1
     4    1    5 1
     5    5    6 1
     6    6    7 2
     7    6    8 1
     8    6    9 1
     9    8   33 1
    10    9   10 1
    11   10   11 2
    12   10   12 1
    13   10   13 1
    14   13   14 1
    15   14   15 1
    16   14   34 1
    17   14   35 1
    18   15   16 1
    19   15   17 1
    20   15   36 1
    21   16   21 1
    22   17   18 1
    23   17   19 1
    24   17   37 1
    25   18   38 1
    26   19   20 1
    27   19   21 1
    28   19   39 1
    29   20   40 1
    30   21   22 1
    31   21   41 1
    32   22   23 ar
    33   22   32 ar
    34   23   24 ar
    35   23   42 1
    36   24   25 ar
    37   24   46 1
    38   25   26 ar
    39   25   32 ar
    40   26   27 2
    41   26   28 ar
    42   28   29 ar
    43   28   43 1
    44   29   30 1
    45   29   31 ar
    46   30   44 1
    47   30   45 1
    48   31   32 ar
@<TRIPOS>SUBSTRUCTURE
     1 GTP         1 GROUP 0 A     ****
@<TRIPOS>MOLECULE
[[[5-(2-amino-6-oxo-7,8-dihydro-1~{H}-purin-8-ylium-9-yl)-3,4-dihydroxy-tetrahydrofuran-2-yl]methoxy-oxido-phosphoryl]oxy-hydroxy-phosphoryl] phosphate
   46    48     1     0     0
SMALL
USER_CHARGES

@<TRIPOS>ATOM
      1 PG         -2.4140   -8.9506    5.5082 P.3       1 GTP        -1.1921
      2 O1G        -1.8584   -8.9384    6.9286 O.co2     1 GTP         0.3195
      3 O2G        -2.2945  -10.2965    4.8006 O.co2     1 GTP         0.3195
      4 O3G        -3.7784   -8.2852    5.3610 O.co2     1 GTP         0.3195
      5 O3B        -1.3905   -7.9706    4.6658 O.3       1 GTP         0.4672
      6 PB         -1.0252   -6.4083    4.8710 P.3       1 GTP        -0.9715
      7 O1B        -2.1892   -5.4685    4.7606 O.2       1 GTP         0.2707
      8 O2B        -0.2714   -6.3958    6.3013 O.3       1 GTP         0.0326
      9 O3A         0.1696   -6.1599    3.8125 O.3       1 GTP         0.4672
     10 PA          0.2005   -6.3223    2.1891 P.3       1 GTP        -1.1062
     11 O1A         1.5269   -5.8005    1.6812 O.co2     1 GTP         0.3195
     12 O2A        -0.2806   -7.7128    1.8360 O.co2     1 GTP         0.3195
     13 O5'        -0.9724   -5.2440    1.8220 O.3       1 GTP         0.1618
     14 C5'        -0.7840   -3.8935    2.2172 C.3       1 GTP         0.1504
     15 C4'        -0.0724   -3.1466    1.1027 C.3       1 GTP         0.1111
     16 O4'        -0.8674   -3.1929   -0.0945 O.3       1 GTP        -0.1436
     17 C3'         0.1338   -1.6715    1.4027 C.3       1 GTP         0.1111
     18 O3'         1.2893   -1.4445    2.1808 O.3       1 GTP        -0.2728
     19 C2'         0.2158   -1.0724    0.0128 C.3       1 GTP         0.1111
     20 O2'         1.5141   -1.2448   -0.5513 O.3       1 GTP        -0.2728
     21 C1'        -0.7897   -1.9176   -0.7583 C.3       1 GTP         0.2693
     22 N9         -2.1040   -1.3333   -0.7704 N.pl3     1 GTP        -0.3222
     23 C8         -3.0597   -1.5109    0.1345 C.ar      1 GTP         0.1640
     24 N7         -4.1618   -0.8291   -0.1607 N.pl3     1 GTP        -0.3688
     25 C5         -3.8764   -0.1805   -1.3310 C.ar      1 GTP         0.0648
     26 C6         -4.7187    0.7111   -2.1152 C.ar      1 GTP         0.3597
     27 O6         -5.8617    1.0043   -1.7939 O.2       1 GTP        -0.2755
     28 N1         -4.0405    1.1608   -3.2468 N.pl3     1 GTP        -0.1604
     29 C2         -2.7239    0.8013   -3.5822 C.ar      1 GTP         0.4468
     30 N2         -2.2399    1.3534   -4.7394 N.pl3     1 GTP        -0.5618
     31 N3         -2.0053   -0.0071   -2.8402 N.2       1 GTP        -0.4283
     32 C4         -2.6290   -0.4727   -1.7210 C.ar      1 GTP         0.2226
     33 HOB2       -0.7800   -6.6289    7.1071 H         1 GTP         0.2010
     34 H5'        -1.7618   -3.4448    2.4164 H         1 GTP        -0.0393
     35 H5''       -0.1874   -3.8744    3.1341 H         1 GTP        -0.0393
     36 H4'         0.8874   -3.6466    0.8805 H         1 GTP        -0.0393
     37 H3'        -0.7376   -1.2333    1.9867 H         1 GTP        -0.0393
     38 HO3'        1.3408   -0.4870    2.3219 H         1 GTP         0.2010
     39 H2'        -0.0384   -0.0310    0.0096 H         1 GTP        -0.0393
     40 HO2'        2.1463   -0.7958    0.0370 H         1 GTP         0.2010
     41 H1'        -0.4769   -2.1002   -1.8093 H         1 GTP        -0.0393
     42 H8         -2.9610   -2.1316    1.0079 H         1 GTP         0.0000
     43 HN1        -4.5320    1.7923   -3.8726 H         1 GTP         0.0865
     44 HN21       -1.3128    1.1277   -5.0171 H         1 GTP         0.2048
     45 HN22       -2.8342    1.9586   -5.2572 H         1 GTP         0.2048
     46 H46        -5.0195   -0.8034    0.3729 H         1 GTP         0.2048
@<TRIPOS>BOND
     1    1    2 2
     2    1    3 1
     3    1    4 1
     4    1    5 1
     5    5    6 1
     6    6    7 2
     7    6    8 1
     8    6    9 1
     9    8   33 1
    10    9   10 1
    11   10   11 2
    12   10   12 1
    13   10   13 1
    14   13   14 1
    15   14   15 1
    16   14   34 1
    17   14   35 1
    18   15   16 1
    19   15   17 1
    20   15   36 1
    21   16   21 1
    22   17   18 1
    23   17   19 1
    24   17   37 1
    25   18   38 1
    26   19   20 1
    27   19   21 1
    28   19   39 1
    29   20   40 1
    30   21   22 1
    31   21   41 1
    32   22   23 ar
    33   22   32 ar
    34   23   24 ar
    35   23   42 1
    36   24   25 ar
    37   24   46 1
    38   25   26 ar
    39   25   32 ar
    40   26   27 2
    41   26   28 ar
    42   28   29 ar
    43   28   43 1
    44   29   30 1
    45   29   31 ar
    46   30   44 1
    47   30   45 1
    48   31   32 ar
@<TRIPOS>SUBSTRUCTURE
     1 GTP         1 GROUP 0 A     ****
@<TRIPOS>MOLECULE
[[[5-(2-amino-6-oxo-7,8-dihydro-1~{H}-purin-8-ylium-9-yl)-3,4-dihydroxy-tetrahydrofuran-2-yl]methoxy-oxido-phosphoryl]oxy-hydroxy-phosphoryl] phosphate
   46    48     1     0     0
SMALL
USER_CHARGES

@<TRIPOS>ATOM
      1 PG          1.4904    2.2903   -8.6604 P.3       1 GTP        -1.1921
      2 O1G         1.5698    1.0383   -9.5278 O.co2     1 GTP         0.3195
      3 O2G         2.6481    3.2634   -8.8580 O.co2     1 GTP         0.3195
      4 O3G         0.1157    2.9504   -8.6335 O.co2     1 GTP         0.3195
      5 O3B         1.7035    1.7315   -7.1243 O.3       1 GTP         0.4672
      6 PB          0.8389    0.6699   -6.2630 P.3       1 GTP        -0.9715
      7 O1B        -0.5932    1.0565   -6.0391 O.2       1 GTP         0.2707
      8 O2B         1.0537   -0.7144   -7.0705 O.3       1 GTP         0.0326
      9 O3A         1.7198    0.4664   -4.9242 O.3       1 GTP         0.4672
     10 PA          2.1937    1.5414   -3.7917 P.3       1 GTP        -1.1062
     11 O1A         3.1656    2.5106   -4.4289 O.co2     1 GTP         0.3195
     12 O2A         0.9680    2.0337   -3.0536 O.co2     1 GTP         0.3195
     13 O5'         3.0213    0.5153   -2.8245 O.3       1 GTP         0.1618
     14 C5'         2.2816   -0.2918   -1.9206 C.3       1 GTP         0.1504
     15 C4'         2.7248    0.0226   -0.4980 C.3       1 GTP         0.1111
     16 O4'         2.4697    1.4219   -0.2462 O.3       1 GTP        -0.1436
     17 C3'         1.9404   -0.7419    0.5596 C.3       1 GTP         0.1111
     18 O3'         2.7418   -0.8086    1.7389 O.3       1 GTP        -0.2728
     19 C2'         0.7477    0.1630    0.7858 C.3       1 GTP         0.1111
     20 O2'         0.1373   -0.0577    2.0407 O.3       1 GTP        -0.2728
     21 C1'         1.3733    1.5427    0.6747 C.3       1 GTP         0.2693
     22 N9          0.4520    2.5240    0.1767 N.pl3     1 GTP        -0.3222
     23 C8         -0.8613    2.5511    0.3730 C.ar      1 GTP         0.1640
     24 N7         -1.4346    3.5939   -0.2188 N.pl3     1 GTP        -0.3688
     25 C5         -0.4099    4.2657   -0.8276 C.ar      1 GTP         0.0648
     26 C6         -0.4554    5.4854   -1.6209 C.ar      1 GTP         0.3597
     27 O6         -1.4907    6.0944   -1.8508 O.2       1 GTP        -0.2755
     28 N1          0.8205    5.8357   -2.0593 N.pl3     1 GTP        -0.1604
     29 C2          1.9890    5.1091   -1.7730 C.ar      1 GTP         0.4468
     30 N2          3.1452    5.6230   -2.2997 N.pl3     1 GTP        -0.5618
     31 N3          1.9765    4.0139   -1.0514 N.2       1 GTP        -0.4283
     32 C4          0.7480    3.6324   -0.6003 C.ar      1 GTP         0.2226
     33 HOB2        0.6918   -0.7942   -7.9787 H         1 GTP         0.2010
     34 H5'         1.2163   -0.0770   -2.0471 H         1 GTP        -0.0393
     35 H5''        2.4655   -1.3443   -2.1563 H         1 GTP        -0.0393
     36 H4'         3.8044   -0.1397   -0.4040 H         1 GTP        -0.0393
     37 H3'         1.6764   -1.7639    0.2728 H         1 GTP        -0.0393
     38 HO3'        2.2232   -1.2979    2.3953 H         1 GTP         0.2010
     39 H2'        -0.0011    0.0027    0.0003 H         1 GTP        -0.0393
     40 HO2'       -0.1563   -0.9855    2.0596 H         1 GTP         0.2010
     41 H1'         1.7826    1.9024    1.6451 H         1 GTP        -0.0393
     42 H8         -1.4050    1.8187    0.9438 H         1 GTP         0.0000
     43 HN1         0.9121    6.6744   -2.6251 H         1 GTP         0.0865
     44 HN21        3.9971    5.1427   -2.1235 H         1 GTP         0.2048
     45 HN22        3.0881    6.4564   -2.8380 H         1 GTP         0.2048
     46 H46        -2.4173    3.8294   -0.2127 H         1 GTP         0.2048
@<TRIPOS>BOND
     1    1    2 2
     2    1    3 1
     3    1    4 1
     4    1    5 1
     5    5    6 1
     6    6    7 2
     7    6    8 1
     8    6    9 1
     9    8   33 1
    10    9   10 1
    11   10   11 2
    12   10   12 1
    13   10   13 1
    14   13   14 1
    15   14   15 1
    16   14   34 1
    17   14   35 1
    18   15   16 1
    19   15   17 1
    20   15   36 1
    21   16   21 1
    22   17   18 1
    23   17   19 1
    24   17   37 1
    25   18   38 1
    26   19   20 1
    27   19   21 1
    28   19   39 1
    29   20   40 1
    30   21   22 1
    31   21   41 1
    32   22   23 ar
    33   22   32 ar
    34   23   24 ar
    35   23   42 1
    36   24   25 ar
    37   24   46 1
    38   25   26 ar
    39   25   32 ar
    40   26   27 2
    41   26   28 ar
    42   28   29 ar
    43   28   43 1
    44   29   30 1
    45   29   31 ar
    46   30   44 1
    47   30   45 1
    48   31   32 ar
@<TRIPOS>SUBSTRUCTURE
     1 GTP         1 GROUP 0 A     ****
@<TRIPOS>MOLECULE
[[[5-(2-amino-6-oxo-7,8-dihydro-1~{H}-purin-8-ylium-9-yl)-3,4-dihydroxy-tetrahydrofuran-2-yl]methoxy-oxido-phosphoryl]oxy-hydroxy-phosphoryl] phosphate
   46    48     1     0     0
SMALL
USER_CHARGES

@<TRIPOS>ATOM
      1 PG          2.1326   -9.6375    2.2724 P.3       1 GTP        -1.1921
      2 O1G         3.0469   -9.8549    3.4736 O.co2     1 GTP         0.3195
      3 O2G         2.8684   -9.3178    0.9752 O.co2     1 GTP         0.3195
      4 O3G         1.0291  -10.6799    2.1253 O.co2     1 GTP         0.3195
      5 O3B         1.3293   -8.2416    2.6238 O.3       1 GTP         0.4672
      6 PB          0.3537   -7.8735    3.8604 P.3       1 GTP        -0.9715
      7 O1B        -0.8697   -8.7338    3.9765 O.2       1 GTP         0.2707
      8 O2B         1.3471   -7.9244    5.1351 O.3       1 GTP         0.0326
      9 O3A         0.0751   -6.2947    3.6619 O.3       1 GTP         0.4672
     10 PA          1.1060   -5.0301    3.6333 P.3       1 GTP        -1.1062
     11 O1A         1.7093   -4.8732    5.0121 O.co2     1 GTP         0.3195
     12 O2A         1.9815   -5.1514    2.4051 O.co2     1 GTP         0.3195
     13 O5'         0.0118   -3.8395    3.3916 O.3       1 GTP         0.1618
     14 C5'        -0.7840   -3.8935    2.2172 C.3       1 GTP         0.1504
     15 C4'        -0.0724   -3.1466    1.1027 C.3       1 GTP         0.1111
     16 O4'        -0.8674   -3.1929   -0.0945 O.3       1 GTP        -0.1436
     17 C3'         0.1338   -1.6715    1.4027 C.3       1 GTP         0.1111
     18 O3'         1.2893   -1.4445    2.1808 O.3       1 GTP        -0.2728
     19 C2'         0.2158   -1.0724    0.0128 C.3       1 GTP         0.1111
     20 O2'         1.5141   -1.2448   -0.5513 O.3       1 GTP        -0.2728
     21 C1'        -0.7897   -1.9176   -0.7583 C.3       1 GTP         0.2693
     22 N9         -2.1040   -1.3333   -0.7704 N.pl3     1 GTP        -0.3222
     23 C8         -3.0597   -1.5109    0.1345 C.ar      1 GTP         0.1640
     24 N7         -4.1618   -0.8291   -0.1607 N.pl3     1 GTP        -0.3688
     25 C5         -3.8764   -0.1805   -1.3310 C.ar      1 GTP         0.0648
     26 C6         -4.7187    0.7111   -2.1152 C.ar      1 GTP         0.3597
     27 O6         -5.8617    1.0043   -1.7939 O.2       1 GTP        -0.2755
     28 N1         -4.0405    1.1608   -3.2468 N.pl3     1 GTP        -0.1604
     29 C2         -2.7239    0.8013   -3.5822 C.ar      1 GTP         0.4468
     30 N2         -2.2399    1.3534   -4.7394 N.pl3     1 GTP        -0.5618
     31 N3         -2.0053   -0.0071   -2.8402 N.2       1 GTP        -0.4283
     32 C4         -2.6290   -0.4727   -1.7210 C.ar      1 GTP         0.2226
     33 HOB2        1.0059   -7.6508    6.0130 H         1 GTP         0.2010
     34 H5'        -0.9348   -4.9415    1.9415 H         1 GTP        -0.0393
     35 H5''       -1.7548   -3.4350    2.4278 H         1 GTP        -0.0393
     36 H4'         0.8874   -3.6466    0.8805 H         1 GTP        -0.0393
     37 H3'        -0.7376   -1.2333    1.9867 H         1 GTP        -0.0393
     38 HO3'        1.1626   -1.9325    3.0084 H         1 GTP         0.2010
     39 H2'        -0.0384   -0.0310    0.0096 H         1 GTP        -0.0393
     40 HO2'        2.1463   -0.7958    0.0370 H         1 GTP         0.2010
     41 H1'        -0.4769   -2.1002   -1.8093 H         1 GTP        -0.0393
     42 H8         -2.9610   -2.1316    1.0079 H         1 GTP         0.0000
     43 HN1        -4.5320    1.7923   -3.8726 H         1 GTP         0.0865
     44 HN21       -1.3128    1.1277   -5.0171 H         1 GTP         0.2048
     45 HN22       -2.8342    1.9586   -5.2572 H         1 GTP         0.2048
     46 H46        -5.0195   -0.8034    0.3729 H         1 GTP         0.2048
@<TRIPOS>BOND
     1    1    2 2
     2    1    3 1
     3    1    4 1
     4    1    5 1
     5    5    6 1
     6    6    7 2
     7    6    8 1
     8    6    9 1
     9    8   33 1
    10    9   10 1
    11   10   11 2
    12   10   12 1
    13   10   13 1
    14   13   14 1
    15   14   15 1
    16   14   34 1
    17   14   35 1
    18   15   16 1
    19   15   17 1
    20   15   36 1
    21   16   21 1
    22   17   18 1
    23   17   19 1
    24   17   37 1
    25   18   38 1
    26   19   20 1
    27   19   21 1
    28   19   39 1
    29   20   40 1
    30   21   22 1
    31   21   41 1
    32   22   23 ar
    33   22   32 ar
    34   23   24 ar
    35   23   42 1
    36   24   25 ar
    37   24   46 1
    38   25   26 ar
    39   25   32 ar
    40   26   27 2
    41   26   28 ar
    42   28   29 ar
    43   28   43 1
    44   29   30 1
    45   29   31 ar
    46   30   44 1
    47   30   45 1
    48   31   32 ar
@<TRIPOS>SUBSTRUCTURE
     1 GTP         1 GROUP 0 A     ****
@<TRIPOS>MOLECULE
[[[5-(2-amino-6-oxo-7,8-dihydro-1~{H}-purin-8-ylium-9-yl)-3,4-dihydroxy-tetrahydrofuran-2-yl]methoxy-oxido-phosphoryl]oxy-hydroxy-phosphoryl] phosphate
   46    48     1     0     0
SMALL
USER_CHARGES

@<TRIPOS>ATOM
      1 PG         -1.2564    0.7349   -5.5982 P.3       1 GTP        -1.1921
      2 O1G        -1.0299    0.9225   -7.0947 O.co2     1 GTP         0.3195
      3 O2G        -2.7210    0.7853   -5.1754 O.co2     1 GTP         0.3195
      4 O3G        -0.4665   -0.4150   -4.9820 O.co2     1 GTP         0.3195
      5 O3B        -0.6035    2.0872   -4.9183 O.3       1 GTP         0.4672
      6 PB          0.9089    2.6592   -4.9607 P.3       1 GTP        -0.9715
      7 O1B         1.4284    2.9675   -6.3339 O.2       1 GTP         0.2707
      8 O2B         0.8481    3.9233   -3.9544 O.3       1 GTP         0.0326
      9 O3A         1.7506    1.5572   -4.1320 O.3       1 GTP         0.4672
     10 PA          3.2070    1.6613   -3.4034 P.3       1 GTP        -1.1062
     11 O1A         4.2642    1.8423   -4.4707 O.co2     1 GTP         0.3195
     12 O2A         3.0952    2.6238   -2.2412 O.co2     1 GTP         0.3195
     13 O5'         3.2903    0.1346   -2.8241 O.3       1 GTP         0.1618
     14 C5'         2.2816   -0.2918   -1.9206 C.3       1 GTP         0.1504
     15 C4'         2.7248    0.0226   -0.4980 C.3       1 GTP         0.1111
     16 O4'         2.4697    1.4219   -0.2462 O.3       1 GTP        -0.1436
     17 C3'         1.9404   -0.7419    0.5596 C.3       1 GTP         0.1111
     18 O3'         2.7418   -0.8086    1.7389 O.3       1 GTP        -0.2728
     19 C2'         0.7477    0.1630    0.7858 C.3       1 GTP         0.1111
     20 O2'         0.1373   -0.0577    2.0407 O.3       1 GTP        -0.2728
     21 C1'         1.3733    1.5427    0.6747 C.3       1 GTP         0.2693
     22 N9          0.4520    2.5240    0.1767 N.pl3     1 GTP        -0.3222
     23 C8         -0.2009    2.4849   -0.9792 C.ar      1 GTP         0.1640
     24 N7         -0.9840    3.5454   -1.1481 N.pl3     1 GTP        -0.3688
     25 C5         -0.8090    4.3005   -0.0206 C.ar      1 GTP         0.0648
     26 C6         -1.4206    5.5724    0.3362 C.ar      1 GTP         0.3597
     27 O6         -2.2199    6.1544   -0.3836 O.2       1 GTP        -0.2755
     28 N1         -0.9680    6.0043    1.5817 N.pl3     1 GTP        -0.1604
     29 C2         -0.0474    5.3055    2.3814 C.ar      1 GTP         0.4468
     30 N2          0.2680    5.9024    3.5740 N.pl3     1 GTP        -0.5618
     31 N3          0.4755    4.1601    2.0138 N.2       1 GTP        -0.4283
     32 C4          0.0611    3.6981    0.8001 C.ar      1 GTP         0.2226
     33 HOB2        1.6789    4.3988   -3.7402 H         1 GTP         0.2010
     34 H5'         1.3514    0.2330   -2.1577 H         1 GTP        -0.0393
     35 H5''        2.1280   -1.3678   -2.0460 H         1 GTP        -0.0393
     36 H4'         3.8044   -0.1397   -0.4040 H         1 GTP        -0.0393
     37 H3'         1.6764   -1.7639    0.2728 H         1 GTP        -0.0393
     38 HO3'        2.2232   -1.2979    2.3953 H         1 GTP         0.2010
     39 H2'        -0.0011    0.0027    0.0003 H         1 GTP        -0.0393
     40 HO2'       -0.6141    0.5574    2.1082 H         1 GTP         0.2010
     41 H1'         1.7826    1.9024    1.6451 H         1 GTP        -0.0393
     42 H8         -0.1126    1.6906   -1.6997 H         1 GTP         0.0000
     43 HN1        -1.3285    6.8855    1.9361 H         1 GTP         0.0865
     44 HN21        0.9153    5.4446    4.1732 H         1 GTP         0.2048
     45 HN22       -0.1624    6.7706    3.7948 H         1 GTP         0.2048
     46 H46        -1.5768    3.7405   -1.9429 H         1 GTP         0.2048
@<TRIPOS>BOND
     1    1    2 2
     2    1    3 1
     3    1    4 1
     4    1    5 1
     5    5    6 1
     6    6    7 2
     7    6    8 1
     8    6    9 1
     9    8   33 1
    10    9   10 1
    11   10   11 2
    12   10   12 1
    13   10   13 1
    14   13   14 1
    15   14   15 1
    16   14   34 1
    17   14   35 1
    18   15   16 1
    19   15   17 1
    20   15   36 1
    21   16   21 1
    22   17   18 1
    23   17   19 1
    24   17   37 1
    25   18   38 1
    26   19   20 1
    27   19   21 1
    28   19   39 1
    29   20   40 1
    30   21   22 1
    31   21   41 1
    32   22   23 ar
    33   22   32 ar
    34   23   24 ar
    35   23   42 1
    36   24   25 ar
    37   24   46 1
    38   25   26 ar
    39   25   32 ar
    40   26   27 2
    41   26   28 ar
    42   28   29 ar
    43   28   43 1
    44   29   30 1
    45   29   31 ar
    46   30   44 1
    47   30   45 1
    48   31   32 ar
@<TRIPOS>SUBSTRUCTURE
     1 GTP         1 GROUP 0 A     ****
@<TRIPOS>MOLECULE
[[[5-(2-amino-6-oxo-7,8-dihydro-1~{H}-purin-8-ylium-9-yl)-3,4-dihydroxy-tetrahydrofuran-2-yl]methoxy-oxido-phosphoryl]oxy-hydroxy-phosphoryl] phosphate
   46    48     1     0     0
SMALL
USER_CHARGES

@<TRIPOS>ATOM
      1 PG          4.3903   -7.6436    0.9606 P.3       1 GTP        -1.1921
      2 O1G         4.9883   -6.9068   -0.2334 O.co2     1 GTP         0.3195
      3 O2G         3.4465   -8.7815    0.5856 O.co2     1 GTP         0.3195
      4 O3G         5.3979   -7.9992    2.0489 O.co2     1 GTP         0.3195
      5 O3B         3.4026   -6.5300    1.6689 O.3       1 GTP         0.4672
      6 PB          3.7379   -5.0797    2.3018 P.3       1 GTP        -0.9715
      7 O1B         4.7131   -5.0990    3.4416 O.2       1 GTP         0.2707
      8 O2B         4.2092   -4.2215    1.0151 O.3       1 GTP         0.0326
      9 O3A         2.2805   -4.4741    2.6462 O.3       1 GTP         0.4672
     10 PA          1.1060   -5.0301    3.6333 P.3       1 GTP        -1.1062
     11 O1A         0.5666   -6.3205    3.0556 O.co2     1 GTP         0.3195
     12 O2A         1.6042   -4.9593    5.0603 O.co2     1 GTP         0.3195
     13 O5'         0.0118   -3.8395    3.3916 O.3       1 GTP         0.1618
     14 C5'        -0.7840   -3.8935    2.2172 C.3       1 GTP         0.1504
     15 C4'        -0.0724   -3.1466    1.1027 C.3       1 GTP         0.1111
     16 O4'        -0.8674   -3.1929   -0.0945 O.3       1 GTP        -0.1436
     17 C3'         0.1338   -1.6715    1.4027 C.3       1 GTP         0.1111
     18 O3'         1.2893   -1.4445    2.1808 O.3       1 GTP        -0.2728
     19 C2'         0.2158   -1.0724    0.0128 C.3       1 GTP         0.1111
     20 O2'         1.5141   -1.2448   -0.5513 O.3       1 GTP        -0.2728
     21 C1'        -0.7897   -1.9176   -0.7583 C.3       1 GTP         0.2693
     22 N9         -2.1040   -1.3333   -0.7704 N.pl3     1 GTP        -0.3222
     23 C8         -3.0597   -1.5109    0.1345 C.ar      1 GTP         0.1640
     24 N7         -4.1618   -0.8291   -0.1607 N.pl3     1 GTP        -0.3688
     25 C5         -3.8764   -0.1805   -1.3310 C.ar      1 GTP         0.0648
     26 C6         -4.7187    0.7111   -2.1152 C.ar      1 GTP         0.3597
     27 O6         -5.8617    1.0043   -1.7939 O.2       1 GTP        -0.2755
     28 N1         -4.0405    1.1608   -3.2468 N.pl3     1 GTP        -0.1604
     29 C2         -2.7239    0.8013   -3.5822 C.ar      1 GTP         0.4468
     30 N2         -2.2399    1.3534   -4.7394 N.pl3     1 GTP        -0.5618
     31 N3         -2.0053   -0.0071   -2.8402 N.2       1 GTP        -0.4283
     32 C4         -2.6290   -0.4727   -1.7210 C.ar      1 GTP         0.2226
     33 HOB2        5.0359   -4.4761    0.5526 H         1 GTP         0.2010
     34 H5'        -0.9348   -4.9415    1.9415 H         1 GTP        -0.0393
     35 H5''       -1.7548   -3.4350    2.4278 H         1 GTP        -0.0393
     36 H4'         0.8874   -3.6466    0.8805 H         1 GTP        -0.0393
     37 H3'        -0.7376   -1.2333    1.9867 H         1 GTP        -0.0393
     38 HO3'        1.1626   -1.9325    3.0084 H         1 GTP         0.2010
     39 H2'        -0.0384   -0.0310    0.0096 H         1 GTP        -0.0393
     40 HO2'        2.1463   -0.7958    0.0370 H         1 GTP         0.2010
     41 H1'        -0.4769   -2.1002   -1.8093 H         1 GTP        -0.0393
     42 H8         -2.9610   -2.1316    1.0079 H         1 GTP         0.0000
     43 HN1        -4.5320    1.7923   -3.8726 H         1 GTP         0.0865
     44 HN21       -1.3128    1.1277   -5.0171 H         1 GTP         0.2048
     45 HN22       -2.8342    1.9586   -5.2572 H         1 GTP         0.2048
     46 H46        -5.0195   -0.8034    0.3729 H         1 GTP         0.2048
@<TRIPOS>BOND
     1    1    2 2
     2    1    3 1
     3    1    4 1
     4    1    5 1
     5    5    6 1
     6    6    7 2
     7    6    8 1
     8    6    9 1
     9    8   33 1
    10    9   10 1
    11   10   11 2
    12   10   12 1
    13   10   13 1
    14   13   14 1
    15   14   15 1
    16   14   34 1
    17   14   35 1
    18   15   16 1
    19   15   17 1
    20   15   36 1
    21   16   21 1
    22   17   18 1
    23   17   19 1
    24   17   37 1
    25   18   38 1
    26   19   20 1
    27   19   21 1
    28   19   39 1
    29   20   40 1
    30   21   22 1
    31   21   41 1
    32   22   23 ar
    33   22   32 ar
    34   23   24 ar
    35   23   42 1
    36   24   25 ar
    37   24   46 1
    38   25   26 ar
    39   25   32 ar
    40   26   27 2
    41   26   28 ar
    42   28   29 ar
    43   28   43 1
    44   29   30 1
    45   29   31 ar
    46   30   44 1
    47   30   45 1
    48   31   32 ar
@<TRIPOS>SUBSTRUCTURE
     1 GTP         1 GROUP 0 A     ****
@<TRIPOS>MOLECULE
[[[5-(2-amino-6-oxo-7,8-dihydro-1~{H}-purin-8-ylium-9-yl)-3,4-dihydroxy-tetrahydrofuran-2-yl]methoxy-oxido-phosphoryl]oxy-hydroxy-phosphoryl] phosphate
   46    48     1     0     0
SMALL
USER_CHARGES

@<TRIPOS>ATOM
      1 PG          7.0345   -4.0431   -2.4304 P.3       1 GTP        -1.1921
      2 O1G         8.2106   -3.5825   -3.2852 O.co2     1 GTP         0.3195
      3 O2G         6.6145   -5.4896   -2.6706 O.co2     1 GTP         0.3195
      4 O3G         7.1380   -3.6577   -0.9584 O.co2     1 GTP         0.3195
      5 O3B         5.7582   -3.1641   -2.9923 O.3       1 GTP         0.4672
      6 PB          5.5276   -1.5641   -3.0479 P.3       1 GTP        -0.9715
      7 O1B         5.5535   -0.8762   -1.7149 O.2       1 GTP         0.2707
      8 O2B         6.6581   -1.0697   -4.0928 O.3       1 GTP         0.0326
      9 O3A         4.1516   -1.4116   -3.8803 O.3       1 GTP         0.4672
     10 PA          3.3181   -0.0790   -4.3186 P.3       1 GTP        -1.1062
     11 O1A         4.2597    0.8575   -5.0438 O.co2     1 GTP         0.3195
     12 O2A         2.0109   -0.5139   -4.9444 O.co2     1 GTP         0.3195
     13 O5'         3.0213    0.5153   -2.8245 O.3       1 GTP         0.1618
     14 C5'         2.2816   -0.2918   -1.9206 C.3       1 GTP         0.1504
     15 C4'         2.7248    0.0226   -0.4980 C.3       1 GTP         0.1111
     16 O4'         2.4697    1.4219   -0.2462 O.3       1 GTP        -0.1436
     17 C3'         1.9404   -0.7419    0.5596 C.3       1 GTP         0.1111
     18 O3'         2.7418   -0.8086    1.7389 O.3       1 GTP        -0.2728
     19 C2'         0.7477    0.1630    0.7858 C.3       1 GTP         0.1111
     20 O2'         0.1373   -0.0577    2.0407 O.3       1 GTP        -0.2728
     21 C1'         1.3733    1.5427    0.6747 C.3       1 GTP         0.2693
     22 N9          0.4520    2.5240    0.1767 N.pl3     1 GTP        -0.3222
     23 C8         -0.6818    2.9109    0.7501 C.ar      1 GTP         0.1640
     24 N7         -1.3103    3.8415    0.0391 N.pl3     1 GTP        -0.3688
     25 C5         -0.5155    4.0512   -1.0547 C.ar      1 GTP         0.0648
     26 C6         -0.7125    4.9651   -2.1705 C.ar      1 GTP         0.3597
     27 O6         -1.6819    5.7047   -2.2651 O.2       1 GTP        -0.2755
     28 N1          0.3401    4.8672   -3.0790 N.pl3     1 GTP        -0.1604
     29 C2          1.4396    4.0039   -2.9348 C.ar      1 GTP         0.4468
     30 N2          2.3679    4.0602   -3.9414 N.pl3     1 GTP        -0.5618
     31 N3          1.5708    3.1983   -1.9080 N.2       1 GTP        -0.4283
     32 C4          0.5630    3.2599   -0.9921 C.ar      1 GTP         0.2226
     33 HOB2        6.6713   -0.1277   -4.3661 H         1 GTP         0.2010
     34 H5'         1.2163   -0.0770   -2.0471 H         1 GTP        -0.0393
     35 H5''        2.4655   -1.3443   -2.1563 H         1 GTP        -0.0393
     36 H4'         3.8044   -0.1397   -0.4040 H         1 GTP        -0.0393
     37 H3'         1.6764   -1.7639    0.2728 H         1 GTP        -0.0393
     38 HO3'        2.2232   -1.2979    2.3953 H         1 GTP         0.2010
     39 H2'        -0.0011    0.0027    0.0003 H         1 GTP        -0.0393
     40 HO2'       -0.1563   -0.9855    2.0596 H         1 GTP         0.2010
     41 H1'         1.7826    1.9024    1.6451 H         1 GTP        -0.0393
     42 H8         -1.0545    2.5222    1.6816 H         1 GTP         0.0000
     43 HN1         0.3104    5.4612   -3.9026 H         1 GTP         0.0865
     44 HN21        3.1632    3.4672   -3.8824 H         1 GTP         0.2048
     45 HN22        2.2108    4.6918   -4.6924 H         1 GTP         0.2048
     46 H46        -2.1863    4.2902    0.2681 H         1 GTP         0.2048
@<TRIPOS>BOND
     1    1    2 2
     2    1    3 1
     3    1    4 1
     4    1    5 1
     5    5    6 1
     6    6    7 2
     7    6    8 1
     8    6    9 1
     9    8   33 1
    10    9   10 1
    11   10   11 2
    12   10   12 1
    13   10   13 1
    14   13   14 1
    15   14   15 1
    16   14   34 1
    17   14   35 1
    18   15   16 1
    19   15   17 1
    20   15   36 1
    21   16   21 1
    22   17   18 1
    23   17   19 1
    24   17   37 1
    25   18   38 1
    26   19   20 1
    27   19   21 1
    28   19   39 1
    29   20   40 1
    30   21   22 1
    31   21   41 1
    32   22   23 ar
    33   22   32 ar
    34   23   24 ar
    35   23   42 1
    36   24   25 ar
    37   24   46 1
    38   25   26 ar
    39   25   32 ar
    40   26   27 2
    41   26   28 ar
    42   28   29 ar
    43   28   43 1
    44   29   30 1
    45   29   31 ar
    46   30   44 1
    47   30   45 1
    48   31   32 ar
@<TRIPOS>SUBSTRUCTURE
     1 GTP         1 GROUP 0 A     ****
@<TRIPOS>MOLECULE
[[[5-(2-amino-6-oxo-7,8-dihydro-1~{H}-purin-8-ylium-9-yl)-3,4-dihydroxy-tetrahydrofuran-2-yl]methoxy-oxido-phosphoryl]oxy-hydroxy-phosphoryl] phosphate
   46    48     1     0     0
SMALL
USER_CHARGES

@<TRIPOS>ATOM
      1 PG          4.6916   -1.3661   -7.6628 P.3       1 GTP        -1.1921
      2 O1G         4.3417   -2.7027   -8.3087 O.co2     1 GTP         0.3195
      3 O2G         5.8465   -0.6296   -8.3339 O.co2     1 GTP         0.3195
      4 O3G         3.4869   -0.4856   -7.3475 O.co2     1 GTP         0.3195
      5 O3B         5.2931   -1.7773   -6.1841 O.3       1 GTP         0.4672
      6 PB          4.6072   -2.5755   -4.9557 P.3       1 GTP        -0.9715
      7 O1B         3.7529   -3.7408   -5.3592 O.2       1 GTP         0.2707
      8 O2B         5.8680   -2.9474   -4.0144 O.3       1 GTP         0.0326
      9 O3A         3.8490   -1.4129   -4.1292 O.3       1 GTP         0.4672
     10 PA          4.4330   -0.0741   -3.4017 P.3       1 GTP        -1.1062
     11 O1A         5.3014   -0.5016   -2.2386 O.co2     1 GTP         0.3195
     12 O2A         4.9584    0.8620   -4.4682 O.co2     1 GTP         0.3195
     13 O5'         3.0213    0.5153   -2.8245 O.3       1 GTP         0.1618
     14 C5'         2.2816   -0.2918   -1.9206 C.3       1 GTP         0.1504
     15 C4'         2.7248    0.0226   -0.4980 C.3       1 GTP         0.1111
     16 O4'         2.4697    1.4219   -0.2462 O.3       1 GTP        -0.1436
     17 C3'         1.9404   -0.7419    0.5596 C.3       1 GTP         0.1111
     18 O3'         2.7418   -0.8086    1.7389 O.3       1 GTP        -0.2728
     19 C2'         0.7477    0.1630    0.7858 C.3       1 GTP         0.1111
     20 O2'         0.1373   -0.0577    2.0407 O.3       1 GTP        -0.2728
     21 C1'         1.3733    1.5427    0.6747 C.3       1 GTP         0.2693
     22 N9          0.4520    2.5240    0.1767 N.pl3     1 GTP        -0.3222
     23 C8          0.5671    3.2221   -0.9473 C.ar      1 GTP         0.1640
     24 N7         -0.4560    4.0508   -1.1290 N.pl3     1 GTP        -0.3688
     25 C5         -1.2671    3.8585   -0.0441 C.ar      1 GTP         0.0648
     26 C6         -2.5318    4.5014    0.2817 C.ar      1 GTP         0.3597
     27 O6         -3.0527    5.3493   -0.4293 O.2       1 GTP        -0.2755
     28 N1         -3.0357    4.0149    1.4868 N.pl3     1 GTP        -0.1604
     29 C2         -2.4069    3.0373    2.2768 C.ar      1 GTP         0.4468
     30 N2         -3.0679    2.6964    3.4278 N.pl3     1 GTP        -0.5618
     31 N3         -1.2653    2.4872    1.9379 N.2       1 GTP        -0.4283
     32 C4         -0.7342    2.9334    0.7643 C.ar      1 GTP         0.2226
     33 HOB2        6.4653   -2.2285   -3.7164 H         1 GTP         0.2010
     34 H5'         1.2163   -0.0770   -2.0471 H         1 GTP        -0.0393
     35 H5''        2.4655   -1.3443   -2.1563 H         1 GTP        -0.0393
     36 H4'         3.8044   -0.1397   -0.4040 H         1 GTP        -0.0393
     37 H3'         1.6764   -1.7639    0.2728 H         1 GTP        -0.0393
     38 HO3'        2.2232   -1.2979    2.3953 H         1 GTP         0.2010
     39 H2'        -0.0011    0.0027    0.0003 H         1 GTP        -0.0393
     40 HO2'       -0.1563   -0.9855    2.0596 H         1 GTP         0.2010
     41 H1'         1.7826    1.9024    1.6451 H         1 GTP        -0.0393
     42 H8          1.3888    3.1325   -1.6361 H         1 GTP         0.0000
     43 HN1        -3.9188    4.3932    1.8170 H         1 GTP         0.0865
     44 HN21       -2.6609    2.0087    4.0186 H         1 GTP         0.2048
     45 HN22       -3.9293    3.1496    3.6283 H         1 GTP         0.2048
     46 H46        -0.5938    4.6820   -1.9060 H         1 GTP         0.2048
@<TRIPOS>BOND
     1    1    2 2
     2    1    3 1
     3    1    4 1
     4    1    5 1
     5    5    6 1
     6    6    7 2
     7    6    8 1
     8    6    9 1
     9    8   33 1
    10    9   10 1
    11   10   11 2
    12   10   12 1
    13   10   13 1
    14   13   14 1
    15   14   15 1
    16   14   34 1
    17   14   35 1
    18   15   16 1
    19   15   17 1
    20   15   36 1
    21   16   21 1
    22   17   18 1
    23   17   19 1
    24   17   37 1
    25   18   38 1
    26   19   20 1
    27   19   21 1
    28   19   39 1
    29   20   40 1
    30   21   22 1
    31   21   41 1
    32   22   23 ar
    33   22   32 ar
    34   23   24 ar
    35   23   42 1
    36   24   25 ar
    37   24   46 1
    38   25   26 ar
    39   25   32 ar
    40   26   27 2
    41   26   28 ar
    42   28   29 ar
    43   28   43 1
    44   29   30 1
    45   29   31 ar
    46   30   44 1
    47   30   45 1
    48   31   32 ar
@<TRIPOS>SUBSTRUCTURE
     1 GTP         1 GROUP 0 A     ****
@<TRIPOS>MOLECULE
[[[5-(2-amino-6-oxo-7,8-dihydro-1~{H}-purin-8-ylium-9-yl)-3,4-dihydroxy-tetrahydrofuran-2-yl]methoxy-oxido-phosphoryl]oxy-hydroxy-phosphoryl] phosphate
   46    48     1     0     0
SMALL
USER_CHARGES

@<TRIPOS>ATOM
      1 PG          8.3557   -3.8784   -1.5058 P.3       1 GTP        -1.1921
      2 O1G         9.0167   -3.3687   -2.7823 O.co2     1 GTP         0.3195
      3 O2G         7.9954   -5.3602   -1.5359 O.co2     1 GTP         0.3195
      4 O3G         9.0401   -3.4268   -0.2198 O.co2     1 GTP         0.3195
      5 O3B         6.8934   -3.1181   -1.4769 O.3       1 GTP         0.4672
      6 PB          6.5288   -1.5427   -1.4389 P.3       1 GTP        -0.9715
      7 O1B         7.0592   -0.8010   -0.2476 O.2       1 GTP         0.2707
      8 O2B         7.0653   -1.0105   -2.8683 O.3       1 GTP         0.0326
      9 O3A         4.9224   -1.5247   -1.6082 O.3       1 GTP         0.4672
     10 PA          3.9759   -2.0799   -2.8160 P.3       1 GTP        -1.1062
     11 O1A         4.2362   -1.2445   -4.0505 O.co2     1 GTP         0.3195
     12 O2A         4.0825   -3.5888   -2.8552 O.co2     1 GTP         0.3195
     13 O5'         2.5245   -1.6648   -2.1878 O.3       1 GTP         0.1618
     14 C5'         2.2816   -0.2918   -1.9206 C.3       1 GTP         0.1504
     15 C4'         2.7248    0.0226   -0.4980 C.3       1 GTP         0.1111
     16 O4'         2.4697    1.4219   -0.2462 O.3       1 GTP        -0.1436
     17 C3'         1.9404   -0.7419    0.5596 C.3       1 GTP         0.1111
     18 O3'         2.7418   -0.8086    1.7389 O.3       1 GTP        -0.2728
     19 C2'         0.7477    0.1630    0.7858 C.3       1 GTP         0.1111
     20 O2'         0.1373   -0.0577    2.0407 O.3       1 GTP        -0.2728
     21 C1'         1.3733    1.5427    0.6747 C.3       1 GTP         0.2693
     22 N9          0.4520    2.5240    0.1767 N.pl3     1 GTP        -0.3222
     23 C8          0.2203    2.8205   -1.0970 C.ar      1 GTP         0.1640
     24 N7         -0.6947    3.7752   -1.2304 N.pl3     1 GTP        -0.3688
     25 C5         -1.0607    4.0987    0.0476 C.ar      1 GTP         0.0648
     26 C6         -2.0310    5.0839    0.5029 C.ar      1 GTP         0.3597
     27 O6         -2.6779    5.7867   -0.2609 O.2       1 GTP        -0.2755
     28 N1         -2.1030    5.0975    1.8948 N.pl3     1 GTP        -0.1604
     29 C2         -1.3422    4.2721    2.7403 C.ar      1 GTP         0.4468
     30 N2         -1.5624    4.4419    4.0823 N.pl3     1 GTP        -0.5618
     31 N3         -0.4796    3.3981    2.2792 N.2       1 GTP        -0.4283
     32 C4         -0.3754    3.3496    0.9208 C.ar      1 GTP         0.2226
     33 HOB2        6.8833   -0.0819   -3.1269 H         1 GTP         0.2010
     34 H5'         2.8432    0.3119   -2.6398 H         1 GTP        -0.0393
     35 H5''        1.2128   -0.0927   -2.0428 H         1 GTP        -0.0393
     36 H4'         3.8044   -0.1397   -0.4040 H         1 GTP        -0.0393
     37 H3'         1.6764   -1.7639    0.2728 H         1 GTP        -0.0393
     38 HO3'        3.5554   -1.2733    1.4914 H         1 GTP         0.2010
     39 H2'        -0.0011    0.0027    0.0003 H         1 GTP        -0.0393
     40 HO2'       -0.6141    0.5574    2.1082 H         1 GTP         0.2010
     41 H1'         1.7826    1.9024    1.6451 H         1 GTP        -0.0393
     42 H8          0.7110    2.3472   -1.9295 H         1 GTP         0.0000
     43 HN1        -2.7504    5.7495    2.3282 H         1 GTP         0.0865
     44 HN21       -1.0467    3.8796    4.7190 H         1 GTP         0.2048
     45 HN22       -2.2294    5.1209    4.3680 H         1 GTP         0.2048
     46 H46        -1.0382    4.1687   -2.0954 H         1 GTP         0.2048
@<TRIPOS>BOND
     1    1    2 2
     2    1    3 1
     3    1    4 1
     4    1    5 1
     5    5    6 1
     6    6    7 2
     7    6    8 1
     8    6    9 1
     9    8   33 1
    10    9   10 1
    11   10   11 2
    12   10   12 1
    13   10   13 1
    14   13   14 1
    15   14   15 1
    16   14   34 1
    17   14   35 1
    18   15   16 1
    19   15   17 1
    20   15   36 1
    21   16   21 1
    22   17   18 1
    23   17   19 1
    24   17   37 1
    25   18   38 1
    26   19   20 1
    27   19   21 1
    28   19   39 1
    29   20   40 1
    30   21   22 1
    31   21   41 1
    32   22   23 ar
    33   22   32 ar
    34   23   24 ar
    35   23   42 1
    36   24   25 ar
    37   24   46 1
    38   25   26 ar
    39   25   32 ar
    40   26   27 2
    41   26   28 ar
    42   28   29 ar
    43   28   43 1
    44   29   30 1
    45   29   31 ar
    46   30   44 1
    47   30   45 1
    48   31   32 ar
@<TRIPOS>SUBSTRUCTURE
     1 GTP         1 GROUP 0 A     ****
@<TRIPOS>MOLECULE
[[[5-(2-amino-6-oxo-7,8-dihydro-1~{H}-purin-8-ylium-9-yl)-3,4-dihydroxy-tetrahydrofuran-2-yl]methoxy-oxido-phosphoryl]oxy-hydroxy-phosphoryl] phosphate
   46    48     1     0     0
SMALL
USER_CHARGES

@<TRIPOS>ATOM
      1 PG          1.1705    3.3988   -7.8212 P.3       1 GTP        -1.1921
      2 O1G        -0.2259    2.8646   -8.1228 O.co2     1 GTP         0.3195
      3 O2G         2.2380    2.9590   -8.8178 O.co2     1 GTP         0.3195
      4 O3G         1.2140    4.8828   -7.4718 O.co2     1 GTP         0.3195
      5 O3B         1.6002    2.6389   -6.4229 O.3       1 GTP         0.4672
      6 PB          0.9089    2.6592   -4.9607 P.3       1 GTP        -0.9715
      7 O1B         0.8200    4.0145   -4.3237 O.2       1 GTP         0.2707
      8 O2B        -0.5121    1.9327   -5.2200 O.3       1 GTP         0.0326
      9 O3A         1.7506    1.5572   -4.1320 O.3       1 GTP         0.4672
     10 PA          3.2070    1.6613   -3.4034 P.3       1 GTP        -1.1062
     11 O1A         4.2642    1.8423   -4.4707 O.co2     1 GTP         0.3195
     12 O2A         3.0952    2.6238   -2.2412 O.co2     1 GTP         0.3195
     13 O5'         3.2903    0.1346   -2.8241 O.3       1 GTP         0.1618
     14 C5'         2.2816   -0.2918   -1.9206 C.3       1 GTP         0.1504
     15 C4'         2.7248    0.0226   -0.4980 C.3       1 GTP         0.1111
     16 O4'         2.4697    1.4219   -0.2462 O.3       1 GTP        -0.1436
     17 C3'         1.9404   -0.7419    0.5596 C.3       1 GTP         0.1111
     18 O3'         2.7418   -0.8086    1.7389 O.3       1 GTP        -0.2728
     19 C2'         0.7477    0.1630    0.7858 C.3       1 GTP         0.1111
     20 O2'         0.1373   -0.0577    2.0407 O.3       1 GTP        -0.2728
     21 C1'         1.3733    1.5427    0.6747 C.3       1 GTP         0.2693
     22 N9          0.4520    2.5240    0.1767 N.pl3     1 GTP        -0.3222
     23 C8         -0.2009    2.4849   -0.9792 C.ar      1 GTP         0.1640
     24 N7         -0.9840    3.5454   -1.1481 N.pl3     1 GTP        -0.3688
     25 C5         -0.8090    4.3005   -0.0206 C.ar      1 GTP         0.0648
     26 C6         -1.4206    5.5724    0.3362 C.ar      1 GTP         0.3597
     27 O6         -2.2199    6.1544   -0.3836 O.2       1 GTP        -0.2755
     28 N1         -0.9680    6.0043    1.5817 N.pl3     1 GTP        -0.1604
     29 C2         -0.0474    5.3055    2.3814 C.ar      1 GTP         0.4468
     30 N2          0.2680    5.9024    3.5740 N.pl3     1 GTP        -0.5618
     31 N3          0.4755    4.1601    2.0138 N.2       1 GTP        -0.4283
     32 C4          0.0611    3.6981    0.8001 C.ar      1 GTP         0.2226
     33 HOB2       -1.0946    1.7439   -4.4538 H         1 GTP         0.2010
     34 H5'         1.3514    0.2330   -2.1577 H         1 GTP        -0.0393
     35 H5''        2.1280   -1.3678   -2.0460 H         1 GTP        -0.0393
     36 H4'         3.8044   -0.1397   -0.4040 H         1 GTP        -0.0393
     37 H3'         1.6764   -1.7639    0.2728 H         1 GTP        -0.0393
     38 HO3'        3.5554   -1.2733    1.4914 H         1 GTP         0.2010
     39 H2'        -0.0011    0.0027    0.0003 H         1 GTP        -0.0393
     40 HO2'       -0.1563   -0.9855    2.0596 H         1 GTP         0.2010
     41 H1'         1.7826    1.9024    1.6451 H         1 GTP        -0.0393
     42 H8         -0.1126    1.6906   -1.6997 H         1 GTP         0.0000
     43 HN1        -1.3285    6.8855    1.9361 H         1 GTP         0.0865
     44 HN21        0.9153    5.4446    4.1732 H         1 GTP         0.2048
     45 HN22       -0.1624    6.7706    3.7948 H         1 GTP         0.2048
     46 H46        -1.5768    3.7405   -1.9429 H         1 GTP         0.2048
@<TRIPOS>BOND
     1    1    2 2
     2    1    3 1
     3    1    4 1
     4    1    5 1
     5    5    6 1
     6    6    7 2
     7    6    8 1
     8    6    9 1
     9    8   33 1
    10    9   10 1
    11   10   11 2
    12   10   12 1
    13   10   13 1
    14   13   14 1
    15   14   15 1
    16   14   34 1
    17   14   35 1
    18   15   16 1
    19   15   17 1
    20   15   36 1
    21   16   21 1
    22   17   18 1
    23   17   19 1
    24   17   37 1
    25   18   38 1
    26   19   20 1
    27   19   21 1
    28   19   39 1
    29   20   40 1
    30   21   22 1
    31   21   41 1
    32   22   23 ar
    33   22   32 ar
    34   23   24 ar
    35   23   42 1
    36   24   25 ar
    37   24   46 1
    38   25   26 ar
    39   25   32 ar
    40   26   27 2
    41   26   28 ar
    42   28   29 ar
    43   28   43 1
    44   29   30 1
    45   29   31 ar
    46   30   44 1
    47   30   45 1
    48   31   32 ar
@<TRIPOS>SUBSTRUCTURE
     1 GTP         1 GROUP 0 A     ****
@<TRIPOS>MOLECULE
[[[5-(2-amino-6-oxo-7,8-dihydro-1~{H}-purin-8-ylium-9-yl)-3,4-dihydroxy-tetrahydrofuran-2-yl]methoxy-oxido-phosphoryl]oxy-hydroxy-phosphoryl] phosphate
   46    48     1     0     0
SMALL
USER_CHARGES

@<TRIPOS>ATOM
      1 PG          8.1942   -2.9696   -3.0140 P.3       1 GTP        -1.1921
      2 O1G         9.2314   -1.9787   -3.5323 O.co2     1 GTP         0.3195
      3 O2G         7.6880   -3.9530   -4.0644 O.co2     1 GTP         0.3195
      4 O3G         8.5502   -3.6107   -1.6767 O.co2     1 GTP         0.3195
      5 O3B         6.8764   -2.0372   -2.6801 O.3       1 GTP         0.4672
      6 PB          6.6986   -0.7975   -1.6565 P.3       1 GTP        -0.9715
      7 O1B         6.9665   -1.1245   -0.2171 O.2       1 GTP         0.2707
      8 O2B         7.6610    0.3374   -2.2889 O.3       1 GTP         0.0326
      9 O3A         5.2119   -0.2543   -1.9792 O.3       1 GTP         0.4672
     10 PA          4.4330   -0.0741   -3.4017 P.3       1 GTP        -1.1062
     11 O1A         5.1314    1.0082   -4.1959 O.co2     1 GTP         0.3195
     12 O2A         4.1893   -1.4453   -3.9933 O.co2     1 GTP         0.3195
     13 O5'         3.0213    0.5153   -2.8245 O.3       1 GTP         0.1618
     14 C5'         2.2816   -0.2918   -1.9206 C.3       1 GTP         0.1504
     15 C4'         2.7248    0.0226   -0.4980 C.3       1 GTP         0.1111
     16 O4'         2.4697    1.4219   -0.2462 O.3       1 GTP        -0.1436
     17 C3'         1.9404   -0.7419    0.5596 C.3       1 GTP         0.1111
     18 O3'         2.7418   -0.8086    1.7389 O.3       1 GTP        -0.2728
     19 C2'         0.7477    0.1630    0.7858 C.3       1 GTP         0.1111
     20 O2'         0.1373   -0.0577    2.0407 O.3       1 GTP        -0.2728
     21 C1'         1.3733    1.5427    0.6747 C.3       1 GTP         0.2693
     22 N9          0.4520    2.5240    0.1767 N.pl3     1 GTP        -0.3222
     23 C8         -0.2009    2.4849   -0.9792 C.ar      1 GTP         0.1640
     24 N7         -0.9840    3.5454   -1.1481 N.pl3     1 GTP        -0.3688
     25 C5         -0.8090    4.3005   -0.0206 C.ar      1 GTP         0.0648
     26 C6         -1.4206    5.5724    0.3362 C.ar      1 GTP         0.3597
     27 O6         -2.2199    6.1544   -0.3836 O.2       1 GTP        -0.2755
     28 N1         -0.9680    6.0043    1.5817 N.pl3     1 GTP        -0.1604
     29 C2         -0.0474    5.3055    2.3814 C.ar      1 GTP         0.4468
     30 N2          0.2680    5.9024    3.5740 N.pl3     1 GTP        -0.5618
     31 N3          0.4755    4.1601    2.0138 N.2       1 GTP        -0.4283
     32 C4          0.0611    3.6981    0.8001 C.ar      1 GTP         0.2226
     33 HOB2        8.6292    0.1812   -2.3073 H         1 GTP         0.2010
     34 H5'         1.2163   -0.0770   -2.0471 H         1 GTP        -0.0393
     35 H5''        2.4655   -1.3443   -2.1563 H         1 GTP        -0.0393
     36 H4'         3.8044   -0.1397   -0.4040 H         1 GTP        -0.0393
     37 H3'         1.6764   -1.7639    0.2728 H         1 GTP        -0.0393
     38 HO3'        2.2232   -1.2979    2.3953 H         1 GTP         0.2010
     39 H2'        -0.0011    0.0027    0.0003 H         1 GTP        -0.0393
     40 HO2'       -0.6141    0.5574    2.1082 H         1 GTP         0.2010
     41 H1'         1.7826    1.9024    1.6451 H         1 GTP        -0.0393
     42 H8         -0.1126    1.6906   -1.6997 H         1 GTP         0.0000
     43 HN1        -1.3285    6.8855    1.9361 H         1 GTP         0.0865
     44 HN21        0.9153    5.4446    4.1732 H         1 GTP         0.2048
     45 HN22       -0.1624    6.7706    3.7948 H         1 GTP         0.2048
     46 H46        -1.5768    3.7405   -1.9429 H         1 GTP         0.2048
@<TRIPOS>BOND
     1    1    2 2
     2    1    3 1
     3    1    4 1
     4    1    5 1
     5    5    6 1
     6    6    7 2
     7    6    8 1
     8    6    9 1
     9    8   33 1
    10    9   10 1
    11   10   11 2
    12   10   12 1
    13   10   13 1
    14   13   14 1
    15   14   15 1
    16   14   34 1
    17   14   35 1
    18   15   16 1
    19   15   17 1
    20   15   36 1
    21   16   21 1
    22   17   18 1
    23   17   19 1
    24   17   37 1
    25   18   38 1
    26   19   20 1
    27   19   21 1
    28   19   39 1
    29   20   40 1
    30   21   22 1
    31   21   41 1
    32   22   23 ar
    33   22   32 ar
    34   23   24 ar
    35   23   42 1
    36   24   25 ar
    37   24   46 1
    38   25   26 ar
    39   25   32 ar
    40   26   27 2
    41   26   28 ar
    42   28   29 ar
    43   28   43 1
    44   29   30 1
    45   29   31 ar
    46   30   44 1
    47   30   45 1
    48   31   32 ar
@<TRIPOS>SUBSTRUCTURE
     1 GTP         1 GROUP 0 A     ****
@<TRIPOS>MOLECULE
[[[5-(2-amino-6-oxo-7,8-dihydro-1~{H}-purin-8-ylium-9-yl)-3,4-dihydroxy-tetrahydrofuran-2-yl]methoxy-oxido-phosphoryl]oxy-hydroxy-phosphoryl] phosphate
   46    48     1     0     0
SMALL
USER_CHARGES

@<TRIPOS>ATOM
      1 PG          6.2365   -0.6161    1.4459 P.3       1 GTP        -1.1921
      2 O1G         5.4338    0.5548    2.0035 O.co2     1 GTP         0.3195
      3 O2G         7.4625   -0.9859    2.2744 O.co2     1 GTP         0.3195
      4 O3G         5.3905   -1.8092    1.0134 O.co2     1 GTP         0.3195
      5 O3B         6.8718   -0.0368    0.0394 O.3       1 GTP         0.4672
      6 PB          6.1422    0.5331   -1.2869 P.3       1 GTP        -0.9715
      7 O1B         5.2696    1.7324   -1.0609 O.2       1 GTP         0.2707
      8 O2B         7.3742    0.7682   -2.3072 O.3       1 GTP         0.0326
      9 O3A         5.3941   -0.7649   -1.8912 O.3       1 GTP         0.4672
     10 PA          4.4649   -0.9309   -3.2223 P.3       1 GTP        -1.1062
     11 O1A         5.2329   -0.3966   -4.4116 O.co2     1 GTP         0.3195
     12 O2A         3.8817   -2.3271   -3.2302 O.co2     1 GTP         0.3195
     13 O5'         3.2903    0.1346   -2.8241 O.3       1 GTP         0.1618
     14 C5'         2.2816   -0.2918   -1.9206 C.3       1 GTP         0.1504
     15 C4'         2.7248    0.0226   -0.4980 C.3       1 GTP         0.1111
     16 O4'         2.4697    1.4219   -0.2462 O.3       1 GTP        -0.1436
     17 C3'         1.9404   -0.7419    0.5596 C.3       1 GTP         0.1111
     18 O3'         2.7418   -0.8086    1.7389 O.3       1 GTP        -0.2728
     19 C2'         0.7477    0.1630    0.7858 C.3       1 GTP         0.1111
     20 O2'         0.1373   -0.0577    2.0407 O.3       1 GTP        -0.2728
     21 C1'         1.3733    1.5427    0.6747 C.3       1 GTP         0.2693
     22 N9          0.4520    2.5240    0.1767 N.pl3     1 GTP        -0.3222
     23 C8          0.2203    2.8205   -1.0970 C.ar      1 GTP         0.1640
     24 N7         -0.6947    3.7752   -1.2304 N.pl3     1 GTP        -0.3688
     25 C5         -1.0607    4.0987    0.0476 C.ar      1 GTP         0.0648
     26 C6         -2.0310    5.0839    0.5029 C.ar      1 GTP         0.3597
     27 O6         -2.6779    5.7867   -0.2609 O.2       1 GTP        -0.2755
     28 N1         -2.1030    5.0975    1.8948 N.pl3     1 GTP        -0.1604
     29 C2         -1.3422    4.2721    2.7403 C.ar      1 GTP         0.4468
     30 N2         -1.5624    4.4419    4.0823 N.pl3     1 GTP        -0.5618
     31 N3         -0.4796    3.3981    2.2792 N.2       1 GTP        -0.4283
     32 C4         -0.3754    3.3496    0.9208 C.ar      1 GTP         0.2226
     33 HOB2        8.0439    1.4518   -2.0919 H         1 GTP         0.2010
     34 H5'         1.3514    0.2330   -2.1577 H         1 GTP        -0.0393
     35 H5''        2.1280   -1.3678   -2.0460 H         1 GTP        -0.0393
     36 H4'         3.8044   -0.1397   -0.4040 H         1 GTP        -0.0393
     37 H3'         1.6764   -1.7639    0.2728 H         1 GTP        -0.0393
     38 HO3'        2.2232   -1.2979    2.3953 H         1 GTP         0.2010
     39 H2'        -0.0011    0.0027    0.0003 H         1 GTP        -0.0393
     40 HO2'       -0.6141    0.5574    2.1082 H         1 GTP         0.2010
     41 H1'         1.7826    1.9024    1.6451 H         1 GTP        -0.0393
     42 H8          0.7110    2.3472   -1.9295 H         1 GTP         0.0000
     43 HN1        -2.7504    5.7495    2.3282 H         1 GTP         0.0865
     44 HN21       -1.0467    3.8796    4.7190 H         1 GTP         0.2048
     45 HN22       -2.2294    5.1209    4.3680 H         1 GTP         0.2048
     46 H46        -1.0382    4.1687   -2.0954 H         1 GTP         0.2048
@<TRIPOS>BOND
     1    1    2 2
     2    1    3 1
     3    1    4 1
     4    1    5 1
     5    5    6 1
     6    6    7 2
     7    6    8 1
     8    6    9 1
     9    8   33 1
    10    9   10 1
    11   10   11 2
    12   10   12 1
    13   10   13 1
    14   13   14 1
    15   14   15 1
    16   14   34 1
    17   14   35 1
    18   15   16 1
    19   15   17 1
    20   15   36 1
    21   16   21 1
    22   17   18 1
    23   17   19 1
    24   17   37 1
    25   18   38 1
    26   19   20 1
    27   19   21 1
    28   19   39 1
    29   20   40 1
    30   21   22 1
    31   21   41 1
    32   22   23 ar
    33   22   32 ar
    34   23   24 ar
    35   23   42 1
    36   24   25 ar
    37   24   46 1
    38   25   26 ar
    39   25   32 ar
    40   26   27 2
    41   26   28 ar
    42   28   29 ar
    43   28   43 1
    44   29   30 1
    45   29   31 ar
    46   30   44 1
    47   30   45 1
    48   31   32 ar
@<TRIPOS>SUBSTRUCTURE
     1 GTP         1 GROUP 0 A     ****
@<TRIPOS>MOLECULE
[[[5-(2-amino-6-oxo-7,8-dihydro-1~{H}-purin-8-ylium-9-yl)-3,4-dihydroxy-tetrahydrofuran-2-yl]methoxy-oxido-phosphoryl]oxy-hydroxy-phosphoryl] phosphate
   46    48     1     0     0
SMALL
USER_CHARGES

@<TRIPOS>ATOM
      1 PG          4.9486   -4.9903   -0.6475 P.3       1 GTP        -1.1921
      2 O1G         6.1531   -4.6388    0.2195 O.co2     1 GTP         0.3195
      3 O2G         4.6651   -3.9880   -1.7616 O.co2     1 GTP         0.3195
      4 O3G         4.8966   -6.4490   -1.0900 O.co2     1 GTP         0.3195
      5 O3B         3.6594   -4.8267    0.3668 O.3       1 GTP         0.4672
      6 PB          3.3097   -5.5848    1.7522 P.3       1 GTP        -0.9715
      7 O1B         3.1687   -7.0740    1.6383 O.2       1 GTP         0.2707
      8 O2B         4.4823   -5.0845    2.7466 O.3       1 GTP         0.0326
      9 O3A         2.0014   -4.8032    2.2880 O.3       1 GTP         0.4672
     10 PA          1.1060   -5.0301    3.6333 P.3       1 GTP        -1.1062
     11 O1A         0.4099   -6.3693    3.5245 O.co2     1 GTP         0.3195
     12 O2A         1.9530   -4.6838    4.8384 O.co2     1 GTP         0.3195
     13 O5'         0.0118   -3.8395    3.3916 O.3       1 GTP         0.1618
     14 C5'        -0.7840   -3.8935    2.2172 C.3       1 GTP         0.1504
     15 C4'        -0.0724   -3.1466    1.1027 C.3       1 GTP         0.1111
     16 O4'        -0.8674   -3.1929   -0.0945 O.3       1 GTP        -0.1436
     17 C3'         0.1338   -1.6715    1.4027 C.3       1 GTP         0.1111
     18 O3'         1.2893   -1.4445    2.1808 O.3       1 GTP        -0.2728
     19 C2'         0.2158   -1.0724    0.0128 C.3       1 GTP         0.1111
     20 O2'         1.5141   -1.2448   -0.5513 O.3       1 GTP        -0.2728
     21 C1'        -0.7897   -1.9176   -0.7583 C.3       1 GTP         0.2693
     22 N9         -2.1040   -1.3333   -0.7704 N.pl3     1 GTP        -0.3222
     23 C8         -3.0597   -1.5109    0.1345 C.ar      1 GTP         0.1640
     24 N7         -4.1618   -0.8291   -0.1607 N.pl3     1 GTP        -0.3688
     25 C5         -3.8764   -0.1805   -1.3310 C.ar      1 GTP         0.0648
     26 C6         -4.7187    0.7111   -2.1152 C.ar      1 GTP         0.3597
     27 O6         -5.8617    1.0043   -1.7939 O.2       1 GTP        -0.2755
     28 N1         -4.0405    1.1608   -3.2468 N.pl3     1 GTP        -0.1604
     29 C2         -2.7239    0.8013   -3.5822 C.ar      1 GTP         0.4468
     30 N2         -2.2399    1.3534   -4.7394 N.pl3     1 GTP        -0.5618
     31 N3         -2.0053   -0.0071   -2.8402 N.2       1 GTP        -0.4283
     32 C4         -2.6290   -0.4727   -1.7210 C.ar      1 GTP         0.2226
     33 HOB2        4.4448   -5.3440    3.6919 H         1 GTP         0.2010
     34 H5'        -0.9348   -4.9415    1.9415 H         1 GTP        -0.0393
     35 H5''       -1.7548   -3.4350    2.4278 H         1 GTP        -0.0393
     36 H4'         0.8874   -3.6466    0.8805 H         1 GTP        -0.0393
     37 H3'        -0.7376   -1.2333    1.9867 H         1 GTP        -0.0393
     38 HO3'        1.1626   -1.9325    3.0084 H         1 GTP         0.2010
     39 H2'        -0.0384   -0.0310    0.0096 H         1 GTP        -0.0393
     40 HO2'        2.1463   -0.7958    0.0370 H         1 GTP         0.2010
     41 H1'        -0.4769   -2.1002   -1.8093 H         1 GTP        -0.0393
     42 H8         -2.9610   -2.1316    1.0079 H         1 GTP         0.0000
     43 HN1        -4.5320    1.7923   -3.8726 H         1 GTP         0.0865
     44 HN21       -1.3128    1.1277   -5.0171 H         1 GTP         0.2048
     45 HN22       -2.8342    1.9586   -5.2572 H         1 GTP         0.2048
     46 H46        -5.0195   -0.8034    0.3729 H         1 GTP         0.2048
@<TRIPOS>BOND
     1    1    2 2
     2    1    3 1
     3    1    4 1
     4    1    5 1
     5    5    6 1
     6    6    7 2
     7    6    8 1
     8    6    9 1
     9    8   33 1
    10    9   10 1
    11   10   11 2
    12   10   12 1
    13   10   13 1
    14   13   14 1
    15   14   15 1
    16   14   34 1
    17   14   35 1
    18   15   16 1
    19   15   17 1
    20   15   36 1
    21   16   21 1
    22   17   18 1
    23   17   19 1
    24   17   37 1
    25   18   38 1
    26   19   20 1
    27   19   21 1
    28   19   39 1
    29   20   40 1
    30   21   22 1
    31   21   41 1
    32   22   23 ar
    33   22   32 ar
    34   23   24 ar
    35   23   42 1
    36   24   25 ar
    37   24   46 1
    38   25   26 ar
    39   25   32 ar
    40   26   27 2
    41   26   28 ar
    42   28   29 ar
    43   28   43 1
    44   29   30 1
    45   29   31 ar
    46   30   44 1
    47   30   45 1
    48   31   32 ar
@<TRIPOS>SUBSTRUCTURE
     1 GTP         1 GROUP 0 A     ****
@<TRIPOS>MOLECULE
[[[5-(2-amino-6-oxo-7,8-dihydro-1~{H}-purin-8-ylium-9-yl)-3,4-dihydroxy-tetrahydrofuran-2-yl]methoxy-oxido-phosphoryl]oxy-hydroxy-phosphoryl] phosphate
   46    48     1     0     0
SMALL
USER_CHARGES

@<TRIPOS>ATOM
      1 PG         -2.2964    1.3473   -6.0774 P.3       1 GTP        -1.1921
      2 O1G        -3.3772    1.6924   -5.0580 O.co2     1 GTP         0.3195
      3 O2G        -2.3880   -0.0709   -6.6311 O.co2     1 GTP         0.3195
      4 O3G        -2.0667    2.4194   -7.1376 O.co2     1 GTP         0.3195
      5 O3B        -0.9013    1.3379   -5.1994 O.3       1 GTP         0.4672
      6 PB         -0.1921    2.5112   -4.3411 P.3       1 GTP        -0.9715
      7 O1B         0.1856    3.7299   -5.1302 O.2       1 GTP         0.2707
      8 O2B        -1.2461    2.7736   -3.1433 O.3       1 GTP         0.0326
      9 O3A         1.0314    1.7530   -3.6079 O.3       1 GTP         0.4672
     10 PA          2.3065    0.9470   -4.2302 P.3       1 GTP        -1.1062
     11 O1A         1.7942   -0.2957   -4.9251 O.co2     1 GTP         0.3195
     12 O2A         3.1953    1.9368   -4.9513 O.co2     1 GTP         0.3195
     13 O5'         3.0213    0.5153   -2.8245 O.3       1 GTP         0.1618
     14 C5'         2.2816   -0.2918   -1.9206 C.3       1 GTP         0.1504
     15 C4'         2.7248    0.0226   -0.4980 C.3       1 GTP         0.1111
     16 O4'         2.4697    1.4219   -0.2462 O.3       1 GTP        -0.1436
     17 C3'         1.9404   -0.7419    0.5596 C.3       1 GTP         0.1111
     18 O3'         2.7418   -0.8086    1.7389 O.3       1 GTP        -0.2728
     19 C2'         0.7477    0.1630    0.7858 C.3       1 GTP         0.1111
     20 O2'         0.1373   -0.0577    2.0407 O.3       1 GTP        -0.2728
     21 C1'         1.3733    1.5427    0.6747 C.3       1 GTP         0.2693
     22 N9          0.4520    2.5240    0.1767 N.pl3     1 GTP        -0.3222
     23 C8          0.5671    3.2221   -0.9473 C.ar      1 GTP         0.1640
     24 N7         -0.4560    4.0508   -1.1290 N.pl3     1 GTP        -0.3688
     25 C5         -1.2671    3.8585   -0.0441 C.ar      1 GTP         0.0648
     26 C6         -2.5318    4.5014    0.2817 C.ar      1 GTP         0.3597
     27 O6         -3.0527    5.3493   -0.4293 O.2       1 GTP        -0.2755
     28 N1         -3.0357    4.0149    1.4868 N.pl3     1 GTP        -0.1604
     29 C2         -2.4069    3.0373    2.2768 C.ar      1 GTP         0.4468
     30 N2         -3.0679    2.6964    3.4278 N.pl3     1 GTP        -0.5618
     31 N3         -1.2653    2.4872    1.9379 N.2       1 GTP        -0.4283
     32 C4         -0.7342    2.9334    0.7643 C.ar      1 GTP         0.2226
     33 HOB2       -1.5329    2.0161   -2.5901 H         1 GTP         0.2010
     34 H5'         1.2163   -0.0770   -2.0471 H         1 GTP        -0.0393
     35 H5''        2.4655   -1.3443   -2.1563 H         1 GTP        -0.0393
     36 H4'         3.8044   -0.1397   -0.4040 H         1 GTP        -0.0393
     37 H3'         1.6764   -1.7639    0.2728 H         1 GTP        -0.0393
     38 HO3'        2.2232   -1.2979    2.3953 H         1 GTP         0.2010
     39 H2'        -0.0011    0.0027    0.0003 H         1 GTP        -0.0393
     40 HO2'       -0.1563   -0.9855    2.0596 H         1 GTP         0.2010
     41 H1'         1.7826    1.9024    1.6451 H         1 GTP        -0.0393
     42 H8          1.3888    3.1325   -1.6361 H         1 GTP         0.0000
     43 HN1        -3.9188    4.3932    1.8170 H         1 GTP         0.0865
     44 HN21       -2.6609    2.0087    4.0186 H         1 GTP         0.2048
     45 HN22       -3.9293    3.1496    3.6283 H         1 GTP         0.2048
     46 H46        -0.5938    4.6820   -1.9060 H         1 GTP         0.2048
@<TRIPOS>BOND
     1    1    2 2
     2    1    3 1
     3    1    4 1
     4    1    5 1
     5    5    6 1
     6    6    7 2
     7    6    8 1
     8    6    9 1
     9    8   33 1
    10    9   10 1
    11   10   11 2
    12   10   12 1
    13   10   13 1
    14   13   14 1
    15   14   15 1
    16   14   34 1
    17   14   35 1
    18   15   16 1
    19   15   17 1
    20   15   36 1
    21   16   21 1
    22   17   18 1
    23   17   19 1
    24   17   37 1
    25   18   38 1
    26   19   20 1
    27   19   21 1
    28   19   39 1
    29   20   40 1
    30   21   22 1
    31   21   41 1
    32   22   23 ar
    33   22   32 ar
    34   23   24 ar
    35   23   42 1
    36   24   25 ar
    37   24   46 1
    38   25   26 ar
    39   25   32 ar
    40   26   27 2
    41   26   28 ar
    42   28   29 ar
    43   28   43 1
    44   29   30 1
    45   29   31 ar
    46   30   44 1
    47   30   45 1
    48   31   32 ar
@<TRIPOS>SUBSTRUCTURE
     1 GTP         1 GROUP 0 A     ****
@<TRIPOS>MOLECULE
[[[5-(2-amino-6-oxo-7,8-dihydro-1~{H}-purin-8-ylium-9-yl)-3,4-dihydroxy-tetrahydrofuran-2-yl]methoxy-oxido-phosphoryl]oxy-hydroxy-phosphoryl] phosphate
   46    48     1     0     0
SMALL
USER_CHARGES

@<TRIPOS>ATOM
      1 PG         -5.3705   -4.0246    3.7319 P.3       1 GTP        -1.1921
      2 O1G        -4.6140   -3.3398    4.8655 O.co2     1 GTP         0.3195
      3 O2G        -6.8694   -4.1669    3.9757 O.co2     1 GTP         0.3195
      4 O3G        -5.0082   -3.5197    2.3391 O.co2     1 GTP         0.3195
      5 O3B        -4.8181   -5.5775    3.7580 O.3       1 GTP         0.4672
      6 PB         -3.3229   -6.1642    3.5675 P.3       1 GTP        -0.9715
      7 O1B        -2.3212   -5.6768    4.5722 O.2       1 GTP         0.2707
      8 O2B        -3.5580   -7.7639    3.5593 O.3       1 GTP         0.0326
      9 O3A        -2.9801   -5.8253    2.0257 O.3       1 GTP         0.4672
     10 PA         -1.6398   -6.1268    1.1451 P.3       1 GTP        -1.1062
     11 O1A        -1.3219   -7.6027    1.2476 O.co2     1 GTP         0.3195
     12 O2A        -1.7858   -5.4491   -0.1999 O.co2     1 GTP         0.3195
     13 O5'        -0.5687   -5.2869    2.0510 O.3       1 GTP         0.1618
     14 C5'        -0.7840   -3.8935    2.2172 C.3       1 GTP         0.1504
     15 C4'        -0.0724   -3.1466    1.1027 C.3       1 GTP         0.1111
     16 O4'        -0.8674   -3.1929   -0.0945 O.3       1 GTP        -0.1436
     17 C3'         0.1338   -1.6715    1.4027 C.3       1 GTP         0.1111
     18 O3'         1.2893   -1.4445    2.1808 O.3       1 GTP        -0.2728
     19 C2'         0.2158   -1.0724    0.0128 C.3       1 GTP         0.1111
     20 O2'         1.5141   -1.2448   -0.5513 O.3       1 GTP        -0.2728
     21 C1'        -0.7897   -1.9176   -0.7583 C.3       1 GTP         0.2693
     22 N9         -2.1040   -1.3333   -0.7704 N.pl3     1 GTP        -0.3222
     23 C8         -3.0597   -1.5109    0.1345 C.ar      1 GTP         0.1640
     24 N7         -4.1618   -0.8291   -0.1607 N.pl3     1 GTP        -0.3688
     25 C5         -3.8764   -0.1805   -1.3310 C.ar      1 GTP         0.0648
     26 C6         -4.7187    0.7111   -2.1152 C.ar      1 GTP         0.3597
     27 O6         -5.8617    1.0043   -1.7939 O.2       1 GTP        -0.2755
     28 N1         -4.0405    1.1608   -3.2468 N.pl3     1 GTP        -0.1604
     29 C2         -2.7239    0.8013   -3.5822 C.ar      1 GTP         0.4468
     30 N2         -2.2399    1.3534   -4.7394 N.pl3     1 GTP        -0.5618
     31 N3         -2.0053   -0.0071   -2.8402 N.2       1 GTP        -0.4283
     32 C4         -2.6290   -0.4727   -1.7210 C.ar      1 GTP         0.2226
     33 HOB2       -2.7975   -8.3537    3.3699 H         1 GTP         0.2010
     34 H5'        -1.8598   -3.6968    2.1850 H         1 GTP        -0.0393
     35 H5''       -0.3933   -3.5903    3.1931 H         1 GTP        -0.0393
     36 H4'         0.8874   -3.6466    0.8805 H         1 GTP        -0.0393
     37 H3'        -0.7376   -1.2333    1.9867 H         1 GTP        -0.0393
     38 HO3'        1.3408   -0.4870    2.3219 H         1 GTP         0.2010
     39 H2'        -0.0384   -0.0310    0.0096 H         1 GTP        -0.0393
     40 HO2'        2.1463   -0.7958    0.0370 H         1 GTP         0.2010
     41 H1'        -0.4769   -2.1002   -1.8093 H         1 GTP        -0.0393
     42 H8         -2.9610   -2.1316    1.0079 H         1 GTP         0.0000
     43 HN1        -4.5320    1.7923   -3.8726 H         1 GTP         0.0865
     44 HN21       -1.3128    1.1277   -5.0171 H         1 GTP         0.2048
     45 HN22       -2.8342    1.9586   -5.2572 H         1 GTP         0.2048
     46 H46        -5.0195   -0.8034    0.3729 H         1 GTP         0.2048
@<TRIPOS>BOND
     1    1    2 2
     2    1    3 1
     3    1    4 1
     4    1    5 1
     5    5    6 1
     6    6    7 2
     7    6    8 1
     8    6    9 1
     9    8   33 1
    10    9   10 1
    11   10   11 2
    12   10   12 1
    13   10   13 1
    14   13   14 1
    15   14   15 1
    16   14   34 1
    17   14   35 1
    18   15   16 1
    19   15   17 1
    20   15   36 1
    21   16   21 1
    22   17   18 1
    23   17   19 1
    24   17   37 1
    25   18   38 1
    26   19   20 1
    27   19   21 1
    28   19   39 1
    29   20   40 1
    30   21   22 1
    31   21   41 1
    32   22   23 ar
    33   22   32 ar
    34   23   24 ar
    35   23   42 1
    36   24   25 ar
    37   24   46 1
    38   25   26 ar
    39   25   32 ar
    40   26   27 2
    41   26   28 ar
    42   28   29 ar
    43   28   43 1
    44   29   30 1
    45   29   31 ar
    46   30   44 1
    47   30   45 1
    48   31   32 ar
@<TRIPOS>SUBSTRUCTURE
     1 GTP         1 GROUP 0 A     ****
@<TRIPOS>MOLECULE
[[[5-(2-amino-6-oxo-7,8-dihydro-1~{H}-purin-8-ylium-9-yl)-3,4-dihydroxy-tetrahydrofuran-2-yl]methoxy-oxido-phosphoryl]oxy-hydroxy-phosphoryl] phosphate
   46    48     1     0     0
SMALL
USER_CHARGES

@<TRIPOS>ATOM
      1 PG          7.1930   -2.6365    1.5464 P.3       1 GTP        -1.1921
      2 O1G         6.7777   -4.1012    1.4553 O.co2     1 GTP         0.3195
      3 O2G         6.7511   -1.9389    2.8287 O.co2     1 GTP         0.3195
      4 O3G         8.6428   -2.3686    1.1559 O.co2     1 GTP         0.3195
      5 O3B         6.3106   -1.8926    0.3693 O.3       1 GTP         0.4672
      6 PB          6.2770   -2.1342   -1.2297 P.3       1 GTP        -0.9715
      7 O1B         7.5880   -1.9218   -1.9275 O.2       1 GTP         0.2707
      8 O2B         5.6691   -3.6268   -1.3594 O.3       1 GTP         0.0326
      9 O3A         5.0654   -1.1886   -1.7270 O.3       1 GTP         0.4672
     10 PA          4.4649   -0.9309   -3.2223 P.3       1 GTP        -1.1062
     11 O1A         5.5175   -0.2200   -4.0447 O.co2     1 GTP         0.3195
     12 O2A         3.8237   -2.2117   -3.7100 O.co2     1 GTP         0.3195
     13 O5'         3.2903    0.1346   -2.8241 O.3       1 GTP         0.1618
     14 C5'         2.2816   -0.2918   -1.9206 C.3       1 GTP         0.1504
     15 C4'         2.7248    0.0226   -0.4980 C.3       1 GTP         0.1111
     16 O4'         2.4697    1.4219   -0.2462 O.3       1 GTP        -0.1436
     17 C3'         1.9404   -0.7419    0.5596 C.3       1 GTP         0.1111
     18 O3'         2.7418   -0.8086    1.7389 O.3       1 GTP        -0.2728
     19 C2'         0.7477    0.1630    0.7858 C.3       1 GTP         0.1111
     20 O2'         0.1373   -0.0577    2.0407 O.3       1 GTP        -0.2728
     21 C1'         1.3733    1.5427    0.6747 C.3       1 GTP         0.2693
     22 N9          0.4520    2.5240    0.1767 N.pl3     1 GTP        -0.3222
     23 C8         -0.2009    2.4849   -0.9792 C.ar      1 GTP         0.1640
     24 N7         -0.9840    3.5454   -1.1481 N.pl3     1 GTP        -0.3688
     25 C5         -0.8090    4.3005   -0.0206 C.ar      1 GTP         0.0648
     26 C6         -1.4206    5.5724    0.3362 C.ar      1 GTP         0.3597
     27 O6         -2.2199    6.1544   -0.3836 O.2       1 GTP        -0.2755
     28 N1         -0.9680    6.0043    1.5817 N.pl3     1 GTP        -0.1604
     29 C2         -0.0474    5.3055    2.3814 C.ar      1 GTP         0.4468
     30 N2          0.2680    5.9024    3.5740 N.pl3     1 GTP        -0.5618
     31 N3          0.4755    4.1601    2.0138 N.2       1 GTP        -0.4283
     32 C4          0.0611    3.6981    0.8001 C.ar      1 GTP         0.2226
     33 HOB2        6.1912   -4.3827   -1.0157 H         1 GTP         0.2010
     34 H5'         1.3514    0.2330   -2.1577 H         1 GTP        -0.0393
     35 H5''        2.1280   -1.3678   -2.0460 H         1 GTP        -0.0393
     36 H4'         3.8044   -0.1397   -0.4040 H         1 GTP        -0.0393
     37 H3'         1.6764   -1.7639    0.2728 H         1 GTP        -0.0393
     38 HO3'        3.5554   -1.2733    1.4914 H         1 GTP         0.2010
     39 H2'        -0.0011    0.0027    0.0003 H         1 GTP        -0.0393
     40 HO2'        0.8082    0.1199    2.7232 H         1 GTP         0.2010
     41 H1'         1.7826    1.9024    1.6451 H         1 GTP        -0.0393
     42 H8         -0.1126    1.6906   -1.6997 H         1 GTP         0.0000
     43 HN1        -1.3285    6.8855    1.9361 H         1 GTP         0.0865
     44 HN21        0.9153    5.4446    4.1732 H         1 GTP         0.2048
     45 HN22       -0.1624    6.7706    3.7948 H         1 GTP         0.2048
     46 H46        -1.5768    3.7405   -1.9429 H         1 GTP         0.2048
@<TRIPOS>BOND
     1    1    2 2
     2    1    3 1
     3    1    4 1
     4    1    5 1
     5    5    6 1
     6    6    7 2
     7    6    8 1
     8    6    9 1
     9    8   33 1
    10    9   10 1
    11   10   11 2
    12   10   12 1
    13   10   13 1
    14   13   14 1
    15   14   15 1
    16   14   34 1
    17   14   35 1
    18   15   16 1
    19   15   17 1
    20   15   36 1
    21   16   21 1
    22   17   18 1
    23   17   19 1
    24   17   37 1
    25   18   38 1
    26   19   20 1
    27   19   21 1
    28   19   39 1
    29   20   40 1
    30   21   22 1
    31   21   41 1
    32   22   23 ar
    33   22   32 ar
    34   23   24 ar
    35   23   42 1
    36   24   25 ar
    37   24   46 1
    38   25   26 ar
    39   25   32 ar
    40   26   27 2
    41   26   28 ar
    42   28   29 ar
    43   28   43 1
    44   29   30 1
    45   29   31 ar
    46   30   44 1
    47   30   45 1
    48   31   32 ar
@<TRIPOS>SUBSTRUCTURE
     1 GTP         1 GROUP 0 A     ****
@<TRIPOS>MOLECULE
[[[5-(2-amino-6-oxo-7,8-dihydro-1~{H}-purin-8-ylium-9-yl)-3,4-dihydroxy-tetrahydrofuran-2-yl]methoxy-oxido-phosphoryl]oxy-hydroxy-phosphoryl] phosphate
   46    48     1     0     0
SMALL
USER_CHARGES

@<TRIPOS>ATOM
      1 PG          5.8965   -6.0019    3.1423 P.3       1 GTP        -1.1921
      2 O1G         5.6610   -7.5076    3.2024 O.co2     1 GTP         0.3195
      3 O2G         6.3738   -5.3899    4.4552 O.co2     1 GTP         0.3195
      4 O3G         6.6733   -5.5354    1.9155 O.co2     1 GTP         0.3195
      5 O3B         4.3899   -5.3655    2.9360 O.3       1 GTP         0.4672
      6 PB          3.3097   -5.5848    1.7522 P.3       1 GTP        -0.9715
      7 O1B         3.7825   -5.1872    0.3851 O.2       1 GTP         0.2707
      8 O2B         2.9093   -7.1434    1.9092 O.3       1 GTP         0.0326
      9 O3A         2.0014   -4.8032    2.2880 O.3       1 GTP         0.4672
     10 PA          1.1060   -5.0301    3.6333 P.3       1 GTP        -1.1062
     11 O1A         0.4099   -6.3693    3.5245 O.co2     1 GTP         0.3195
     12 O2A         1.9530   -4.6838    4.8384 O.co2     1 GTP         0.3195
     13 O5'         0.0118   -3.8395    3.3916 O.3       1 GTP         0.1618
     14 C5'        -0.7840   -3.8935    2.2172 C.3       1 GTP         0.1504
     15 C4'        -0.0724   -3.1466    1.1027 C.3       1 GTP         0.1111
     16 O4'        -0.8674   -3.1929   -0.0945 O.3       1 GTP        -0.1436
     17 C3'         0.1338   -1.6715    1.4027 C.3       1 GTP         0.1111
     18 O3'         1.2893   -1.4445    2.1808 O.3       1 GTP        -0.2728
     19 C2'         0.2158   -1.0724    0.0128 C.3       1 GTP         0.1111
     20 O2'         1.5141   -1.2448   -0.5513 O.3       1 GTP        -0.2728
     21 C1'        -0.7897   -1.9176   -0.7583 C.3       1 GTP         0.2693
     22 N9         -2.1040   -1.3333   -0.7704 N.pl3     1 GTP        -0.3222
     23 C8         -3.0597   -1.5109    0.1345 C.ar      1 GTP         0.1640
     24 N7         -4.1618   -0.8291   -0.1607 N.pl3     1 GTP        -0.3688
     25 C5         -3.8764   -0.1805   -1.3310 C.ar      1 GTP         0.0648
     26 C6         -4.7187    0.7111   -2.1152 C.ar      1 GTP         0.3597
     27 O6         -5.8617    1.0043   -1.7939 O.2       1 GTP        -0.2755
     28 N1         -4.0405    1.1608   -3.2468 N.pl3     1 GTP        -0.1604
     29 C2         -2.7239    0.8013   -3.5822 C.ar      1 GTP         0.4468
     30 N2         -2.2399    1.3534   -4.7394 N.pl3     1 GTP        -0.5618
     31 N3         -2.0053   -0.0071   -2.8402 N.2       1 GTP        -0.4283
     32 C4         -2.6290   -0.4727   -1.7210 C.ar      1 GTP         0.2226
     33 HOB2        2.1922   -7.5074    1.3475 H         1 GTP         0.2010
     34 H5'        -0.9348   -4.9415    1.9415 H         1 GTP        -0.0393
     35 H5''       -1.7548   -3.4350    2.4278 H         1 GTP        -0.0393
     36 H4'         0.8874   -3.6466    0.8805 H         1 GTP        -0.0393
     37 H3'        -0.7376   -1.2333    1.9867 H         1 GTP        -0.0393
     38 HO3'        1.1626   -1.9325    3.0084 H         1 GTP         0.2010
     39 H2'        -0.0384   -0.0310    0.0096 H         1 GTP        -0.0393
     40 HO2'        2.1463   -0.7958    0.0370 H         1 GTP         0.2010
     41 H1'        -0.4769   -2.1002   -1.8093 H         1 GTP        -0.0393
     42 H8         -2.9610   -2.1316    1.0079 H         1 GTP         0.0000
     43 HN1        -4.5320    1.7923   -3.8726 H         1 GTP         0.0865
     44 HN21       -1.3128    1.1277   -5.0171 H         1 GTP         0.2048
     45 HN22       -2.8342    1.9586   -5.2572 H         1 GTP         0.2048
     46 H46        -5.0195   -0.8034    0.3729 H         1 GTP         0.2048
@<TRIPOS>BOND
     1    1    2 2
     2    1    3 1
     3    1    4 1
     4    1    5 1
     5    5    6 1
     6    6    7 2
     7    6    8 1
     8    6    9 1
     9    8   33 1
    10    9   10 1
    11   10   11 2
    12   10   12 1
    13   10   13 1
    14   13   14 1
    15   14   15 1
    16   14   34 1
    17   14   35 1
    18   15   16 1
    19   15   17 1
    20   15   36 1
    21   16   21 1
    22   17   18 1
    23   17   19 1
    24   17   37 1
    25   18   38 1
    26   19   20 1
    27   19   21 1
    28   19   39 1
    29   20   40 1
    30   21   22 1
    31   21   41 1
    32   22   23 ar
    33   22   32 ar
    34   23   24 ar
    35   23   42 1
    36   24   25 ar
    37   24   46 1
    38   25   26 ar
    39   25   32 ar
    40   26   27 2
    41   26   28 ar
    42   28   29 ar
    43   28   43 1
    44   29   30 1
    45   29   31 ar
    46   30   44 1
    47   30   45 1
    48   31   32 ar
@<TRIPOS>SUBSTRUCTURE
     1 GTP         1 GROUP 0 A     ****
@<TRIPOS>MOLECULE
[[[5-(2-amino-6-oxo-7,8-dihydro-1~{H}-purin-8-ylium-9-yl)-3,4-dihydroxy-tetrahydrofuran-2-yl]methoxy-oxido-phosphoryl]oxy-hydroxy-phosphoryl] phosphate
   46    48     1     0     0
SMALL
USER_CHARGES

@<TRIPOS>ATOM
      1 PG          4.8641   -4.7221   -0.9072 P.3       1 GTP        -1.1921
      2 O1G         5.6121   -5.0083    0.3909 O.co2     1 GTP         0.3195
      3 O2G         4.8158   -5.9001   -1.8748 O.co2     1 GTP         0.3195
      4 O3G         3.5278   -4.0114   -0.7193 O.co2     1 GTP         0.3195
      5 O3B         5.8083   -3.6149   -1.6816 O.3       1 GTP         0.4672
      6 PB          6.2770   -2.1342   -1.2297 P.3       1 GTP        -0.9715
      7 O1B         6.6433   -2.0032    0.2192 O.2       1 GTP         0.2707
      8 O2B         7.4698   -1.7974   -2.2681 O.3       1 GTP         0.0326
      9 O3A         5.0654   -1.1886   -1.7270 O.3       1 GTP         0.4672
     10 PA          4.4649   -0.9309   -3.2223 P.3       1 GTP        -1.1062
     11 O1A         5.5175   -0.2200   -4.0447 O.co2     1 GTP         0.3195
     12 O2A         3.8237   -2.2117   -3.7100 O.co2     1 GTP         0.3195
     13 O5'         3.2903    0.1346   -2.8241 O.3       1 GTP         0.1618
     14 C5'         2.2816   -0.2918   -1.9206 C.3       1 GTP         0.1504
     15 C4'         2.7248    0.0226   -0.4980 C.3       1 GTP         0.1111
     16 O4'         2.4697    1.4219   -0.2462 O.3       1 GTP        -0.1436
     17 C3'         1.9404   -0.7419    0.5596 C.3       1 GTP         0.1111
     18 O3'         2.7418   -0.8086    1.7389 O.3       1 GTP        -0.2728
     19 C2'         0.7477    0.1630    0.7858 C.3       1 GTP         0.1111
     20 O2'         0.1373   -0.0577    2.0407 O.3       1 GTP        -0.2728
     21 C1'         1.3733    1.5427    0.6747 C.3       1 GTP         0.2693
     22 N9          0.4520    2.5240    0.1767 N.pl3     1 GTP        -0.3222
     23 C8          0.5671    3.2221   -0.9473 C.ar      1 GTP         0.1640
     24 N7         -0.4560    4.0508   -1.1290 N.pl3     1 GTP        -0.3688
     25 C5         -1.2671    3.8585   -0.0441 C.ar      1 GTP         0.0648
     26 C6         -2.5318    4.5014    0.2817 C.ar      1 GTP         0.3597
     27 O6         -3.0527    5.3493   -0.4293 O.2       1 GTP        -0.2755
     28 N1         -3.0357    4.0149    1.4868 N.pl3     1 GTP        -0.1604
     29 C2         -2.4069    3.0373    2.2768 C.ar      1 GTP         0.4468
     30 N2         -3.0679    2.6964    3.4278 N.pl3     1 GTP        -0.5618
     31 N3         -1.2653    2.4872    1.9379 N.2       1 GTP        -0.4283
     32 C4         -0.7342    2.9334    0.7643 C.ar      1 GTP         0.2226
     33 HOB2        7.2931   -1.8647   -3.2306 H         1 GTP         0.2010
     34 H5'         1.3514    0.2330   -2.1577 H         1 GTP        -0.0393
     35 H5''        2.1280   -1.3678   -2.0460 H         1 GTP        -0.0393
     36 H4'         3.8044   -0.1397   -0.4040 H         1 GTP        -0.0393
     37 H3'         1.6764   -1.7639    0.2728 H         1 GTP        -0.0393
     38 HO3'        2.2232   -1.2979    2.3953 H         1 GTP         0.2010
     39 H2'        -0.0011    0.0027    0.0003 H         1 GTP        -0.0393
     40 HO2'       -0.1563   -0.9855    2.0596 H         1 GTP         0.2010
     41 H1'         1.7826    1.9024    1.6451 H         1 GTP        -0.0393
     42 H8          1.3888    3.1325   -1.6361 H         1 GTP         0.0000
     43 HN1        -3.9188    4.3932    1.8170 H         1 GTP         0.0865
     44 HN21       -2.6609    2.0087    4.0186 H         1 GTP         0.2048
     45 HN22       -3.9293    3.1496    3.6283 H         1 GTP         0.2048
     46 H46        -0.5938    4.6820   -1.9060 H         1 GTP         0.2048
@<TRIPOS>BOND
     1    1    2 2
     2    1    3 1
     3    1    4 1
     4    1    5 1
     5    5    6 1
     6    6    7 2
     7    6    8 1
     8    6    9 1
     9    8   33 1
    10    9   10 1
    11   10   11 2
    12   10   12 1
    13   10   13 1
    14   13   14 1
    15   14   15 1
    16   14   34 1
    17   14   35 1
    18   15   16 1
    19   15   17 1
    20   15   36 1
    21   16   21 1
    22   17   18 1
    23   17   19 1
    24   17   37 1
    25   18   38 1
    26   19   20 1
    27   19   21 1
    28   19   39 1
    29   20   40 1
    30   21   22 1
    31   21   41 1
    32   22   23 ar
    33   22   32 ar
    34   23   24 ar
    35   23   42 1
    36   24   25 ar
    37   24   46 1
    38   25   26 ar
    39   25   32 ar
    40   26   27 2
    41   26   28 ar
    42   28   29 ar
    43   28   43 1
    44   29   30 1
    45   29   31 ar
    46   30   44 1
    47   30   45 1
    48   31   32 ar
@<TRIPOS>SUBSTRUCTURE
     1 GTP         1 GROUP 0 A     ****
@<TRIPOS>MOLECULE
[[[5-(2-amino-6-oxo-7,8-dihydro-1~{H}-purin-8-ylium-9-yl)-3,4-dihydroxy-tetrahydrofuran-2-yl]methoxy-oxido-phosphoryl]oxy-hydroxy-phosphoryl] phosphate
   46    48     1     0     0
SMALL
USER_CHARGES

@<TRIPOS>ATOM
      1 PG         -5.4191   -4.9972    4.3133 P.3       1 GTP        -1.1921
      2 O1G        -5.9050   -6.3307    4.8719 O.co2     1 GTP         0.3195
      3 O2G        -6.4123   -3.8511    4.4755 O.co2     1 GTP         0.3195
      4 O3G        -3.9855   -4.6413    4.6930 O.co2     1 GTP         0.3195
      5 O3B        -5.3601   -5.2394    2.6838 O.3       1 GTP         0.4672
      6 PB         -4.5086   -6.3010    1.8095 P.3       1 GTP        -0.9715
      7 O1B        -4.7852   -7.7418    2.1225 O.2       1 GTP         0.2707
      8 O2B        -4.8300   -5.8595    0.2876 O.3       1 GTP         0.0326
      9 O3A        -2.9801   -5.8253    2.0257 O.3       1 GTP         0.4672
     10 PA         -1.6398   -6.1268    1.1451 P.3       1 GTP        -1.1062
     11 O1A        -1.3219   -7.6027    1.2476 O.co2     1 GTP         0.3195
     12 O2A        -1.7858   -5.4491   -0.1999 O.co2     1 GTP         0.3195
     13 O5'        -0.5687   -5.2869    2.0510 O.3       1 GTP         0.1618
     14 C5'        -0.7840   -3.8935    2.2172 C.3       1 GTP         0.1504
     15 C4'        -0.0724   -3.1466    1.1027 C.3       1 GTP         0.1111
     16 O4'        -0.8674   -3.1929   -0.0945 O.3       1 GTP        -0.1436
     17 C3'         0.1338   -1.6715    1.4027 C.3       1 GTP         0.1111
     18 O3'         1.2893   -1.4445    2.1808 O.3       1 GTP        -0.2728
     19 C2'         0.2158   -1.0724    0.0128 C.3       1 GTP         0.1111
     20 O2'         1.5141   -1.2448   -0.5513 O.3       1 GTP        -0.2728
     21 C1'        -0.7897   -1.9176   -0.7583 C.3       1 GTP         0.2693
     22 N9         -2.1040   -1.3333   -0.7704 N.pl3     1 GTP        -0.3222
     23 C8         -3.0597   -1.5109    0.1345 C.ar      1 GTP         0.1640
     24 N7         -4.1618   -0.8291   -0.1607 N.pl3     1 GTP        -0.3688
     25 C5         -3.8764   -0.1805   -1.3310 C.ar      1 GTP         0.0648
     26 C6         -4.7187    0.7111   -2.1152 C.ar      1 GTP         0.3597
     27 O6         -5.8617    1.0043   -1.7939 O.2       1 GTP        -0.2755
     28 N1         -4.0405    1.1608   -3.2468 N.pl3     1 GTP        -0.1604
     29 C2         -2.7239    0.8013   -3.5822 C.ar      1 GTP         0.4468
     30 N2         -2.2399    1.3534   -4.7394 N.pl3     1 GTP        -0.5618
     31 N3         -2.0053   -0.0071   -2.8402 N.2       1 GTP        -0.4283
     32 C4         -2.6290   -0.4727   -1.7210 C.ar      1 GTP         0.2226
     33 HOB2       -4.3562   -6.3069   -0.4456 H         1 GTP         0.2010
     34 H5'        -1.8598   -3.6968    2.1850 H         1 GTP        -0.0393
     35 H5''       -0.3933   -3.5903    3.1931 H         1 GTP        -0.0393
     36 H4'         0.8874   -3.6466    0.8805 H         1 GTP        -0.0393
     37 H3'        -0.7376   -1.2333    1.9867 H         1 GTP        -0.0393
     38 HO3'        1.3408   -0.4870    2.3219 H         1 GTP         0.2010
     39 H2'        -0.0384   -0.0310    0.0096 H         1 GTP        -0.0393
     40 HO2'        2.1463   -0.7958    0.0370 H         1 GTP         0.2010
     41 H1'        -0.4769   -2.1002   -1.8093 H         1 GTP        -0.0393
     42 H8         -2.9610   -2.1316    1.0079 H         1 GTP         0.0000
     43 HN1        -4.5320    1.7923   -3.8726 H         1 GTP         0.0865
     44 HN21       -1.3128    1.1277   -5.0171 H         1 GTP         0.2048
     45 HN22       -2.8342    1.9586   -5.2572 H         1 GTP         0.2048
     46 H46        -5.0195   -0.8034    0.3729 H         1 GTP         0.2048
@<TRIPOS>BOND
     1    1    2 2
     2    1    3 1
     3    1    4 1
     4    1    5 1
     5    5    6 1
     6    6    7 2
     7    6    8 1
     8    6    9 1
     9    8   33 1
    10    9   10 1
    11   10   11 2
    12   10   12 1
    13   10   13 1
    14   13   14 1
    15   14   15 1
    16   14   34 1
    17   14   35 1
    18   15   16 1
    19   15   17 1
    20   15   36 1
    21   16   21 1
    22   17   18 1
    23   17   19 1
    24   17   37 1
    25   18   38 1
    26   19   20 1
    27   19   21 1
    28   19   39 1
    29   20   40 1
    30   21   22 1
    31   21   41 1
    32   22   23 ar
    33   22   32 ar
    34   23   24 ar
    35   23   42 1
    36   24   25 ar
    37   24   46 1
    38   25   26 ar
    39   25   32 ar
    40   26   27 2
    41   26   28 ar
    42   28   29 ar
    43   28   43 1
    44   29   30 1
    45   29   31 ar
    46   30   44 1
    47   30   45 1
    48   31   32 ar
@<TRIPOS>SUBSTRUCTURE
     1 GTP         1 GROUP 0 A     ****
@<TRIPOS>MOLECULE
[[[5-(2-amino-6-oxo-7,8-dihydro-1~{H}-purin-8-ylium-9-yl)-3,4-dihydroxy-tetrahydrofuran-2-yl]methoxy-oxido-phosphoryl]oxy-hydroxy-phosphoryl] phosphate
   46    48     1     0     0
SMALL
USER_CHARGES

@<TRIPOS>ATOM
      1 PG         -1.7890   -5.8522   -0.3407 P.3       1 GTP        -1.1921
      2 O1G        -2.0344   -5.5943    1.1423 O.co2     1 GTP         0.3195
      3 O2G        -0.9597   -7.0990   -0.6306 O.co2     1 GTP         0.3195
      4 O3G        -3.0284   -5.7072   -1.2177 O.co2     1 GTP         0.3195
      5 O3B        -0.8111   -4.6109   -0.8100 O.3       1 GTP         0.4672
      6 PB         -1.0558   -3.0122   -0.7824 P.3       1 GTP        -0.9715
      7 O1B        -2.2265   -2.5392   -1.5925 O.2       1 GTP         0.2707
      8 O2B        -1.1433   -2.6849    0.7986 O.3       1 GTP         0.0326
      9 O3A         0.3774   -2.4053   -1.2148 O.3       1 GTP         0.4672
     10 PA          1.2481   -2.6084   -2.5799 P.3       1 GTP        -1.1062
     11 O1A         1.7027   -4.0501   -2.6474 O.co2     1 GTP         0.3195
     12 O2A         0.4975   -1.9698   -3.7281 O.co2     1 GTP         0.3195
     13 O5'         2.5245   -1.6648   -2.1878 O.3       1 GTP         0.1618
     14 C5'         2.2816   -0.2918   -1.9206 C.3       1 GTP         0.1504
     15 C4'         2.7248    0.0226   -0.4980 C.3       1 GTP         0.1111
     16 O4'         2.4697    1.4219   -0.2462 O.3       1 GTP        -0.1436
     17 C3'         1.9404   -0.7419    0.5596 C.3       1 GTP         0.1111
     18 O3'         2.7418   -0.8086    1.7389 O.3       1 GTP        -0.2728
     19 C2'         0.7477    0.1630    0.7858 C.3       1 GTP         0.1111
     20 O2'         0.1373   -0.0577    2.0407 O.3       1 GTP        -0.2728
     21 C1'         1.3733    1.5427    0.6747 C.3       1 GTP         0.2693
     22 N9          0.4520    2.5240    0.1767 N.pl3     1 GTP        -0.3222
     23 C8          0.5671    3.2221   -0.9473 C.ar      1 GTP         0.1640
     24 N7         -0.4560    4.0508   -1.1290 N.pl3     1 GTP        -0.3688
     25 C5         -1.2671    3.8585   -0.0441 C.ar      1 GTP         0.0648
     26 C6         -2.5318    4.5014    0.2817 C.ar      1 GTP         0.3597
     27 O6         -3.0527    5.3493   -0.4293 O.2       1 GTP        -0.2755
     28 N1         -3.0357    4.0149    1.4868 N.pl3     1 GTP        -0.1604
     29 C2         -2.4069    3.0373    2.2768 C.ar      1 GTP         0.4468
     30 N2         -3.0679    2.6964    3.4278 N.pl3     1 GTP        -0.5618
     31 N3         -1.2653    2.4872    1.9379 N.2       1 GTP        -0.4283
     32 C4         -0.7342    2.9334    0.7643 C.ar      1 GTP         0.2226
     33 HOB2       -1.8920   -3.0491    1.3172 H         1 GTP         0.2010
     34 H5'         2.8432    0.3119   -2.6398 H         1 GTP        -0.0393
     35 H5''        1.2128   -0.0927   -2.0428 H         1 GTP        -0.0393
     36 H4'         3.8044   -0.1397   -0.4040 H         1 GTP        -0.0393
     37 H3'         1.6764   -1.7639    0.2728 H         1 GTP        -0.0393
     38 HO3'        2.2232   -1.2979    2.3953 H         1 GTP         0.2010
     39 H2'        -0.0011    0.0027    0.0003 H         1 GTP        -0.0393
     40 HO2'       -0.1563   -0.9855    2.0596 H         1 GTP         0.2010
     41 H1'         1.7826    1.9024    1.6451 H         1 GTP        -0.0393
     42 H8          1.3888    3.1325   -1.6361 H         1 GTP         0.0000
     43 HN1        -3.9188    4.3932    1.8170 H         1 GTP         0.0865
     44 HN21       -2.6609    2.0087    4.0186 H         1 GTP         0.2048
     45 HN22       -3.9293    3.1496    3.6283 H         1 GTP         0.2048
     46 H46        -0.5938    4.6820   -1.9060 H         1 GTP         0.2048
@<TRIPOS>BOND
     1    1    2 2
     2    1    3 1
     3    1    4 1
     4    1    5 1
     5    5    6 1
     6    6    7 2
     7    6    8 1
     8    6    9 1
     9    8   33 1
    10    9   10 1
    11   10   11 2
    12   10   12 1
    13   10   13 1
    14   13   14 1
    15   14   15 1
    16   14   34 1
    17   14   35 1
    18   15   16 1
    19   15   17 1
    20   15   36 1
    21   16   21 1
    22   17   18 1
    23   17   19 1
    24   17   37 1
    25   18   38 1
    26   19   20 1
    27   19   21 1
    28   19   39 1
    29   20   40 1
    30   21   22 1
    31   21   41 1
    32   22   23 ar
    33   22   32 ar
    34   23   24 ar
    35   23   42 1
    36   24   25 ar
    37   24   46 1
    38   25   26 ar
    39   25   32 ar
    40   26   27 2
    41   26   28 ar
    42   28   29 ar
    43   28   43 1
    44   29   30 1
    45   29   31 ar
    46   30   44 1
    47   30   45 1
    48   31   32 ar
@<TRIPOS>SUBSTRUCTURE
     1 GTP         1 GROUP 0 A     ****
@<TRIPOS>MOLECULE
[[[5-(2-amino-6-oxo-7,8-dihydro-1~{H}-purin-8-ylium-9-yl)-3,4-dihydroxy-tetrahydrofuran-2-yl]methoxy-oxido-phosphoryl]oxy-hydroxy-phosphoryl] phosphate
   46    48     1     0     0
SMALL
USER_CHARGES

@<TRIPOS>ATOM
      1 PG         -6.2393   -5.8944   -0.5648 P.3       1 GTP        -1.1921
      2 O1G        -6.2814   -7.3951   -0.8342 O.co2     1 GTP         0.3195
      3 O2G        -5.9646   -5.0439   -1.8007 O.co2     1 GTP         0.3195
      4 O3G        -7.3793   -5.3800    0.3081 O.co2     1 GTP         0.3195
      5 O3B        -4.8920   -5.6883    0.3624 O.3       1 GTP         0.4672
      6 PB         -4.5086   -6.3010    1.8095 P.3       1 GTP        -0.9715
      7 O1B        -5.4566   -5.9452    2.9164 O.2       1 GTP         0.2707
      8 O2B        -4.3728   -7.8840    1.5099 O.3       1 GTP         0.0326
      9 O3A        -2.9801   -5.8253    2.0257 O.3       1 GTP         0.4672
     10 PA         -1.6398   -6.1268    1.1451 P.3       1 GTP        -1.1062
     11 O1A        -1.3219   -7.6027    1.2476 O.co2     1 GTP         0.3195
     12 O2A        -1.7858   -5.4491   -0.1999 O.co2     1 GTP         0.3195
     13 O5'        -0.5687   -5.2869    2.0510 O.3       1 GTP         0.1618
     14 C5'        -0.7840   -3.8935    2.2172 C.3       1 GTP         0.1504
     15 C4'        -0.0724   -3.1466    1.1027 C.3       1 GTP         0.1111
     16 O4'        -0.8674   -3.1929   -0.0945 O.3       1 GTP        -0.1436
     17 C3'         0.1338   -1.6715    1.4027 C.3       1 GTP         0.1111
     18 O3'         1.2893   -1.4445    2.1808 O.3       1 GTP        -0.2728
     19 C2'         0.2158   -1.0724    0.0128 C.3       1 GTP         0.1111
     20 O2'         1.5141   -1.2448   -0.5513 O.3       1 GTP        -0.2728
     21 C1'        -0.7897   -1.9176   -0.7583 C.3       1 GTP         0.2693
     22 N9         -2.1040   -1.3333   -0.7704 N.pl3     1 GTP        -0.3222
     23 C8         -3.0597   -1.5109    0.1345 C.ar      1 GTP         0.1640
     24 N7         -4.1618   -0.8291   -0.1607 N.pl3     1 GTP        -0.3688
     25 C5         -3.8764   -0.1805   -1.3310 C.ar      1 GTP         0.0648
     26 C6         -4.7187    0.7111   -2.1152 C.ar      1 GTP         0.3597
     27 O6         -5.8617    1.0043   -1.7939 O.2       1 GTP        -0.2755
     28 N1         -4.0405    1.1608   -3.2468 N.pl3     1 GTP        -0.1604
     29 C2         -2.7239    0.8013   -3.5822 C.ar      1 GTP         0.4468
     30 N2         -2.2399    1.3534   -4.7394 N.pl3     1 GTP        -0.5618
     31 N3         -2.0053   -0.0071   -2.8402 N.2       1 GTP        -0.4283
     32 C4         -2.6290   -0.4727   -1.7210 C.ar      1 GTP         0.2226
     33 HOB2       -4.0589   -8.4766    2.2258 H         1 GTP         0.2010
     34 H5'        -1.8598   -3.6968    2.1850 H         1 GTP        -0.0393
     35 H5''       -0.3933   -3.5903    3.1931 H         1 GTP        -0.0393
     36 H4'         0.8874   -3.6466    0.8805 H         1 GTP        -0.0393
     37 H3'        -0.7376   -1.2333    1.9867 H         1 GTP        -0.0393
     38 HO3'        1.3408   -0.4870    2.3219 H         1 GTP         0.2010
     39 H2'        -0.0384   -0.0310    0.0096 H         1 GTP        -0.0393
     40 HO2'        2.1463   -0.7958    0.0370 H         1 GTP         0.2010
     41 H1'        -0.4769   -2.1002   -1.8093 H         1 GTP        -0.0393
     42 H8         -2.9610   -2.1316    1.0079 H         1 GTP         0.0000
     43 HN1        -4.5320    1.7923   -3.8726 H         1 GTP         0.0865
     44 HN21       -1.3128    1.1277   -5.0171 H         1 GTP         0.2048
     45 HN22       -2.8342    1.9586   -5.2572 H         1 GTP         0.2048
     46 H46        -5.0195   -0.8034    0.3729 H         1 GTP         0.2048
@<TRIPOS>BOND
     1    1    2 2
     2    1    3 1
     3    1    4 1
     4    1    5 1
     5    5    6 1
     6    6    7 2
     7    6    8 1
     8    6    9 1
     9    8   33 1
    10    9   10 1
    11   10   11 2
    12   10   12 1
    13   10   13 1
    14   13   14 1
    15   14   15 1
    16   14   34 1
    17   14   35 1
    18   15   16 1
    19   15   17 1
    20   15   36 1
    21   16   21 1
    22   17   18 1
    23   17   19 1
    24   17   37 1
    25   18   38 1
    26   19   20 1
    27   19   21 1
    28   19   39 1
    29   20   40 1
    30   21   22 1
    31   21   41 1
    32   22   23 ar
    33   22   32 ar
    34   23   24 ar
    35   23   42 1
    36   24   25 ar
    37   24   46 1
    38   25   26 ar
    39   25   32 ar
    40   26   27 2
    41   26   28 ar
    42   28   29 ar
    43   28   43 1
    44   29   30 1
    45   29   31 ar
    46   30   44 1
    47   30   45 1
    48   31   32 ar
@<TRIPOS>SUBSTRUCTURE
     1 GTP         1 GROUP 0 A     ****
@<TRIPOS>MOLECULE
[[[5-(2-amino-6-oxo-7,8-dihydro-1~{H}-purin-8-ylium-9-yl)-3,4-dihydroxy-tetrahydrofuran-2-yl]methoxy-oxido-phosphoryl]oxy-hydroxy-phosphoryl] phosphate
   46    48     1     0     0
SMALL
USER_CHARGES

@<TRIPOS>ATOM
      1 PG         -5.7661   -8.8623    2.6195 P.3       1 GTP        -1.1921
      2 O1G        -6.6773   -8.1423    3.6082 O.co2     1 GTP         0.3195
      3 O2G        -5.0929  -10.1098    3.1825 O.co2     1 GTP         0.3195
      4 O3G        -6.3680   -9.0488    1.2306 O.co2     1 GTP         0.3195
      5 O3B        -4.5167   -7.8130    2.3839 O.3       1 GTP         0.4672
      6 PB         -4.5086   -6.3010    1.8095 P.3       1 GTP        -0.9715
      7 O1B        -5.0377   -6.1536    0.4134 O.2       1 GTP         0.2707
      8 O2B        -5.3234   -5.4787    2.9383 O.3       1 GTP         0.0326
      9 O3A        -2.9801   -5.8253    2.0257 O.3       1 GTP         0.4672
     10 PA         -1.6398   -6.1268    1.1451 P.3       1 GTP        -1.1062
     11 O1A        -1.3219   -7.6027    1.2476 O.co2     1 GTP         0.3195
     12 O2A        -1.7858   -5.4491   -0.1999 O.co2     1 GTP         0.3195
     13 O5'        -0.5687   -5.2869    2.0510 O.3       1 GTP         0.1618
     14 C5'        -0.7840   -3.8935    2.2172 C.3       1 GTP         0.1504
     15 C4'        -0.0724   -3.1466    1.1027 C.3       1 GTP         0.1111
     16 O4'        -0.8674   -3.1929   -0.0945 O.3       1 GTP        -0.1436
     17 C3'         0.1338   -1.6715    1.4027 C.3       1 GTP         0.1111
     18 O3'         1.2893   -1.4445    2.1808 O.3       1 GTP        -0.2728
     19 C2'         0.2158   -1.0724    0.0128 C.3       1 GTP         0.1111
     20 O2'         1.5141   -1.2448   -0.5513 O.3       1 GTP        -0.2728
     21 C1'        -0.7897   -1.9176   -0.7583 C.3       1 GTP         0.2693
     22 N9         -2.1040   -1.3333   -0.7704 N.pl3     1 GTP        -0.3222
     23 C8         -3.0597   -1.5109    0.1345 C.ar      1 GTP         0.1640
     24 N7         -4.1618   -0.8291   -0.1607 N.pl3     1 GTP        -0.3688
     25 C5         -3.8764   -0.1805   -1.3310 C.ar      1 GTP         0.0648
     26 C6         -4.7187    0.7111   -2.1152 C.ar      1 GTP         0.3597
     27 O6         -5.8617    1.0043   -1.7939 O.2       1 GTP        -0.2755
     28 N1         -4.0405    1.1608   -3.2468 N.pl3     1 GTP        -0.1604
     29 C2         -2.7239    0.8013   -3.5822 C.ar      1 GTP         0.4468
     30 N2         -2.2399    1.3534   -4.7394 N.pl3     1 GTP        -0.5618
     31 N3         -2.0053   -0.0071   -2.8402 N.2       1 GTP        -0.4283
     32 C4         -2.6290   -0.4727   -1.7210 C.ar      1 GTP         0.2226
     33 HOB2       -5.3855   -4.5027    2.8613 H         1 GTP         0.2010
     34 H5'        -1.8598   -3.6968    2.1850 H         1 GTP        -0.0393
     35 H5''       -0.3933   -3.5903    3.1931 H         1 GTP        -0.0393
     36 H4'         0.8874   -3.6466    0.8805 H         1 GTP        -0.0393
     37 H3'        -0.7376   -1.2333    1.9867 H         1 GTP        -0.0393
     38 HO3'        1.3408   -0.4870    2.3219 H         1 GTP         0.2010
     39 H2'        -0.0384   -0.0310    0.0096 H         1 GTP        -0.0393
     40 HO2'        2.1463   -0.7958    0.0370 H         1 GTP         0.2010
     41 H1'        -0.4769   -2.1002   -1.8093 H         1 GTP        -0.0393
     42 H8         -2.9610   -2.1316    1.0079 H         1 GTP         0.0000
     43 HN1        -4.5320    1.7923   -3.8726 H         1 GTP         0.0865
     44 HN21       -1.3128    1.1277   -5.0171 H         1 GTP         0.2048
     45 HN22       -2.8342    1.9586   -5.2572 H         1 GTP         0.2048
     46 H46        -5.0195   -0.8034    0.3729 H         1 GTP         0.2048
@<TRIPOS>BOND
     1    1    2 2
     2    1    3 1
     3    1    4 1
     4    1    5 1
     5    5    6 1
     6    6    7 2
     7    6    8 1
     8    6    9 1
     9    8   33 1
    10    9   10 1
    11   10   11 2
    12   10   12 1
    13   10   13 1
    14   13   14 1
    15   14   15 1
    16   14   34 1
    17   14   35 1
    18   15   16 1
    19   15   17 1
    20   15   36 1
    21   16   21 1
    22   17   18 1
    23   17   19 1
    24   17   37 1
    25   18   38 1
    26   19   20 1
    27   19   21 1
    28   19   39 1
    29   20   40 1
    30   21   22 1
    31   21   41 1
    32   22   23 ar
    33   22   32 ar
    34   23   24 ar
    35   23   42 1
    36   24   25 ar
    37   24   46 1
    38   25   26 ar
    39   25   32 ar
    40   26   27 2
    41   26   28 ar
    42   28   29 ar
    43   28   43 1
    44   29   30 1
    45   29   31 ar
    46   30   44 1
    47   30   45 1
    48   31   32 ar
@<TRIPOS>SUBSTRUCTURE
     1 GTP         1 GROUP 0 A     ****
@<TRIPOS>MOLECULE
[[[5-(2-amino-6-oxo-7,8-dihydro-1~{H}-purin-8-ylium-9-yl)-3,4-dihydroxy-tetrahydrofuran-2-yl]methoxy-oxido-phosphoryl]oxy-hydroxy-phosphoryl] phosphate
   46    48     1     0     0
SMALL
USER_CHARGES

@<TRIPOS>ATOM
      1 PG         -2.7128    1.3463   -5.3836 P.3       1 GTP        -1.1921
      2 O1G        -3.5348    2.1171   -4.3558 O.co2     1 GTP         0.3195
      3 O2G        -3.0921   -0.1254   -5.5124 O.co2     1 GTP         0.3195
      4 O3G        -2.5377    2.0664   -6.7166 O.co2     1 GTP         0.3195
      5 O3B        -1.1957    1.3071   -4.7401 O.3       1 GTP         0.4672
      6 PB         -0.1921    2.5112   -4.3411 P.3       1 GTP        -0.9715
      7 O1B         0.1959    3.4115   -5.4766 O.2       1 GTP         0.2707
      8 O2B        -0.9667    3.2424   -3.1247 O.3       1 GTP         0.0326
      9 O3A         1.0314    1.7530   -3.6079 O.3       1 GTP         0.4672
     10 PA          2.3065    0.9470   -4.2302 P.3       1 GTP        -1.1062
     11 O1A         1.7942   -0.2957   -4.9251 O.co2     1 GTP         0.3195
     12 O2A         3.1953    1.9368   -4.9513 O.co2     1 GTP         0.3195
     13 O5'         3.0213    0.5153   -2.8245 O.3       1 GTP         0.1618
     14 C5'         2.2816   -0.2918   -1.9206 C.3       1 GTP         0.1504
     15 C4'         2.7248    0.0226   -0.4980 C.3       1 GTP         0.1111
     16 O4'         2.4697    1.4219   -0.2462 O.3       1 GTP        -0.1436
     17 C3'         1.9404   -0.7419    0.5596 C.3       1 GTP         0.1111
     18 O3'         2.7418   -0.8086    1.7389 O.3       1 GTP        -0.2728
     19 C2'         0.7477    0.1630    0.7858 C.3       1 GTP         0.1111
     20 O2'         0.1373   -0.0577    2.0407 O.3       1 GTP        -0.2728
     21 C1'         1.3733    1.5427    0.6747 C.3       1 GTP         0.2693
     22 N9          0.4520    2.5240    0.1767 N.pl3     1 GTP        -0.3222
     23 C8         -0.8613    2.5511    0.3730 C.ar      1 GTP         0.1640
     24 N7         -1.4346    3.5939   -0.2188 N.pl3     1 GTP        -0.3688
     25 C5         -0.4099    4.2657   -0.8276 C.ar      1 GTP         0.0648
     26 C6         -0.4554    5.4854   -1.6209 C.ar      1 GTP         0.3597
     27 O6         -1.4907    6.0944   -1.8508 O.2       1 GTP        -0.2755
     28 N1          0.8205    5.8357   -2.0593 N.pl3     1 GTP        -0.1604
     29 C2          1.9890    5.1091   -1.7730 C.ar      1 GTP         0.4468
     30 N2          3.1452    5.6230   -2.2997 N.pl3     1 GTP        -0.5618
     31 N3          1.9765    4.0139   -1.0514 N.2       1 GTP        -0.4283
     32 C4          0.7480    3.6324   -0.6003 C.ar      1 GTP         0.2226
     33 HOB2       -1.8183    3.6934   -3.3082 H         1 GTP         0.2010
     34 H5'         1.2163   -0.0770   -2.0471 H         1 GTP        -0.0393
     35 H5''        2.4655   -1.3443   -2.1563 H         1 GTP        -0.0393
     36 H4'         3.8044   -0.1397   -0.4040 H         1 GTP        -0.0393
     37 H3'         1.6764   -1.7639    0.2728 H         1 GTP        -0.0393
     38 HO3'        2.2232   -1.2979    2.3953 H         1 GTP         0.2010
     39 H2'        -0.0011    0.0027    0.0003 H         1 GTP        -0.0393
     40 HO2'       -0.1563   -0.9855    2.0596 H         1 GTP         0.2010
     41 H1'         1.7826    1.9024    1.6451 H         1 GTP        -0.0393
     42 H8         -1.4050    1.8187    0.9438 H         1 GTP         0.0000
     43 HN1         0.9121    6.6744   -2.6251 H         1 GTP         0.0865
     44 HN21        3.9971    5.1427   -2.1235 H         1 GTP         0.2048
     45 HN22        3.0881    6.4564   -2.8380 H         1 GTP         0.2048
     46 H46        -2.4173    3.8294   -0.2127 H         1 GTP         0.2048
@<TRIPOS>BOND
     1    1    2 2
     2    1    3 1
     3    1    4 1
     4    1    5 1
     5    5    6 1
     6    6    7 2
     7    6    8 1
     8    6    9 1
     9    8   33 1
    10    9   10 1
    11   10   11 2
    12   10   12 1
    13   10   13 1
    14   13   14 1
    15   14   15 1
    16   14   34 1
    17   14   35 1
    18   15   16 1
    19   15   17 1
    20   15   36 1
    21   16   21 1
    22   17   18 1
    23   17   19 1
    24   17   37 1
    25   18   38 1
    26   19   20 1
    27   19   21 1
    28   19   39 1
    29   20   40 1
    30   21   22 1
    31   21   41 1
    32   22   23 ar
    33   22   32 ar
    34   23   24 ar
    35   23   42 1
    36   24   25 ar
    37   24   46 1
    38   25   26 ar
    39   25   32 ar
    40   26   27 2
    41   26   28 ar
    42   28   29 ar
    43   28   43 1
    44   29   30 1
    45   29   31 ar
    46   30   44 1
    47   30   45 1
    48   31   32 ar
@<TRIPOS>SUBSTRUCTURE
     1 GTP         1 GROUP 0 A     ****
@<TRIPOS>MOLECULE
[[[5-(2-amino-6-oxo-7,8-dihydro-1~{H}-purin-8-ylium-9-yl)-3,4-dihydroxy-tetrahydrofuran-2-yl]methoxy-oxido-phosphoryl]oxy-hydroxy-phosphoryl] phosphate
   46    48     1     0     0
SMALL
USER_CHARGES

@<TRIPOS>ATOM
      1 PG         -1.4042    0.5874   -6.6707 P.3       1 GTP        -1.1921
      2 O1G        -0.7677    1.0068   -7.9918 O.co2     1 GTP         0.3195
      3 O2G        -2.6565    1.3757   -6.3010 O.co2     1 GTP         0.3195
      4 O3G        -1.5375   -0.9208   -6.4877 O.co2     1 GTP         0.3195
      5 O3B        -0.3032    1.0398   -5.5304 O.3       1 GTP         0.4672
      6 PB          1.2364    0.5906   -5.3198 P.3       1 GTP        -0.9715
      7 O1B         1.4391   -0.8777   -5.0886 O.2       1 GTP         0.2707
      8 O2B         1.9709    1.1823   -6.6331 O.3       1 GTP         0.0326
      9 O3A         1.7506    1.5572   -4.1320 O.3       1 GTP         0.4672
     10 PA          3.2070    1.6613   -3.4034 P.3       1 GTP        -1.1062
     11 O1A         4.2642    1.8423   -4.4707 O.co2     1 GTP         0.3195
     12 O2A         3.0952    2.6238   -2.2412 O.co2     1 GTP         0.3195
     13 O5'         3.2903    0.1346   -2.8241 O.3       1 GTP         0.1618
     14 C5'         2.2816   -0.2918   -1.9206 C.3       1 GTP         0.1504
     15 C4'         2.7248    0.0226   -0.4980 C.3       1 GTP         0.1111
     16 O4'         2.4697    1.4219   -0.2462 O.3       1 GTP        -0.1436
     17 C3'         1.9404   -0.7419    0.5596 C.3       1 GTP         0.1111
     18 O3'         2.7418   -0.8086    1.7389 O.3       1 GTP        -0.2728
     19 C2'         0.7477    0.1630    0.7858 C.3       1 GTP         0.1111
     20 O2'         0.1373   -0.0577    2.0407 O.3       1 GTP        -0.2728
     21 C1'         1.3733    1.5427    0.6747 C.3       1 GTP         0.2693
     22 N9          0.4520    2.5240    0.1767 N.pl3     1 GTP        -0.3222
     23 C8          0.2203    2.8205   -1.0970 C.ar      1 GTP         0.1640
     24 N7         -0.6947    3.7752   -1.2304 N.pl3     1 GTP        -0.3688
     25 C5         -1.0607    4.0987    0.0476 C.ar      1 GTP         0.0648
     26 C6         -2.0310    5.0839    0.5029 C.ar      1 GTP         0.3597
     27 O6         -2.6779    5.7867   -0.2609 O.2       1 GTP        -0.2755
     28 N1         -2.1030    5.0975    1.8948 N.pl3     1 GTP        -0.1604
     29 C2         -1.3422    4.2721    2.7403 C.ar      1 GTP         0.4468
     30 N2         -1.5624    4.4419    4.0823 N.pl3     1 GTP        -0.5618
     31 N3         -0.4796    3.3981    2.2792 N.2       1 GTP        -0.4283
     32 C4         -0.3754    3.3496    0.9208 C.ar      1 GTP         0.2226
     33 HOB2        2.9469    1.1128   -6.7020 H         1 GTP         0.2010
     34 H5'         1.3514    0.2330   -2.1577 H         1 GTP        -0.0393
     35 H5''        2.1280   -1.3678   -2.0460 H         1 GTP        -0.0393
     36 H4'         3.8044   -0.1397   -0.4040 H         1 GTP        -0.0393
     37 H3'         1.6764   -1.7639    0.2728 H         1 GTP        -0.0393
     38 HO3'        2.9083    0.1071    2.0092 H         1 GTP         0.2010
     39 H2'        -0.0011    0.0027    0.0003 H         1 GTP        -0.0393
     40 HO2'       -0.6141    0.5574    2.1082 H         1 GTP         0.2010
     41 H1'         1.7826    1.9024    1.6451 H         1 GTP        -0.0393
     42 H8          0.7110    2.3472   -1.9295 H         1 GTP         0.0000
     43 HN1        -2.7504    5.7495    2.3282 H         1 GTP         0.0865
     44 HN21       -1.0467    3.8796    4.7190 H         1 GTP         0.2048
     45 HN22       -2.2294    5.1209    4.3680 H         1 GTP         0.2048
     46 H46        -1.0382    4.1687   -2.0954 H         1 GTP         0.2048
@<TRIPOS>BOND
     1    1    2 2
     2    1    3 1
     3    1    4 1
     4    1    5 1
     5    5    6 1
     6    6    7 2
     7    6    8 1
     8    6    9 1
     9    8   33 1
    10    9   10 1
    11   10   11 2
    12   10   12 1
    13   10   13 1
    14   13   14 1
    15   14   15 1
    16   14   34 1
    17   14   35 1
    18   15   16 1
    19   15   17 1
    20   15   36 1
    21   16   21 1
    22   17   18 1
    23   17   19 1
    24   17   37 1
    25   18   38 1
    26   19   20 1
    27   19   21 1
    28   19   39 1
    29   20   40 1
    30   21   22 1
    31   21   41 1
    32   22   23 ar
    33   22   32 ar
    34   23   24 ar
    35   23   42 1
    36   24   25 ar
    37   24   46 1
    38   25   26 ar
    39   25   32 ar
    40   26   27 2
    41   26   28 ar
    42   28   29 ar
    43   28   43 1
    44   29   30 1
    45   29   31 ar
    46   30   44 1
    47   30   45 1
    48   31   32 ar
@<TRIPOS>SUBSTRUCTURE
     1 GTP         1 GROUP 0 A     ****
@<TRIPOS>MOLECULE
[[[5-(2-amino-6-oxo-7,8-dihydro-1~{H}-purin-8-ylium-9-yl)-3,4-dihydroxy-tetrahydrofuran-2-yl]methoxy-oxido-phosphoryl]oxy-hydroxy-phosphoryl] phosphate
   46    48     1     0     0
SMALL
USER_CHARGES

@<TRIPOS>ATOM
      1 PG         -0.8641   -2.2152   -5.0436 P.3       1 GTP        -1.1921
      2 O1G        -0.1420   -3.4161   -4.4413 O.co2     1 GTP         0.3195
      3 O2G        -1.9383   -2.5775   -6.0639 O.co2     1 GTP         0.3195
      4 O3G        -1.2970   -1.1660   -4.0249 O.co2     1 GTP         0.3195
      5 O3B         0.2922   -1.4575   -5.9416 O.3       1 GTP         0.4672
      6 PB          1.7091   -0.8127   -5.5020 P.3       1 GTP        -0.9715
      7 O1B         2.6734   -1.7762   -4.8757 O.2       1 GTP         0.2707
      8 O2B         2.2296   -0.1152   -6.8646 O.3       1 GTP         0.0326
      9 O3A         1.2806    0.4400   -4.5765 O.3       1 GTP         0.4672
     10 PA          2.1937    1.5414   -3.7917 P.3       1 GTP        -1.1062
     11 O1A         3.1512    2.1639   -4.7844 O.co2     1 GTP         0.3195
     12 O2A         1.2849    2.3984   -2.9378 O.co2     1 GTP         0.3195
     13 O5'         3.0213    0.5153   -2.8245 O.3       1 GTP         0.1618
     14 C5'         2.2816   -0.2918   -1.9206 C.3       1 GTP         0.1504
     15 C4'         2.7248    0.0226   -0.4980 C.3       1 GTP         0.1111
     16 O4'         2.4697    1.4219   -0.2462 O.3       1 GTP        -0.1436
     17 C3'         1.9404   -0.7419    0.5596 C.3       1 GTP         0.1111
     18 O3'         2.7418   -0.8086    1.7389 O.3       1 GTP        -0.2728
     19 C2'         0.7477    0.1630    0.7858 C.3       1 GTP         0.1111
     20 O2'         0.1373   -0.0577    2.0407 O.3       1 GTP        -0.2728
     21 C1'         1.3733    1.5427    0.6747 C.3       1 GTP         0.2693
     22 N9          0.4520    2.5240    0.1767 N.pl3     1 GTP        -0.3222
     23 C8         -0.8613    2.5511    0.3730 C.ar      1 GTP         0.1640
     24 N7         -1.4346    3.5939   -0.2188 N.pl3     1 GTP        -0.3688
     25 C5         -0.4099    4.2657   -0.8276 C.ar      1 GTP         0.0648
     26 C6         -0.4554    5.4854   -1.6209 C.ar      1 GTP         0.3597
     27 O6         -1.4907    6.0944   -1.8508 O.2       1 GTP        -0.2755
     28 N1          0.8205    5.8357   -2.0593 N.pl3     1 GTP        -0.1604
     29 C2          1.9890    5.1091   -1.7730 C.ar      1 GTP         0.4468
     30 N2          3.1452    5.6230   -2.2997 N.pl3     1 GTP        -0.5618
     31 N3          1.9765    4.0139   -1.0514 N.2       1 GTP        -0.4283
     32 C4          0.7480    3.6324   -0.6003 C.ar      1 GTP         0.2226
     33 HOB2        3.0473    0.4260   -6.8375 H         1 GTP         0.2010
     34 H5'         1.2163   -0.0770   -2.0471 H         1 GTP        -0.0393
     35 H5''        2.4655   -1.3443   -2.1563 H         1 GTP        -0.0393
     36 H4'         3.8044   -0.1397   -0.4040 H         1 GTP        -0.0393
     37 H3'         1.6764   -1.7639    0.2728 H         1 GTP        -0.0393
     38 HO3'        2.2232   -1.2979    2.3953 H         1 GTP         0.2010
     39 H2'        -0.0011    0.0027    0.0003 H         1 GTP        -0.0393
     40 HO2'       -0.1563   -0.9855    2.0596 H         1 GTP         0.2010
     41 H1'         1.7826    1.9024    1.6451 H         1 GTP        -0.0393
     42 H8         -1.4050    1.8187    0.9438 H         1 GTP         0.0000
     43 HN1         0.9121    6.6744   -2.6251 H         1 GTP         0.0865
     44 HN21        3.9971    5.1427   -2.1235 H         1 GTP         0.2048
     45 HN22        3.0881    6.4564   -2.8380 H         1 GTP         0.2048
     46 H46        -2.4173    3.8294   -0.2127 H         1 GTP         0.2048
@<TRIPOS>BOND
     1    1    2 2
     2    1    3 1
     3    1    4 1
     4    1    5 1
     5    5    6 1
     6    6    7 2
     7    6    8 1
     8    6    9 1
     9    8   33 1
    10    9   10 1
    11   10   11 2
    12   10   12 1
    13   10   13 1
    14   13   14 1
    15   14   15 1
    16   14   34 1
    17   14   35 1
    18   15   16 1
    19   15   17 1
    20   15   36 1
    21   16   21 1
    22   17   18 1
    23   17   19 1
    24   17   37 1
    25   18   38 1
    26   19   20 1
    27   19   21 1
    28   19   39 1
    29   20   40 1
    30   21   22 1
    31   21   41 1
    32   22   23 ar
    33   22   32 ar
    34   23   24 ar
    35   23   42 1
    36   24   25 ar
    37   24   46 1
    38   25   26 ar
    39   25   32 ar
    40   26   27 2
    41   26   28 ar
    42   28   29 ar
    43   28   43 1
    44   29   30 1
    45   29   31 ar
    46   30   44 1
    47   30   45 1
    48   31   32 ar
@<TRIPOS>SUBSTRUCTURE
     1 GTP         1 GROUP 0 A     ****
@<TRIPOS>MOLECULE
[[[5-(2-amino-6-oxo-7,8-dihydro-1~{H}-purin-8-ylium-9-yl)-3,4-dihydroxy-tetrahydrofuran-2-yl]methoxy-oxido-phosphoryl]oxy-hydroxy-phosphoryl] phosphate
   46    48     1     0     0
SMALL
USER_CHARGES

@<TRIPOS>ATOM
      1 PG         -1.3990    2.2843   -4.5929 P.3       1 GTP        -1.1921
      2 O1G        -2.4474    1.6197   -5.4790 O.co2     1 GTP         0.3195
      3 O2G        -1.5755    3.7911   -4.4364 O.co2     1 GTP         0.3195
      4 O3G        -1.1216    1.5477   -3.2864 O.co2     1 GTP         0.3195
      5 O3B         0.0031    2.1386   -5.4475 O.3       1 GTP         0.4672
      6 PB          0.7860    0.8213   -5.9653 P.3       1 GTP        -0.9715
      7 O1B        -0.0972   -0.2722   -6.4893 O.2       1 GTP         0.2707
      8 O2B         1.8380    1.4210   -7.0366 O.3       1 GTP         0.0326
      9 O3A         1.7163    0.4187   -4.7075 O.3       1 GTP         0.4672
     10 PA          2.8924    1.2553   -3.9461 P.3       1 GTP        -1.1062
     11 O1A         4.0520    1.4291   -4.9026 O.co2     1 GTP         0.3195
     12 O2A         2.2644    2.4449   -3.2532 O.co2     1 GTP         0.3195
     13 O5'         3.2903    0.1346   -2.8241 O.3       1 GTP         0.1618
     14 C5'         2.2816   -0.2918   -1.9206 C.3       1 GTP         0.1504
     15 C4'         2.7248    0.0226   -0.4980 C.3       1 GTP         0.1111
     16 O4'         2.4697    1.4219   -0.2462 O.3       1 GTP        -0.1436
     17 C3'         1.9404   -0.7419    0.5596 C.3       1 GTP         0.1111
     18 O3'         2.7418   -0.8086    1.7389 O.3       1 GTP        -0.2728
     19 C2'         0.7477    0.1630    0.7858 C.3       1 GTP         0.1111
     20 O2'         0.1373   -0.0577    2.0407 O.3       1 GTP        -0.2728
     21 C1'         1.3733    1.5427    0.6747 C.3       1 GTP         0.2693
     22 N9          0.4520    2.5240    0.1767 N.pl3     1 GTP        -0.3222
     23 C8          0.5671    3.2221   -0.9473 C.ar      1 GTP         0.1640
     24 N7         -0.4560    4.0508   -1.1290 N.pl3     1 GTP        -0.3688
     25 C5         -1.2671    3.8585   -0.0441 C.ar      1 GTP         0.0648
     26 C6         -2.5318    4.5014    0.2817 C.ar      1 GTP         0.3597
     27 O6         -3.0527    5.3493   -0.4293 O.2       1 GTP        -0.2755
     28 N1         -3.0357    4.0149    1.4868 N.pl3     1 GTP        -0.1604
     29 C2         -2.4069    3.0373    2.2768 C.ar      1 GTP         0.4468
     30 N2         -3.0679    2.6964    3.4278 N.pl3     1 GTP        -0.5618
     31 N3         -1.2653    2.4872    1.9379 N.2       1 GTP        -0.4283
     32 C4         -0.7342    2.9334    0.7643 C.ar      1 GTP         0.2226
     33 HOB2        2.4440    2.1391   -6.7549 H         1 GTP         0.2010
     34 H5'         1.3514    0.2330   -2.1577 H         1 GTP        -0.0393
     35 H5''        2.1280   -1.3678   -2.0460 H         1 GTP        -0.0393
     36 H4'         3.8044   -0.1397   -0.4040 H         1 GTP        -0.0393
     37 H3'         1.6764   -1.7639    0.2728 H         1 GTP        -0.0393
     38 HO3'        2.2232   -1.2979    2.3953 H         1 GTP         0.2010
     39 H2'        -0.0011    0.0027    0.0003 H         1 GTP        -0.0393
     40 HO2'       -0.1563   -0.9855    2.0596 H         1 GTP         0.2010
     41 H1'         1.7826    1.9024    1.6451 H         1 GTP        -0.0393
     42 H8          1.3888    3.1325   -1.6361 H         1 GTP         0.0000
     43 HN1        -3.9188    4.3932    1.8170 H         1 GTP         0.0865
     44 HN21       -2.6609    2.0087    4.0186 H         1 GTP         0.2048
     45 HN22       -3.9293    3.1496    3.6283 H         1 GTP         0.2048
     46 H46        -0.5938    4.6820   -1.9060 H         1 GTP         0.2048
@<TRIPOS>BOND
     1    1    2 2
     2    1    3 1
     3    1    4 1
     4    1    5 1
     5    5    6 1
     6    6    7 2
     7    6    8 1
     8    6    9 1
     9    8   33 1
    10    9   10 1
    11   10   11 2
    12   10   12 1
    13   10   13 1
    14   13   14 1
    15   14   15 1
    16   14   34 1
    17   14   35 1
    18   15   16 1
    19   15   17 1
    20   15   36 1
    21   16   21 1
    22   17   18 1
    23   17   19 1
    24   17   37 1
    25   18   38 1
    26   19   20 1
    27   19   21 1
    28   19   39 1
    29   20   40 1
    30   21   22 1
    31   21   41 1
    32   22   23 ar
    33   22   32 ar
    34   23   24 ar
    35   23   42 1
    36   24   25 ar
    37   24   46 1
    38   25   26 ar
    39   25   32 ar
    40   26   27 2
    41   26   28 ar
    42   28   29 ar
    43   28   43 1
    44   29   30 1
    45   29   31 ar
    46   30   44 1
    47   30   45 1
    48   31   32 ar
@<TRIPOS>SUBSTRUCTURE
     1 GTP         1 GROUP 0 A     ****
@<TRIPOS>MOLECULE
[[[5-(2-amino-6-oxo-7,8-dihydro-1~{H}-purin-8-ylium-9-yl)-3,4-dihydroxy-tetrahydrofuran-2-yl]methoxy-oxido-phosphoryl]oxy-hydroxy-phosphoryl] phosphate
   46    48     1     0     0
SMALL
USER_CHARGES

@<TRIPOS>ATOM
      1 PG          3.5944    5.3850    0.9642 P.3       1 GTP        -1.1921
      2 O1G         4.9110    6.0158    0.5227 O.co2     1 GTP         0.3195
      3 O2G         3.6371    4.7525    2.3514 O.co2     1 GTP         0.3195
      4 O3G         2.3654    6.2514    0.7091 O.co2     1 GTP         0.3195
      5 O3B         3.4029    4.0991   -0.0493 O.3       1 GTP         0.4672
      6 PB          3.2804    4.0406   -1.6611 P.3       1 GTP        -0.9715
      7 O1B         2.1219    4.8024   -2.2338 O.2       1 GTP         0.2707
      8 O2B         4.7366    4.5404   -2.1549 O.3       1 GTP         0.0326
      9 O3A         3.2960    2.4574   -1.9817 O.3       1 GTP         0.4672
     10 PA          3.2070    1.6613   -3.4034 P.3       1 GTP        -1.1062
     11 O1A         1.8330    1.8902   -3.9947 O.co2     1 GTP         0.3195
     12 O2A         4.4603    1.9557   -4.1984 O.co2     1 GTP         0.3195
     13 O5'         3.2903    0.1346   -2.8241 O.3       1 GTP         0.1618
     14 C5'         2.2816   -0.2918   -1.9206 C.3       1 GTP         0.1504
     15 C4'         2.7248    0.0226   -0.4980 C.3       1 GTP         0.1111
     16 O4'         2.4697    1.4219   -0.2462 O.3       1 GTP        -0.1436
     17 C3'         1.9404   -0.7419    0.5596 C.3       1 GTP         0.1111
     18 O3'         2.7418   -0.8086    1.7389 O.3       1 GTP        -0.2728
     19 C2'         0.7477    0.1630    0.7858 C.3       1 GTP         0.1111
     20 O2'         0.1373   -0.0577    2.0407 O.3       1 GTP        -0.2728
     21 C1'         1.3733    1.5427    0.6747 C.3       1 GTP         0.2693
     22 N9          0.4520    2.5240    0.1767 N.pl3     1 GTP        -0.3222
     23 C8         -0.2009    2.4849   -0.9792 C.ar      1 GTP         0.1640
     24 N7         -0.9840    3.5454   -1.1481 N.pl3     1 GTP        -0.3688
     25 C5         -0.8090    4.3005   -0.0206 C.ar      1 GTP         0.0648
     26 C6         -1.4206    5.5724    0.3362 C.ar      1 GTP         0.3597
     27 O6         -2.2199    6.1544   -0.3836 O.2       1 GTP        -0.2755
     28 N1         -0.9680    6.0043    1.5817 N.pl3     1 GTP        -0.1604
     29 C2         -0.0474    5.3055    2.3814 C.ar      1 GTP         0.4468
     30 N2          0.2680    5.9024    3.5740 N.pl3     1 GTP        -0.5618
     31 N3          0.4755    4.1601    2.0138 N.2       1 GTP        -0.4283
     32 C4          0.0611    3.6981    0.8001 C.ar      1 GTP         0.2226
     33 HOB2        4.9472    4.5137   -3.1126 H         1 GTP         0.2010
     34 H5'         1.3514    0.2330   -2.1577 H         1 GTP        -0.0393
     35 H5''        2.1280   -1.3678   -2.0460 H         1 GTP        -0.0393
     36 H4'         3.8044   -0.1397   -0.4040 H         1 GTP        -0.0393
     37 H3'         1.6764   -1.7639    0.2728 H         1 GTP        -0.0393
     38 HO3'        2.2232   -1.2979    2.3953 H         1 GTP         0.2010
     39 H2'        -0.0011    0.0027    0.0003 H         1 GTP        -0.0393
     40 HO2'       -0.6141    0.5574    2.1082 H         1 GTP         0.2010
     41 H1'         1.7826    1.9024    1.6451 H         1 GTP        -0.0393
     42 H8         -0.1126    1.6906   -1.6997 H         1 GTP         0.0000
     43 HN1        -1.3285    6.8855    1.9361 H         1 GTP         0.0865
     44 HN21        0.9153    5.4446    4.1732 H         1 GTP         0.2048
     45 HN22       -0.1624    6.7706    3.7948 H         1 GTP         0.2048
     46 H46        -1.5768    3.7405   -1.9429 H         1 GTP         0.2048
@<TRIPOS>BOND
     1    1    2 2
     2    1    3 1
     3    1    4 1
     4    1    5 1
     5    5    6 1
     6    6    7 2
     7    6    8 1
     8    6    9 1
     9    8   33 1
    10    9   10 1
    11   10   11 2
    12   10   12 1
    13   10   13 1
    14   13   14 1
    15   14   15 1
    16   14   34 1
    17   14   35 1
    18   15   16 1
    19   15   17 1
    20   15   36 1
    21   16   21 1
    22   17   18 1
    23   17   19 1
    24   17   37 1
    25   18   38 1
    26   19   20 1
    27   19   21 1
    28   19   39 1
    29   20   40 1
    30   21   22 1
    31   21   41 1
    32   22   23 ar
    33   22   32 ar
    34   23   24 ar
    35   23   42 1
    36   24   25 ar
    37   24   46 1
    38   25   26 ar
    39   25   32 ar
    40   26   27 2
    41   26   28 ar
    42   28   29 ar
    43   28   43 1
    44   29   30 1
    45   29   31 ar
    46   30   44 1
    47   30   45 1
    48   31   32 ar
@<TRIPOS>SUBSTRUCTURE
     1 GTP         1 GROUP 0 A     ****
@<TRIPOS>MOLECULE
[[[5-(2-amino-6-oxo-7,8-dihydro-1~{H}-purin-8-ylium-9-yl)-3,4-dihydroxy-tetrahydrofuran-2-yl]methoxy-oxido-phosphoryl]oxy-hydroxy-phosphoryl] phosphate
   46    48     1     0     0
SMALL
USER_CHARGES

@<TRIPOS>ATOM
      1 PG         -0.5440   -1.8295   -6.0130 P.3       1 GTP        -1.1921
      2 O1G        -0.0715   -2.0795   -7.4415 O.co2     1 GTP         0.3195
      3 O2G        -2.0151   -2.1537   -5.7744 O.co2     1 GTP         0.3195
      4 O3G         0.3967   -2.3622   -4.9372 O.co2     1 GTP         0.3195
      5 O3B        -0.4694   -0.1914   -5.8439 O.3       1 GTP         0.4672
      6 PB          0.7860    0.8213   -5.9653 P.3       1 GTP        -0.9715
      7 O1B         1.4712    0.8196   -7.2999 O.2       1 GTP         0.2707
      8 O2B         0.1511    2.2420   -5.5261 O.3       1 GTP         0.0326
      9 O3A         1.7163    0.4187   -4.7075 O.3       1 GTP         0.4672
     10 PA          2.8924    1.2553   -3.9461 P.3       1 GTP        -1.1062
     11 O1A         4.0520    1.4291   -4.9026 O.co2     1 GTP         0.3195
     12 O2A         2.2644    2.4449   -3.2532 O.co2     1 GTP         0.3195
     13 O5'         3.2903    0.1346   -2.8241 O.3       1 GTP         0.1618
     14 C5'         2.2816   -0.2918   -1.9206 C.3       1 GTP         0.1504
     15 C4'         2.7248    0.0226   -0.4980 C.3       1 GTP         0.1111
     16 O4'         2.4697    1.4219   -0.2462 O.3       1 GTP        -0.1436
     17 C3'         1.9404   -0.7419    0.5596 C.3       1 GTP         0.1111
     18 O3'         2.7418   -0.8086    1.7389 O.3       1 GTP        -0.2728
     19 C2'         0.7477    0.1630    0.7858 C.3       1 GTP         0.1111
     20 O2'         0.1373   -0.0577    2.0407 O.3       1 GTP        -0.2728
     21 C1'         1.3733    1.5427    0.6747 C.3       1 GTP         0.2693
     22 N9          0.4520    2.5240    0.1767 N.pl3     1 GTP        -0.3222
     23 C8          0.5671    3.2221   -0.9473 C.ar      1 GTP         0.1640
     24 N7         -0.4560    4.0508   -1.1290 N.pl3     1 GTP        -0.3688
     25 C5         -1.2671    3.8585   -0.0441 C.ar      1 GTP         0.0648
     26 C6         -2.5318    4.5014    0.2817 C.ar      1 GTP         0.3597
     27 O6         -3.0527    5.3493   -0.4293 O.2       1 GTP        -0.2755
     28 N1         -3.0357    4.0149    1.4868 N.pl3     1 GTP        -0.1604
     29 C2         -2.4069    3.0373    2.2768 C.ar      1 GTP         0.4468
     30 N2         -3.0679    2.6964    3.4278 N.pl3     1 GTP        -0.5618
     31 N3         -1.2653    2.4872    1.9379 N.2       1 GTP        -0.4283
     32 C4         -0.7342    2.9334    0.7643 C.ar      1 GTP         0.2226
     33 HOB2        0.7439    3.0183   -5.4356 H         1 GTP         0.2010
     34 H5'         1.3514    0.2330   -2.1577 H         1 GTP        -0.0393
     35 H5''        2.1280   -1.3678   -2.0460 H         1 GTP        -0.0393
     36 H4'         3.8044   -0.1397   -0.4040 H         1 GTP        -0.0393
     37 H3'         1.6764   -1.7639    0.2728 H         1 GTP        -0.0393
     38 HO3'        2.2232   -1.2979    2.3953 H         1 GTP         0.2010
     39 H2'        -0.0011    0.0027    0.0003 H         1 GTP        -0.0393
     40 HO2'       -0.6141    0.5574    2.1082 H         1 GTP         0.2010
     41 H1'         1.7826    1.9024    1.6451 H         1 GTP        -0.0393
     42 H8          1.3888    3.1325   -1.6361 H         1 GTP         0.0000
     43 HN1        -3.9188    4.3932    1.8170 H         1 GTP         0.0865
     44 HN21       -2.6609    2.0087    4.0186 H         1 GTP         0.2048
     45 HN22       -3.9293    3.1496    3.6283 H         1 GTP         0.2048
     46 H46        -0.5938    4.6820   -1.9060 H         1 GTP         0.2048
@<TRIPOS>BOND
     1    1    2 2
     2    1    3 1
     3    1    4 1
     4    1    5 1
     5    5    6 1
     6    6    7 2
     7    6    8 1
     8    6    9 1
     9    8   33 1
    10    9   10 1
    11   10   11 2
    12   10   12 1
    13   10   13 1
    14   13   14 1
    15   14   15 1
    16   14   34 1
    17   14   35 1
    18   15   16 1
    19   15   17 1
    20   15   36 1
    21   16   21 1
    22   17   18 1
    23   17   19 1
    24   17   37 1
    25   18   38 1
    26   19   20 1
    27   19   21 1
    28   19   39 1
    29   20   40 1
    30   21   22 1
    31   21   41 1
    32   22   23 ar
    33   22   32 ar
    34   23   24 ar
    35   23   42 1
    36   24   25 ar
    37   24   46 1
    38   25   26 ar
    39   25   32 ar
    40   26   27 2
    41   26   28 ar
    42   28   29 ar
    43   28   43 1
    44   29   30 1
    45   29   31 ar
    46   30   44 1
    47   30   45 1
    48   31   32 ar
@<TRIPOS>SUBSTRUCTURE
     1 GTP         1 GROUP 0 A     ****
@<TRIPOS>MOLECULE
[[[5-(2-amino-6-oxo-7,8-dihydro-1~{H}-purin-8-ylium-9-yl)-3,4-dihydroxy-tetrahydrofuran-2-yl]methoxy-oxido-phosphoryl]oxy-hydroxy-phosphoryl] phosphate
   46    48     1     0     0
SMALL
USER_CHARGES

@<TRIPOS>ATOM
      1 PG         -0.3556    3.4775   -6.6283 P.3       1 GTP        -1.1921
      2 O1G         0.4927    3.5649   -7.8928 O.co2     1 GTP         0.3195
      3 O2G        -0.3511    4.7465   -5.7823 O.co2     1 GTP         0.3195
      4 O3G        -1.7390    2.8713   -6.8399 O.co2     1 GTP         0.3195
      5 O3B         0.4322    2.3753   -5.6891 O.3       1 GTP         0.4672
      6 PB          0.7860    0.8213   -5.9653 P.3       1 GTP        -0.9715
      7 O1B        -0.4022   -0.0646   -6.1972 O.2       1 GTP         0.2707
      8 O2B         1.8298    0.8994   -7.1976 O.3       1 GTP         0.0326
      9 O3A         1.7163    0.4187   -4.7075 O.3       1 GTP         0.4672
     10 PA          2.8924    1.2553   -3.9461 P.3       1 GTP        -1.1062
     11 O1A         4.0520    1.4291   -4.9026 O.co2     1 GTP         0.3195
     12 O2A         2.2644    2.4449   -3.2532 O.co2     1 GTP         0.3195
     13 O5'         3.2903    0.1346   -2.8241 O.3       1 GTP         0.1618
     14 C5'         2.2816   -0.2918   -1.9206 C.3       1 GTP         0.1504
     15 C4'         2.7248    0.0226   -0.4980 C.3       1 GTP         0.1111
     16 O4'         2.4697    1.4219   -0.2462 O.3       1 GTP        -0.1436
     17 C3'         1.9404   -0.7419    0.5596 C.3       1 GTP         0.1111
     18 O3'         2.7418   -0.8086    1.7389 O.3       1 GTP        -0.2728
     19 C2'         0.7477    0.1630    0.7858 C.3       1 GTP         0.1111
     20 O2'         0.1373   -0.0577    2.0407 O.3       1 GTP        -0.2728
     21 C1'         1.3733    1.5427    0.6747 C.3       1 GTP         0.2693
     22 N9          0.4520    2.5240    0.1767 N.pl3     1 GTP        -0.3222
     23 C8          0.5671    3.2221   -0.9473 C.ar      1 GTP         0.1640
     24 N7         -0.4560    4.0508   -1.1290 N.pl3     1 GTP        -0.3688
     25 C5         -1.2671    3.8585   -0.0441 C.ar      1 GTP         0.0648
     26 C6         -2.5318    4.5014    0.2817 C.ar      1 GTP         0.3597
     27 O6         -3.0527    5.3493   -0.4293 O.2       1 GTP        -0.2755
     28 N1         -3.0357    4.0149    1.4868 N.pl3     1 GTP        -0.1604
     29 C2         -2.4069    3.0373    2.2768 C.ar      1 GTP         0.4468
     30 N2         -3.0679    2.6964    3.4278 N.pl3     1 GTP        -0.5618
     31 N3         -1.2653    2.4872    1.9379 N.2       1 GTP        -0.4283
     32 C4         -0.7342    2.9334    0.7643 C.ar      1 GTP         0.2226
     33 HOB2        1.5142    1.2293   -8.0658 H         1 GTP         0.2010
     34 H5'         1.3514    0.2330   -2.1577 H         1 GTP        -0.0393
     35 H5''        2.1280   -1.3678   -2.0460 H         1 GTP        -0.0393
     36 H4'         3.8044   -0.1397   -0.4040 H         1 GTP        -0.0393
     37 H3'         1.6764   -1.7639    0.2728 H         1 GTP        -0.0393
     38 HO3'        2.2232   -1.2979    2.3953 H         1 GTP         0.2010
     39 H2'        -0.0011    0.0027    0.0003 H         1 GTP        -0.0393
     40 HO2'       -0.1563   -0.9855    2.0596 H         1 GTP         0.2010
     41 H1'         1.7826    1.9024    1.6451 H         1 GTP        -0.0393
     42 H8          1.3888    3.1325   -1.6361 H         1 GTP         0.0000
     43 HN1        -3.9188    4.3932    1.8170 H         1 GTP         0.0865
     44 HN21       -2.6609    2.0087    4.0186 H         1 GTP         0.2048
     45 HN22       -3.9293    3.1496    3.6283 H         1 GTP         0.2048
     46 H46        -0.5938    4.6820   -1.9060 H         1 GTP         0.2048
@<TRIPOS>BOND
     1    1    2 2
     2    1    3 1
     3    1    4 1
     4    1    5 1
     5    5    6 1
     6    6    7 2
     7    6    8 1
     8    6    9 1
     9    8   33 1
    10    9   10 1
    11   10   11 2
    12   10   12 1
    13   10   13 1
    14   13   14 1
    15   14   15 1
    16   14   34 1
    17   14   35 1
    18   15   16 1
    19   15   17 1
    20   15   36 1
    21   16   21 1
    22   17   18 1
    23   17   19 1
    24   17   37 1
    25   18   38 1
    26   19   20 1
    27   19   21 1
    28   19   39 1
    29   20   40 1
    30   21   22 1
    31   21   41 1
    32   22   23 ar
    33   22   32 ar
    34   23   24 ar
    35   23   42 1
    36   24   25 ar
    37   24   46 1
    38   25   26 ar
    39   25   32 ar
    40   26   27 2
    41   26   28 ar
    42   28   29 ar
    43   28   43 1
    44   29   30 1
    45   29   31 ar
    46   30   44 1
    47   30   45 1
    48   31   32 ar
@<TRIPOS>SUBSTRUCTURE
     1 GTP         1 GROUP 0 A     ****
@<TRIPOS>MOLECULE
[[[5-(2-amino-6-oxo-7,8-dihydro-1~{H}-purin-8-ylium-9-yl)-3,4-dihydroxy-tetrahydrofuran-2-yl]methoxy-oxido-phosphoryl]oxy-hydroxy-phosphoryl] phosphate
   46    48     1     0     0
SMALL
USER_CHARGES

@<TRIPOS>ATOM
      1 PG         -1.1426   -1.4577   -5.1243 P.3       1 GTP        -1.1921
      2 O1G        -0.8811   -2.7503   -4.3583 O.co2     1 GTP         0.3195
      3 O2G        -2.2193   -1.5731   -6.1984 O.co2     1 GTP         0.3195
      4 O3G        -1.2678   -0.2190   -4.2433 O.co2     1 GTP         0.3195
      5 O3B         0.2434   -1.2088   -5.9814 O.3       1 GTP         0.4672
      6 PB          1.7665   -0.9999   -5.4786 P.3       1 GTP        -0.9715
      7 O1B         2.3324   -2.1428   -4.6884 O.2       1 GTP         0.2707
      8 O2B         2.5577   -0.6585   -6.8467 O.3       1 GTP         0.0326
      9 O3A         1.7163    0.4187   -4.7075 O.3       1 GTP         0.4672
     10 PA          2.8924    1.2553   -3.9461 P.3       1 GTP        -1.1062
     11 O1A         4.0520    1.4291   -4.9026 O.co2     1 GTP         0.3195
     12 O2A         2.2644    2.4449   -3.2532 O.co2     1 GTP         0.3195
     13 O5'         3.2903    0.1346   -2.8241 O.3       1 GTP         0.1618
     14 C5'         2.2816   -0.2918   -1.9206 C.3       1 GTP         0.1504
     15 C4'         2.7248    0.0226   -0.4980 C.3       1 GTP         0.1111
     16 O4'         2.4697    1.4219   -0.2462 O.3       1 GTP        -0.1436
     17 C3'         1.9404   -0.7419    0.5596 C.3       1 GTP         0.1111
     18 O3'         2.7418   -0.8086    1.7389 O.3       1 GTP        -0.2728
     19 C2'         0.7477    0.1630    0.7858 C.3       1 GTP         0.1111
     20 O2'         0.1373   -0.0577    2.0407 O.3       1 GTP        -0.2728
     21 C1'         1.3733    1.5427    0.6747 C.3       1 GTP         0.2693
     22 N9          0.4520    2.5240    0.1767 N.pl3     1 GTP        -0.3222
     23 C8          0.5671    3.2221   -0.9473 C.ar      1 GTP         0.1640
     24 N7         -0.4560    4.0508   -1.1290 N.pl3     1 GTP        -0.3688
     25 C5         -1.2671    3.8585   -0.0441 C.ar      1 GTP         0.0648
     26 C6         -2.5318    4.5014    0.2817 C.ar      1 GTP         0.3597
     27 O6         -3.0527    5.3493   -0.4293 O.2       1 GTP        -0.2755
     28 N1         -3.0357    4.0149    1.4868 N.pl3     1 GTP        -0.1604
     29 C2         -2.4069    3.0373    2.2768 C.ar      1 GTP         0.4468
     30 N2         -3.0679    2.6964    3.4278 N.pl3     1 GTP        -0.5618
     31 N3         -1.2653    2.4872    1.9379 N.2       1 GTP        -0.4283
     32 C4         -0.7342    2.9334    0.7643 C.ar      1 GTP         0.2226
     33 HOB2        2.6284   -1.3503   -7.5385 H         1 GTP         0.2010
     34 H5'         1.3514    0.2330   -2.1577 H         1 GTP        -0.0393
     35 H5''        2.1280   -1.3678   -2.0460 H         1 GTP        -0.0393
     36 H4'         3.8044   -0.1397   -0.4040 H         1 GTP        -0.0393
     37 H3'         1.6764   -1.7639    0.2728 H         1 GTP        -0.0393
     38 HO3'        3.5554   -1.2733    1.4914 H         1 GTP         0.2010
     39 H2'        -0.0011    0.0027    0.0003 H         1 GTP        -0.0393
     40 HO2'        0.8082    0.1199    2.7232 H         1 GTP         0.2010
     41 H1'         1.7826    1.9024    1.6451 H         1 GTP        -0.0393
     42 H8          1.3888    3.1325   -1.6361 H         1 GTP         0.0000
     43 HN1        -3.9188    4.3932    1.8170 H         1 GTP         0.0865
     44 HN21       -2.6609    2.0087    4.0186 H         1 GTP         0.2048
     45 HN22       -3.9293    3.1496    3.6283 H         1 GTP         0.2048
     46 H46        -0.5938    4.6820   -1.9060 H         1 GTP         0.2048
@<TRIPOS>BOND
     1    1    2 2
     2    1    3 1
     3    1    4 1
     4    1    5 1
     5    5    6 1
     6    6    7 2
     7    6    8 1
     8    6    9 1
     9    8   33 1
    10    9   10 1
    11   10   11 2
    12   10   12 1
    13   10   13 1
    14   13   14 1
    15   14   15 1
    16   14   34 1
    17   14   35 1
    18   15   16 1
    19   15   17 1
    20   15   36 1
    21   16   21 1
    22   17   18 1
    23   17   19 1
    24   17   37 1
    25   18   38 1
    26   19   20 1
    27   19   21 1
    28   19   39 1
    29   20   40 1
    30   21   22 1
    31   21   41 1
    32   22   23 ar
    33   22   32 ar
    34   23   24 ar
    35   23   42 1
    36   24   25 ar
    37   24   46 1
    38   25   26 ar
    39   25   32 ar
    40   26   27 2
    41   26   28 ar
    42   28   29 ar
    43   28   43 1
    44   29   30 1
    45   29   31 ar
    46   30   44 1
    47   30   45 1
    48   31   32 ar
@<TRIPOS>SUBSTRUCTURE
     1 GTP         1 GROUP 0 A     ****
@<TRIPOS>MOLECULE
[[[5-(2-amino-6-oxo-7,8-dihydro-1~{H}-purin-8-ylium-9-yl)-3,4-dihydroxy-tetrahydrofuran-2-yl]methoxy-oxido-phosphoryl]oxy-hydroxy-phosphoryl] phosphate
   46    48     1     0     0
SMALL
USER_CHARGES

@<TRIPOS>ATOM
      1 PG          1.4189    0.6186   -8.8560 P.3       1 GTP        -1.1921
      2 O1G         0.3334   -0.4342   -9.0552 O.co2     1 GTP         0.3195
      3 O2G         2.7530    0.2740   -9.5100 O.co2     1 GTP         0.3195
      4 O3G         0.9562    2.0520   -9.0957 O.co2     1 GTP         0.3195
      5 O3B         1.7455    0.5613   -7.2412 O.3       1 GTP         0.4672
      6 PB          0.7860    0.8213   -5.9653 P.3       1 GTP        -0.9715
      7 O1B         0.1763    2.1906   -5.9032 O.2       1 GTP         0.2707
      8 O2B        -0.2756   -0.3949   -6.0545 O.3       1 GTP         0.0326
      9 O3A         1.7163    0.4187   -4.7075 O.3       1 GTP         0.4672
     10 PA          2.8924    1.2553   -3.9461 P.3       1 GTP        -1.1062
     11 O1A         4.0520    1.4291   -4.9026 O.co2     1 GTP         0.3195
     12 O2A         2.2644    2.4449   -3.2532 O.co2     1 GTP         0.3195
     13 O5'         3.2903    0.1346   -2.8241 O.3       1 GTP         0.1618
     14 C5'         2.2816   -0.2918   -1.9206 C.3       1 GTP         0.1504
     15 C4'         2.7248    0.0226   -0.4980 C.3       1 GTP         0.1111
     16 O4'         2.4697    1.4219   -0.2462 O.3       1 GTP        -0.1436
     17 C3'         1.9404   -0.7419    0.5596 C.3       1 GTP         0.1111
     18 O3'         2.7418   -0.8086    1.7389 O.3       1 GTP        -0.2728
     19 C2'         0.7477    0.1630    0.7858 C.3       1 GTP         0.1111
     20 O2'         0.1373   -0.0577    2.0407 O.3       1 GTP        -0.2728
     21 C1'         1.3733    1.5427    0.6747 C.3       1 GTP         0.2693
     22 N9          0.4520    2.5240    0.1767 N.pl3     1 GTP        -0.3222
     23 C8          0.5671    3.2221   -0.9473 C.ar      1 GTP         0.1640
     24 N7         -0.4560    4.0508   -1.1290 N.pl3     1 GTP        -0.3688
     25 C5         -1.2671    3.8585   -0.0441 C.ar      1 GTP         0.0648
     26 C6         -2.5318    4.5014    0.2817 C.ar      1 GTP         0.3597
     27 O6         -3.0527    5.3493   -0.4293 O.2       1 GTP        -0.2755
     28 N1         -3.0357    4.0149    1.4868 N.pl3     1 GTP        -0.1604
     29 C2         -2.4069    3.0373    2.2768 C.ar      1 GTP         0.4468
     30 N2         -3.0679    2.6964    3.4278 N.pl3     1 GTP        -0.5618
     31 N3         -1.2653    2.4872    1.9379 N.2       1 GTP        -0.4283
     32 C4         -0.7342    2.9334    0.7643 C.ar      1 GTP         0.2226
     33 HOB2       -0.8947   -0.4287   -6.8146 H         1 GTP         0.2010
     34 H5'         1.3514    0.2330   -2.1577 H         1 GTP        -0.0393
     35 H5''        2.1280   -1.3678   -2.0460 H         1 GTP        -0.0393
     36 H4'         3.8044   -0.1397   -0.4040 H         1 GTP        -0.0393
     37 H3'         1.6764   -1.7639    0.2728 H         1 GTP        -0.0393
     38 HO3'        3.5554   -1.2733    1.4914 H         1 GTP         0.2010
     39 H2'        -0.0011    0.0027    0.0003 H         1 GTP        -0.0393
     40 HO2'        0.8082    0.1199    2.7232 H         1 GTP         0.2010
     41 H1'         1.7826    1.9024    1.6451 H         1 GTP        -0.0393
     42 H8          1.3888    3.1325   -1.6361 H         1 GTP         0.0000
     43 HN1        -3.9188    4.3932    1.8170 H         1 GTP         0.0865
     44 HN21       -2.6609    2.0087    4.0186 H         1 GTP         0.2048
     45 HN22       -3.9293    3.1496    3.6283 H         1 GTP         0.2048
     46 H46        -0.5938    4.6820   -1.9060 H         1 GTP         0.2048
@<TRIPOS>BOND
     1    1    2 2
     2    1    3 1
     3    1    4 1
     4    1    5 1
     5    5    6 1
     6    6    7 2
     7    6    8 1
     8    6    9 1
     9    8   33 1
    10    9   10 1
    11   10   11 2
    12   10   12 1
    13   10   13 1
    14   13   14 1
    15   14   15 1
    16   14   34 1
    17   14   35 1
    18   15   16 1
    19   15   17 1
    20   15   36 1
    21   16   21 1
    22   17   18 1
    23   17   19 1
    24   17   37 1
    25   18   38 1
    26   19   20 1
    27   19   21 1
    28   19   39 1
    29   20   40 1
    30   21   22 1
    31   21   41 1
    32   22   23 ar
    33   22   32 ar
    34   23   24 ar
    35   23   42 1
    36   24   25 ar
    37   24   46 1
    38   25   26 ar
    39   25   32 ar
    40   26   27 2
    41   26   28 ar
    42   28   29 ar
    43   28   43 1
    44   29   30 1
    45   29   31 ar
    46   30   44 1
    47   30   45 1
    48   31   32 ar
@<TRIPOS>SUBSTRUCTURE
     1 GTP         1 GROUP 0 A     ****
@<TRIPOS>MOLECULE
[[[5-(2-amino-6-oxo-7,8-dihydro-1~{H}-purin-8-ylium-9-yl)-3,4-dihydroxy-tetrahydrofuran-2-yl]methoxy-oxido-phosphoryl]oxy-hydroxy-phosphoryl] phosphate
   46    48     1     0     0
SMALL
USER_CHARGES

@<TRIPOS>ATOM
      1 PG         -1.6228   -4.0716   -4.2277 P.3       1 GTP        -1.1921
      2 O1G        -1.1024   -5.3450   -4.8864 O.co2     1 GTP         0.3195
      3 O2G        -0.7410   -2.8469   -4.4488 O.co2     1 GTP         0.3195
      4 O3G        -3.1116   -3.8173   -4.4397 O.co2     1 GTP         0.3195
      5 O3B        -1.4868   -4.3682   -2.6119 O.3       1 GTP         0.4672
      6 PB         -2.1572   -5.5198   -1.6949 P.3       1 GTP        -0.9715
      7 O1B        -3.6573   -5.5193   -1.6784 O.2       1 GTP         0.2707
      8 O2B        -1.4816   -6.8751   -2.2612 O.3       1 GTP         0.0326
      9 O3A        -1.4477   -5.3162   -0.2580 O.3       1 GTP         0.4672
     10 PA         -1.6398   -6.1268    1.1451 P.3       1 GTP        -1.1062
     11 O1A        -3.0371   -5.8634    1.6626 O.co2     1 GTP         0.3195
     12 O2A        -1.1273   -7.5383    0.9587 O.co2     1 GTP         0.3195
     13 O5'        -0.5687   -5.2869    2.0510 O.3       1 GTP         0.1618
     14 C5'        -0.7840   -3.8935    2.2172 C.3       1 GTP         0.1504
     15 C4'        -0.0724   -3.1466    1.1027 C.3       1 GTP         0.1111
     16 O4'        -0.8674   -3.1929   -0.0945 O.3       1 GTP        -0.1436
     17 C3'         0.1338   -1.6715    1.4027 C.3       1 GTP         0.1111
     18 O3'         1.2893   -1.4445    2.1808 O.3       1 GTP        -0.2728
     19 C2'         0.2158   -1.0724    0.0128 C.3       1 GTP         0.1111
     20 O2'         1.5141   -1.2448   -0.5513 O.3       1 GTP        -0.2728
     21 C1'        -0.7897   -1.9176   -0.7583 C.3       1 GTP         0.2693
     22 N9         -2.1040   -1.3333   -0.7704 N.pl3     1 GTP        -0.3222
     23 C8         -3.0597   -1.5109    0.1345 C.ar      1 GTP         0.1640
     24 N7         -4.1618   -0.8291   -0.1607 N.pl3     1 GTP        -0.3688
     25 C5         -3.8764   -0.1805   -1.3310 C.ar      1 GTP         0.0648
     26 C6         -4.7187    0.7111   -2.1152 C.ar      1 GTP         0.3597
     27 O6         -5.8617    1.0043   -1.7939 O.2       1 GTP        -0.2755
     28 N1         -4.0405    1.1608   -3.2468 N.pl3     1 GTP        -0.1604
     29 C2         -2.7239    0.8013   -3.5822 C.ar      1 GTP         0.4468
     30 N2         -2.2399    1.3534   -4.7394 N.pl3     1 GTP        -0.5618
     31 N3         -2.0053   -0.0071   -2.8402 N.2       1 GTP        -0.4283
     32 C4         -2.6290   -0.4727   -1.7210 C.ar      1 GTP         0.2226
     33 HOB2       -1.6661   -7.7233   -1.8044 H         1 GTP         0.2010
     34 H5'        -1.8598   -3.6968    2.1850 H         1 GTP        -0.0393
     35 H5''       -0.3933   -3.5903    3.1931 H         1 GTP        -0.0393
     36 H4'         0.8874   -3.6466    0.8805 H         1 GTP        -0.0393
     37 H3'        -0.7376   -1.2333    1.9867 H         1 GTP        -0.0393
     38 HO3'        1.3408   -0.4870    2.3219 H         1 GTP         0.2010
     39 H2'        -0.0384   -0.0310    0.0096 H         1 GTP        -0.0393
     40 HO2'        2.1463   -0.7958    0.0370 H         1 GTP         0.2010
     41 H1'        -0.4769   -2.1002   -1.8093 H         1 GTP        -0.0393
     42 H8         -2.9610   -2.1316    1.0079 H         1 GTP         0.0000
     43 HN1        -4.5320    1.7923   -3.8726 H         1 GTP         0.0865
     44 HN21       -1.3128    1.1277   -5.0171 H         1 GTP         0.2048
     45 HN22       -2.8342    1.9586   -5.2572 H         1 GTP         0.2048
     46 H46        -5.0195   -0.8034    0.3729 H         1 GTP         0.2048
@<TRIPOS>BOND
     1    1    2 2
     2    1    3 1
     3    1    4 1
     4    1    5 1
     5    5    6 1
     6    6    7 2
     7    6    8 1
     8    6    9 1
     9    8   33 1
    10    9   10 1
    11   10   11 2
    12   10   12 1
    13   10   13 1
    14   13   14 1
    15   14   15 1
    16   14   34 1
    17   14   35 1
    18   15   16 1
    19   15   17 1
    20   15   36 1
    21   16   21 1
    22   17   18 1
    23   17   19 1
    24   17   37 1
    25   18   38 1
    26   19   20 1
    27   19   21 1
    28   19   39 1
    29   20   40 1
    30   21   22 1
    31   21   41 1
    32   22   23 ar
    33   22   32 ar
    34   23   24 ar
    35   23   42 1
    36   24   25 ar
    37   24   46 1
    38   25   26 ar
    39   25   32 ar
    40   26   27 2
    41   26   28 ar
    42   28   29 ar
    43   28   43 1
    44   29   30 1
    45   29   31 ar
    46   30   44 1
    47   30   45 1
    48   31   32 ar
@<TRIPOS>SUBSTRUCTURE
     1 GTP         1 GROUP 0 A     ****
@<TRIPOS>MOLECULE
[[[5-(2-amino-6-oxo-7,8-dihydro-1~{H}-purin-8-ylium-9-yl)-3,4-dihydroxy-tetrahydrofuran-2-yl]methoxy-oxido-phosphoryl]oxy-hydroxy-phosphoryl] phosphate
   46    48     1     0     0
SMALL
USER_CHARGES

@<TRIPOS>ATOM
      1 PG          6.1516    4.7033   -2.0005 P.3       1 GTP        -1.1921
      2 O1G         6.1245    5.6051   -0.7707 O.co2     1 GTP         0.3195
      3 O2G         6.8432    5.3184   -3.2128 O.co2     1 GTP         0.3195
      4 O3G         6.5565    3.2611   -1.7139 O.co2     1 GTP         0.3195
      5 O3B         4.5717    4.5987   -2.4594 O.3       1 GTP         0.4672
      6 PB          3.2804    4.0406   -1.6611 P.3       1 GTP        -0.9715
      7 O1B         3.2334    4.4026   -0.2060 O.2       1 GTP         0.2707
      8 O2B         2.0418    4.5923   -2.5418 O.3       1 GTP         0.0326
      9 O3A         3.2960    2.4574   -1.9817 O.3       1 GTP         0.4672
     10 PA          3.2070    1.6613   -3.4034 P.3       1 GTP        -1.1062
     11 O1A         1.8330    1.8902   -3.9947 O.co2     1 GTP         0.3195
     12 O2A         4.4603    1.9557   -4.1984 O.co2     1 GTP         0.3195
     13 O5'         3.2903    0.1346   -2.8241 O.3       1 GTP         0.1618
     14 C5'         2.2816   -0.2918   -1.9206 C.3       1 GTP         0.1504
     15 C4'         2.7248    0.0226   -0.4980 C.3       1 GTP         0.1111
     16 O4'         2.4697    1.4219   -0.2462 O.3       1 GTP        -0.1436
     17 C3'         1.9404   -0.7419    0.5596 C.3       1 GTP         0.1111
     18 O3'         2.7418   -0.8086    1.7389 O.3       1 GTP        -0.2728
     19 C2'         0.7477    0.1630    0.7858 C.3       1 GTP         0.1111
     20 O2'         0.1373   -0.0577    2.0407 O.3       1 GTP        -0.2728
     21 C1'         1.3733    1.5427    0.6747 C.3       1 GTP         0.2693
     22 N9          0.4520    2.5240    0.1767 N.pl3     1 GTP        -0.3222
     23 C8         -0.2009    2.4849   -0.9792 C.ar      1 GTP         0.1640
     24 N7         -0.9840    3.5454   -1.1481 N.pl3     1 GTP        -0.3688
     25 C5         -0.8090    4.3005   -0.0206 C.ar      1 GTP         0.0648
     26 C6         -1.4206    5.5724    0.3362 C.ar      1 GTP         0.3597
     27 O6         -2.2199    6.1544   -0.3836 O.2       1 GTP        -0.2755
     28 N1         -0.9680    6.0043    1.5817 N.pl3     1 GTP        -0.1604
     29 C2         -0.0474    5.3055    2.3814 C.ar      1 GTP         0.4468
     30 N2          0.2680    5.9024    3.5740 N.pl3     1 GTP        -0.5618
     31 N3          0.4755    4.1601    2.0138 N.2       1 GTP        -0.4283
     32 C4          0.0611    3.6981    0.8001 C.ar      1 GTP         0.2226
     33 HOB2        2.0147    4.3889   -3.5011 H         1 GTP         0.2010
     34 H5'         1.3514    0.2330   -2.1577 H         1 GTP        -0.0393
     35 H5''        2.1280   -1.3678   -2.0460 H         1 GTP        -0.0393
     36 H4'         3.8044   -0.1397   -0.4040 H         1 GTP        -0.0393
     37 H3'         1.6764   -1.7639    0.2728 H         1 GTP        -0.0393
     38 HO3'        2.2232   -1.2979    2.3953 H         1 GTP         0.2010
     39 H2'        -0.0011    0.0027    0.0003 H         1 GTP        -0.0393
     40 HO2'       -0.6141    0.5574    2.1082 H         1 GTP         0.2010
     41 H1'         1.7826    1.9024    1.6451 H         1 GTP        -0.0393
     42 H8         -0.1126    1.6906   -1.6997 H         1 GTP         0.0000
     43 HN1        -1.3285    6.8855    1.9361 H         1 GTP         0.0865
     44 HN21        0.9153    5.4446    4.1732 H         1 GTP         0.2048
     45 HN22       -0.1624    6.7706    3.7948 H         1 GTP         0.2048
     46 H46        -1.5768    3.7405   -1.9429 H         1 GTP         0.2048
@<TRIPOS>BOND
     1    1    2 2
     2    1    3 1
     3    1    4 1
     4    1    5 1
     5    5    6 1
     6    6    7 2
     7    6    8 1
     8    6    9 1
     9    8   33 1
    10    9   10 1
    11   10   11 2
    12   10   12 1
    13   10   13 1
    14   13   14 1
    15   14   15 1
    16   14   34 1
    17   14   35 1
    18   15   16 1
    19   15   17 1
    20   15   36 1
    21   16   21 1
    22   17   18 1
    23   17   19 1
    24   17   37 1
    25   18   38 1
    26   19   20 1
    27   19   21 1
    28   19   39 1
    29   20   40 1
    30   21   22 1
    31   21   41 1
    32   22   23 ar
    33   22   32 ar
    34   23   24 ar
    35   23   42 1
    36   24   25 ar
    37   24   46 1
    38   25   26 ar
    39   25   32 ar
    40   26   27 2
    41   26   28 ar
    42   28   29 ar
    43   28   43 1
    44   29   30 1
    45   29   31 ar
    46   30   44 1
    47   30   45 1
    48   31   32 ar
@<TRIPOS>SUBSTRUCTURE
     1 GTP         1 GROUP 0 A     ****
@<TRIPOS>MOLECULE
[[[5-(2-amino-6-oxo-7,8-dihydro-1~{H}-purin-8-ylium-9-yl)-3,4-dihydroxy-tetrahydrofuran-2-yl]methoxy-oxido-phosphoryl]oxy-hydroxy-phosphoryl] phosphate
   46    48     1     0     0
SMALL
USER_CHARGES

@<TRIPOS>ATOM
      1 PG          0.9512   -3.9709   -5.3544 P.3       1 GTP        -1.1921
      2 O1G         1.7659   -4.4975   -6.5314 O.co2     1 GTP         0.3195
      3 O2G        -0.3787   -4.6872   -5.1430 O.co2     1 GTP         0.3195
      4 O3G         1.7571   -3.7578   -4.0771 O.co2     1 GTP         0.3195
      5 O3B         0.5109   -2.4509   -5.8159 O.3       1 GTP         0.4672
      6 PB          1.4153   -1.1663   -6.2008 P.3       1 GTP        -0.9715
      7 O1B         2.3367   -1.3701   -7.3670 O.2       1 GTP         0.2707
      8 O2B         0.3185    0.0058   -6.3946 O.3       1 GTP         0.0326
      9 O3A         2.1354   -0.7826   -4.8066 O.3       1 GTP         0.4672
     10 PA          2.8307    0.6109   -4.3192 P.3       1 GTP        -1.1062
     11 O1A         4.0646    0.8503   -5.1617 O.co2     1 GTP         0.3195
     12 O2A         1.7538    1.6661   -4.1908 O.co2     1 GTP         0.3195
     13 O5'         3.2903    0.1346   -2.8241 O.3       1 GTP         0.1618
     14 C5'         2.2816   -0.2918   -1.9206 C.3       1 GTP         0.1504
     15 C4'         2.7248    0.0226   -0.4980 C.3       1 GTP         0.1111
     16 O4'         2.4697    1.4219   -0.2462 O.3       1 GTP        -0.1436
     17 C3'         1.9404   -0.7419    0.5596 C.3       1 GTP         0.1111
     18 O3'         2.7418   -0.8086    1.7389 O.3       1 GTP        -0.2728
     19 C2'         0.7477    0.1630    0.7858 C.3       1 GTP         0.1111
     20 O2'         0.1373   -0.0577    2.0407 O.3       1 GTP        -0.2728
     21 C1'         1.3733    1.5427    0.6747 C.3       1 GTP         0.2693
     22 N9          0.4520    2.5240    0.1767 N.pl3     1 GTP        -0.3222
     23 C8         -0.6818    2.9109    0.7501 C.ar      1 GTP         0.1640
     24 N7         -1.3103    3.8415    0.0391 N.pl3     1 GTP        -0.3688
     25 C5         -0.5155    4.0512   -1.0547 C.ar      1 GTP         0.0648
     26 C6         -0.7125    4.9651   -2.1705 C.ar      1 GTP         0.3597
     27 O6         -1.6819    5.7047   -2.2651 O.2       1 GTP        -0.2755
     28 N1          0.3401    4.8672   -3.0790 N.pl3     1 GTP        -0.1604
     29 C2          1.4396    4.0039   -2.9348 C.ar      1 GTP         0.4468
     30 N2          2.3679    4.0602   -3.9414 N.pl3     1 GTP        -0.5618
     31 N3          1.5708    3.1983   -1.9080 N.2       1 GTP        -0.4283
     32 C4          0.5630    3.2599   -0.9921 C.ar      1 GTP         0.2226
     33 HOB2        0.6281    0.9229   -6.5538 H         1 GTP         0.2010
     34 H5'         1.3514    0.2330   -2.1577 H         1 GTP        -0.0393
     35 H5''        2.1280   -1.3678   -2.0460 H         1 GTP        -0.0393
     36 H4'         3.8044   -0.1397   -0.4040 H         1 GTP        -0.0393
     37 H3'         1.6764   -1.7639    0.2728 H         1 GTP        -0.0393
     38 HO3'        2.2232   -1.2979    2.3953 H         1 GTP         0.2010
     39 H2'        -0.0011    0.0027    0.0003 H         1 GTP        -0.0393
     40 HO2'       -0.1563   -0.9855    2.0596 H         1 GTP         0.2010
     41 H1'         1.7826    1.9024    1.6451 H         1 GTP        -0.0393
     42 H8         -1.0545    2.5222    1.6816 H         1 GTP         0.0000
     43 HN1         0.3104    5.4612   -3.9026 H         1 GTP         0.0865
     44 HN21        3.1632    3.4672   -3.8824 H         1 GTP         0.2048
     45 HN22        2.2108    4.6918   -4.6924 H         1 GTP         0.2048
     46 H46        -2.1863    4.2902    0.2681 H         1 GTP         0.2048
@<TRIPOS>BOND
     1    1    2 2
     2    1    3 1
     3    1    4 1
     4    1    5 1
     5    5    6 1
     6    6    7 2
     7    6    8 1
     8    6    9 1
     9    8   33 1
    10    9   10 1
    11   10   11 2
    12   10   12 1
    13   10   13 1
    14   13   14 1
    15   14   15 1
    16   14   34 1
    17   14   35 1
    18   15   16 1
    19   15   17 1
    20   15   36 1
    21   16   21 1
    22   17   18 1
    23   17   19 1
    24   17   37 1
    25   18   38 1
    26   19   20 1
    27   19   21 1
    28   19   39 1
    29   20   40 1
    30   21   22 1
    31   21   41 1
    32   22   23 ar
    33   22   32 ar
    34   23   24 ar
    35   23   42 1
    36   24   25 ar
    37   24   46 1
    38   25   26 ar
    39   25   32 ar
    40   26   27 2
    41   26   28 ar
    42   28   29 ar
    43   28   43 1
    44   29   30 1
    45   29   31 ar
    46   30   44 1
    47   30   45 1
    48   31   32 ar
@<TRIPOS>SUBSTRUCTURE
     1 GTP         1 GROUP 0 A     ****
@<TRIPOS>MOLECULE
[[[5-(2-amino-6-oxo-7,8-dihydro-1~{H}-purin-8-ylium-9-yl)-3,4-dihydroxy-tetrahydrofuran-2-yl]methoxy-oxido-phosphoryl]oxy-hydroxy-phosphoryl] phosphate
   46    48     1     0     0
SMALL
USER_CHARGES

@<TRIPOS>ATOM
      1 PG         -2.9574   -8.0583   -3.0039 P.3       1 GTP        -1.1921
      2 O1G        -4.4324   -7.6816   -2.9111 O.co2     1 GTP         0.3195
      3 O2G        -2.6472   -9.4863   -2.5669 O.co2     1 GTP         0.3195
      4 O3G        -2.2829   -7.6421   -4.3069 O.co2     1 GTP         0.3195
      5 O3B        -2.2299   -7.1278   -1.8540 O.3       1 GTP         0.4672
      6 PB         -2.1572   -5.5198   -1.6949 P.3       1 GTP        -0.9715
      7 O1B        -1.5088   -4.8011   -2.8410 O.2       1 GTP         0.2707
      8 O2B        -3.6969   -5.1118   -1.4172 O.3       1 GTP         0.0326
      9 O3A        -1.4477   -5.3162   -0.2580 O.3       1 GTP         0.4672
     10 PA         -1.6398   -6.1268    1.1451 P.3       1 GTP        -1.1062
     11 O1A        -3.0371   -5.8634    1.6626 O.co2     1 GTP         0.3195
     12 O2A        -1.1273   -7.5383    0.9587 O.co2     1 GTP         0.3195
     13 O5'        -0.5687   -5.2869    2.0510 O.3       1 GTP         0.1618
     14 C5'        -0.7840   -3.8935    2.2172 C.3       1 GTP         0.1504
     15 C4'        -0.0724   -3.1466    1.1027 C.3       1 GTP         0.1111
     16 O4'        -0.8674   -3.1929   -0.0945 O.3       1 GTP        -0.1436
     17 C3'         0.1338   -1.6715    1.4027 C.3       1 GTP         0.1111
     18 O3'         1.2893   -1.4445    2.1808 O.3       1 GTP        -0.2728
     19 C2'         0.2158   -1.0724    0.0128 C.3       1 GTP         0.1111
     20 O2'         1.5141   -1.2448   -0.5513 O.3       1 GTP        -0.2728
     21 C1'        -0.7897   -1.9176   -0.7583 C.3       1 GTP         0.2693
     22 N9         -2.1040   -1.3333   -0.7704 N.pl3     1 GTP        -0.3222
     23 C8         -3.0597   -1.5109    0.1345 C.ar      1 GTP         0.1640
     24 N7         -4.1618   -0.8291   -0.1607 N.pl3     1 GTP        -0.3688
     25 C5         -3.8764   -0.1805   -1.3310 C.ar      1 GTP         0.0648
     26 C6         -4.7187    0.7111   -2.1152 C.ar      1 GTP         0.3597
     27 O6         -5.8617    1.0043   -1.7939 O.2       1 GTP        -0.2755
     28 N1         -4.0405    1.1608   -3.2468 N.pl3     1 GTP        -0.1604
     29 C2         -2.7239    0.8013   -3.5822 C.ar      1 GTP         0.4468
     30 N2         -2.2399    1.3534   -4.7394 N.pl3     1 GTP        -0.5618
     31 N3         -2.0053   -0.0071   -2.8402 N.2       1 GTP        -0.4283
     32 C4         -2.6290   -0.4727   -1.7210 C.ar      1 GTP         0.2226
     33 HOB2       -4.3595   -5.2508   -2.1270 H         1 GTP         0.2010
     34 H5'        -1.8598   -3.6968    2.1850 H         1 GTP        -0.0393
     35 H5''       -0.3933   -3.5903    3.1931 H         1 GTP        -0.0393
     36 H4'         0.8874   -3.6466    0.8805 H         1 GTP        -0.0393
     37 H3'        -0.7376   -1.2333    1.9867 H         1 GTP        -0.0393
     38 HO3'        1.3408   -0.4870    2.3219 H         1 GTP         0.2010
     39 H2'        -0.0384   -0.0310    0.0096 H         1 GTP        -0.0393
     40 HO2'        2.1463   -0.7958    0.0370 H         1 GTP         0.2010
     41 H1'        -0.4769   -2.1002   -1.8093 H         1 GTP        -0.0393
     42 H8         -2.9610   -2.1316    1.0079 H         1 GTP         0.0000
     43 HN1        -4.5320    1.7923   -3.8726 H         1 GTP         0.0865
     44 HN21       -1.3128    1.1277   -5.0171 H         1 GTP         0.2048
     45 HN22       -2.8342    1.9586   -5.2572 H         1 GTP         0.2048
     46 H46        -5.0195   -0.8034    0.3729 H         1 GTP         0.2048
@<TRIPOS>BOND
     1    1    2 2
     2    1    3 1
     3    1    4 1
     4    1    5 1
     5    5    6 1
     6    6    7 2
     7    6    8 1
     8    6    9 1
     9    8   33 1
    10    9   10 1
    11   10   11 2
    12   10   12 1
    13   10   13 1
    14   13   14 1
    15   14   15 1
    16   14   34 1
    17   14   35 1
    18   15   16 1
    19   15   17 1
    20   15   36 1
    21   16   21 1
    22   17   18 1
    23   17   19 1
    24   17   37 1
    25   18   38 1
    26   19   20 1
    27   19   21 1
    28   19   39 1
    29   20   40 1
    30   21   22 1
    31   21   41 1
    32   22   23 ar
    33   22   32 ar
    34   23   24 ar
    35   23   42 1
    36   24   25 ar
    37   24   46 1
    38   25   26 ar
    39   25   32 ar
    40   26   27 2
    41   26   28 ar
    42   28   29 ar
    43   28   43 1
    44   29   30 1
    45   29   31 ar
    46   30   44 1
    47   30   45 1
    48   31   32 ar
@<TRIPOS>SUBSTRUCTURE
     1 GTP         1 GROUP 0 A     ****
@<TRIPOS>MOLECULE
[[[5-(2-amino-6-oxo-7,8-dihydro-1~{H}-purin-8-ylium-9-yl)-3,4-dihydroxy-tetrahydrofuran-2-yl]methoxy-oxido-phosphoryl]oxy-hydroxy-phosphoryl] phosphate
   46    48     1     0     0
SMALL
USER_CHARGES

@<TRIPOS>ATOM
      1 PG          0.5230   -4.0498    2.1558 P.3       1 GTP        -1.1921
      2 O1G         0.4956   -5.5684    2.0166 O.co2     1 GTP         0.3195
      3 O2G        -0.0308   -3.5322    3.4793 O.co2     1 GTP         0.3195
      4 O3G         1.8375   -3.4030    1.7318 O.co2     1 GTP         0.3195
      5 O3B        -0.5687   -3.5222    1.0389 O.3       1 GTP         0.4672
      6 PB         -0.6043   -3.7125   -0.5670 P.3       1 GTP        -0.9715
      7 O1B        -0.6545   -5.1378   -1.0324 O.2       1 GTP         0.2707
      8 O2B        -1.8655   -2.8044   -1.0130 O.3       1 GTP         0.0326
      9 O3A         0.6716   -2.8617   -1.0744 O.3       1 GTP         0.4672
     10 PA          1.2481   -2.6084   -2.5799 P.3       1 GTP        -1.1062
     11 O1A         1.7570   -3.9250   -3.1251 O.co2     1 GTP         0.3195
     12 O2A         0.2406   -1.7805   -3.3473 O.co2     1 GTP         0.3195
     13 O5'         2.5245   -1.6648   -2.1878 O.3       1 GTP         0.1618
     14 C5'         2.2816   -0.2918   -1.9206 C.3       1 GTP         0.1504
     15 C4'         2.7248    0.0226   -0.4980 C.3       1 GTP         0.1111
     16 O4'         2.4697    1.4219   -0.2462 O.3       1 GTP        -0.1436
     17 C3'         1.9404   -0.7419    0.5596 C.3       1 GTP         0.1111
     18 O3'         2.7418   -0.8086    1.7389 O.3       1 GTP        -0.2728
     19 C2'         0.7477    0.1630    0.7858 C.3       1 GTP         0.1111
     20 O2'         0.1373   -0.0577    2.0407 O.3       1 GTP        -0.2728
     21 C1'         1.3733    1.5427    0.6747 C.3       1 GTP         0.2693
     22 N9          0.4520    2.5240    0.1767 N.pl3     1 GTP        -0.3222
     23 C8          0.5671    3.2221   -0.9473 C.ar      1 GTP         0.1640
     24 N7         -0.4560    4.0508   -1.1290 N.pl3     1 GTP        -0.3688
     25 C5         -1.2671    3.8585   -0.0441 C.ar      1 GTP         0.0648
     26 C6         -2.5318    4.5014    0.2817 C.ar      1 GTP         0.3597
     27 O6         -3.0527    5.3493   -0.4293 O.2       1 GTP        -0.2755
     28 N1         -3.0357    4.0149    1.4868 N.pl3     1 GTP        -0.1604
     29 C2         -2.4069    3.0373    2.2768 C.ar      1 GTP         0.4468
     30 N2         -3.0679    2.6964    3.4278 N.pl3     1 GTP        -0.5618
     31 N3         -1.2653    2.4872    1.9379 N.2       1 GTP        -0.4283
     32 C4         -0.7342    2.9334    0.7643 C.ar      1 GTP         0.2226
     33 HOB2       -2.0489   -2.6850   -1.9692 H         1 GTP         0.2010
     34 H5'         2.8432    0.3119   -2.6398 H         1 GTP        -0.0393
     35 H5''        1.2128   -0.0927   -2.0428 H         1 GTP        -0.0393
     36 H4'         3.8044   -0.1397   -0.4040 H         1 GTP        -0.0393
     37 H3'         1.6764   -1.7639    0.2728 H         1 GTP        -0.0393
     38 HO3'        2.2232   -1.2979    2.3953 H         1 GTP         0.2010
     39 H2'        -0.0011    0.0027    0.0003 H         1 GTP        -0.0393
     40 HO2'       -0.1563   -0.9855    2.0596 H         1 GTP         0.2010
     41 H1'         1.7826    1.9024    1.6451 H         1 GTP        -0.0393
     42 H8          1.3888    3.1325   -1.6361 H         1 GTP         0.0000
     43 HN1        -3.9188    4.3932    1.8170 H         1 GTP         0.0865
     44 HN21       -2.6609    2.0087    4.0186 H         1 GTP         0.2048
     45 HN22       -3.9293    3.1496    3.6283 H         1 GTP         0.2048
     46 H46        -0.5938    4.6820   -1.9060 H         1 GTP         0.2048
@<TRIPOS>BOND
     1    1    2 2
     2    1    3 1
     3    1    4 1
     4    1    5 1
     5    5    6 1
     6    6    7 2
     7    6    8 1
     8    6    9 1
     9    8   33 1
    10    9   10 1
    11   10   11 2
    12   10   12 1
    13   10   13 1
    14   13   14 1
    15   14   15 1
    16   14   34 1
    17   14   35 1
    18   15   16 1
    19   15   17 1
    20   15   36 1
    21   16   21 1
    22   17   18 1
    23   17   19 1
    24   17   37 1
    25   18   38 1
    26   19   20 1
    27   19   21 1
    28   19   39 1
    29   20   40 1
    30   21   22 1
    31   21   41 1
    32   22   23 ar
    33   22   32 ar
    34   23   24 ar
    35   23   42 1
    36   24   25 ar
    37   24   46 1
    38   25   26 ar
    39   25   32 ar
    40   26   27 2
    41   26   28 ar
    42   28   29 ar
    43   28   43 1
    44   29   30 1
    45   29   31 ar
    46   30   44 1
    47   30   45 1
    48   31   32 ar
@<TRIPOS>SUBSTRUCTURE
     1 GTP         1 GROUP 0 A     ****
@<TRIPOS>MOLECULE
[[[5-(2-amino-6-oxo-7,8-dihydro-1~{H}-purin-8-ylium-9-yl)-3,4-dihydroxy-tetrahydrofuran-2-yl]methoxy-oxido-phosphoryl]oxy-hydroxy-phosphoryl] phosphate
   46    48     1     0     0
SMALL
USER_CHARGES

@<TRIPOS>ATOM
      1 PG         -0.2801    0.5517   -7.9249 P.3       1 GTP        -1.1921
      2 O1G         0.7531    0.5058   -9.0459 O.co2     1 GTP         0.3195
      3 O2G        -0.8217    1.9465   -7.6292 O.co2     1 GTP         0.3195
      4 O3G        -1.3516   -0.5301   -8.0126 O.co2     1 GTP         0.3195
      5 O3B         0.5767    0.1666   -6.5702 O.3       1 GTP         0.4672
      6 PB          1.4153   -1.1663   -6.2008 P.3       1 GTP        -0.9715
      7 O1B         0.6114   -2.4328   -6.1833 O.2       1 GTP         0.2707
      8 O2B         2.6269   -1.1420   -7.2711 O.3       1 GTP         0.0326
      9 O3A         2.1354   -0.7826   -4.8066 O.3       1 GTP         0.4672
     10 PA          2.8307    0.6109   -4.3192 P.3       1 GTP        -1.1062
     11 O1A         4.0646    0.8503   -5.1617 O.co2     1 GTP         0.3195
     12 O2A         1.7538    1.6661   -4.1908 O.co2     1 GTP         0.3195
     13 O5'         3.2903    0.1346   -2.8241 O.3       1 GTP         0.1618
     14 C5'         2.2816   -0.2918   -1.9206 C.3       1 GTP         0.1504
     15 C4'         2.7248    0.0226   -0.4980 C.3       1 GTP         0.1111
     16 O4'         2.4697    1.4219   -0.2462 O.3       1 GTP        -0.1436
     17 C3'         1.9404   -0.7419    0.5596 C.3       1 GTP         0.1111
     18 O3'         2.7418   -0.8086    1.7389 O.3       1 GTP        -0.2728
     19 C2'         0.7477    0.1630    0.7858 C.3       1 GTP         0.1111
     20 O2'         0.1373   -0.0577    2.0407 O.3       1 GTP        -0.2728
     21 C1'         1.3733    1.5427    0.6747 C.3       1 GTP         0.2693
     22 N9          0.4520    2.5240    0.1767 N.pl3     1 GTP        -0.3222
     23 C8         -0.6818    2.9109    0.7501 C.ar      1 GTP         0.1640
     24 N7         -1.3103    3.8415    0.0391 N.pl3     1 GTP        -0.3688
     25 C5         -0.5155    4.0512   -1.0547 C.ar      1 GTP         0.0648
     26 C6         -0.7125    4.9651   -2.1705 C.ar      1 GTP         0.3597
     27 O6         -1.6819    5.7047   -2.2651 O.2       1 GTP        -0.2755
     28 N1          0.3401    4.8672   -3.0790 N.pl3     1 GTP        -0.1604
     29 C2          1.4396    4.0039   -2.9348 C.ar      1 GTP         0.4468
     30 N2          2.3679    4.0602   -3.9414 N.pl3     1 GTP        -0.5618
     31 N3          1.5708    3.1983   -1.9080 N.2       1 GTP        -0.4283
     32 C4          0.5630    3.2599   -0.9921 C.ar      1 GTP         0.2226
     33 HOB2        2.4197   -1.2479   -8.2240 H         1 GTP         0.2010
     34 H5'         1.3514    0.2330   -2.1577 H         1 GTP        -0.0393
     35 H5''        2.1280   -1.3678   -2.0460 H         1 GTP        -0.0393
     36 H4'         3.8044   -0.1397   -0.4040 H         1 GTP        -0.0393
     37 H3'         1.6764   -1.7639    0.2728 H         1 GTP        -0.0393
     38 HO3'        2.2232   -1.2979    2.3953 H         1 GTP         0.2010
     39 H2'        -0.0011    0.0027    0.0003 H         1 GTP        -0.0393
     40 HO2'       -0.1563   -0.9855    2.0596 H         1 GTP         0.2010
     41 H1'         1.7826    1.9024    1.6451 H         1 GTP        -0.0393
     42 H8         -1.0545    2.5222    1.6816 H         1 GTP         0.0000
     43 HN1         0.3104    5.4612   -3.9026 H         1 GTP         0.0865
     44 HN21        3.1632    3.4672   -3.8824 H         1 GTP         0.2048
     45 HN22        2.2108    4.6918   -4.6924 H         1 GTP         0.2048
     46 H46        -2.1863    4.2902    0.2681 H         1 GTP         0.2048
@<TRIPOS>BOND
     1    1    2 2
     2    1    3 1
     3    1    4 1
     4    1    5 1
     5    5    6 1
     6    6    7 2
     7    6    8 1
     8    6    9 1
     9    8   33 1
    10    9   10 1
    11   10   11 2
    12   10   12 1
    13   10   13 1
    14   13   14 1
    15   14   15 1
    16   14   34 1
    17   14   35 1
    18   15   16 1
    19   15   17 1
    20   15   36 1
    21   16   21 1
    22   17   18 1
    23   17   19 1
    24   17   37 1
    25   18   38 1
    26   19   20 1
    27   19   21 1
    28   19   39 1
    29   20   40 1
    30   21   22 1
    31   21   41 1
    32   22   23 ar
    33   22   32 ar
    34   23   24 ar
    35   23   42 1
    36   24   25 ar
    37   24   46 1
    38   25   26 ar
    39   25   32 ar
    40   26   27 2
    41   26   28 ar
    42   28   29 ar
    43   28   43 1
    44   29   30 1
    45   29   31 ar
    46   30   44 1
    47   30   45 1
    48   31   32 ar
@<TRIPOS>SUBSTRUCTURE
     1 GTP         1 GROUP 0 A     ****
@<TRIPOS>MOLECULE
[[[5-(2-amino-6-oxo-7,8-dihydro-1~{H}-purin-8-ylium-9-yl)-3,4-dihydroxy-tetrahydrofuran-2-yl]methoxy-oxido-phosphoryl]oxy-hydroxy-phosphoryl] phosphate
   46    48     1     0     0
SMALL
USER_CHARGES

@<TRIPOS>ATOM
      1 PG          3.2066   -4.0736   -1.1178 P.3       1 GTP        -1.1921
      2 O1G         2.2390   -3.1292   -1.8237 O.co2     1 GTP         0.3195
      3 O2G         4.5244   -4.2862   -1.8557 O.co2     1 GTP         0.3195
      4 O3G         3.3613   -3.8133    0.3770 O.co2     1 GTP         0.3195
      5 O3B         2.4673   -5.5447   -1.2003 O.3       1 GTP         0.4672
      6 PB          1.0376   -6.0358   -0.6250 P.3       1 GTP        -0.9715
      7 O1B        -0.1482   -5.2894   -1.1610 O.2       1 GTP         0.2707
      8 O2B         1.0444   -7.6218   -0.9393 O.3       1 GTP         0.0326
      9 O3A         1.2338   -5.9677    0.9770 O.3       1 GTP         0.4672
     10 PA          0.2005   -6.3223    2.1891 P.3       1 GTP        -1.1062
     11 O1A        -0.3307   -7.7223    1.9709 O.co2     1 GTP         0.3195
     12 O2A         0.8429   -5.9244    3.5001 O.co2     1 GTP         0.3195
     13 O5'        -0.9724   -5.2440    1.8220 O.3       1 GTP         0.1618
     14 C5'        -0.7840   -3.8935    2.2172 C.3       1 GTP         0.1504
     15 C4'        -0.0724   -3.1466    1.1027 C.3       1 GTP         0.1111
     16 O4'        -0.8674   -3.1929   -0.0945 O.3       1 GTP        -0.1436
     17 C3'         0.1338   -1.6715    1.4027 C.3       1 GTP         0.1111
     18 O3'         1.2893   -1.4445    2.1808 O.3       1 GTP        -0.2728
     19 C2'         0.2158   -1.0724    0.0128 C.3       1 GTP         0.1111
     20 O2'         1.5141   -1.2448   -0.5513 O.3       1 GTP        -0.2728
     21 C1'        -0.7897   -1.9176   -0.7583 C.3       1 GTP         0.2693
     22 N9         -2.1040   -1.3333   -0.7704 N.pl3     1 GTP        -0.3222
     23 C8         -3.0597   -1.5109    0.1345 C.ar      1 GTP         0.1640
     24 N7         -4.1618   -0.8291   -0.1607 N.pl3     1 GTP        -0.3688
     25 C5         -3.8764   -0.1805   -1.3310 C.ar      1 GTP         0.0648
     26 C6         -4.7187    0.7111   -2.1152 C.ar      1 GTP         0.3597
     27 O6         -5.8617    1.0043   -1.7939 O.2       1 GTP        -0.2755
     28 N1         -4.0405    1.1608   -3.2468 N.pl3     1 GTP        -0.1604
     29 C2         -2.7239    0.8013   -3.5822 C.ar      1 GTP         0.4468
     30 N2         -2.2399    1.3534   -4.7394 N.pl3     1 GTP        -0.5618
     31 N3         -2.0053   -0.0071   -2.8402 N.2       1 GTP        -0.4283
     32 C4         -2.6290   -0.4727   -1.7210 C.ar      1 GTP         0.2226
     33 HOB2        0.3060   -8.1743   -0.6052 H         1 GTP         0.2010
     34 H5'        -1.7618   -3.4448    2.4164 H         1 GTP        -0.0393
     35 H5''       -0.1874   -3.8744    3.1341 H         1 GTP        -0.0393
     36 H4'         0.8874   -3.6466    0.8805 H         1 GTP        -0.0393
     37 H3'        -0.7376   -1.2333    1.9867 H         1 GTP        -0.0393
     38 HO3'        1.3408   -0.4870    2.3219 H         1 GTP         0.2010
     39 H2'        -0.0384   -0.0310    0.0096 H         1 GTP        -0.0393
     40 HO2'        2.1463   -0.7958    0.0370 H         1 GTP         0.2010
     41 H1'        -0.4769   -2.1002   -1.8093 H         1 GTP        -0.0393
     42 H8         -2.9610   -2.1316    1.0079 H         1 GTP         0.0000
     43 HN1        -4.5320    1.7923   -3.8726 H         1 GTP         0.0865
     44 HN21       -1.3128    1.1277   -5.0171 H         1 GTP         0.2048
     45 HN22       -2.8342    1.9586   -5.2572 H         1 GTP         0.2048
     46 H46        -5.0195   -0.8034    0.3729 H         1 GTP         0.2048
@<TRIPOS>BOND
     1    1    2 2
     2    1    3 1
     3    1    4 1
     4    1    5 1
     5    5    6 1
     6    6    7 2
     7    6    8 1
     8    6    9 1
     9    8   33 1
    10    9   10 1
    11   10   11 2
    12   10   12 1
    13   10   13 1
    14   13   14 1
    15   14   15 1
    16   14   34 1
    17   14   35 1
    18   15   16 1
    19   15   17 1
    20   15   36 1
    21   16   21 1
    22   17   18 1
    23   17   19 1
    24   17   37 1
    25   18   38 1
    26   19   20 1
    27   19   21 1
    28   19   39 1
    29   20   40 1
    30   21   22 1
    31   21   41 1
    32   22   23 ar
    33   22   32 ar
    34   23   24 ar
    35   23   42 1
    36   24   25 ar
    37   24   46 1
    38   25   26 ar
    39   25   32 ar
    40   26   27 2
    41   26   28 ar
    42   28   29 ar
    43   28   43 1
    44   29   30 1
    45   29   31 ar
    46   30   44 1
    47   30   45 1
    48   31   32 ar
@<TRIPOS>SUBSTRUCTURE
     1 GTP         1 GROUP 0 A     ****
@<TRIPOS>MOLECULE
[[[5-(2-amino-6-oxo-7,8-dihydro-1~{H}-purin-8-ylium-9-yl)-3,4-dihydroxy-tetrahydrofuran-2-yl]methoxy-oxido-phosphoryl]oxy-hydroxy-phosphoryl] phosphate
   46    48     1     0     0
SMALL
USER_CHARGES

@<TRIPOS>ATOM
      1 PG          0.2202    5.4442   -4.2150 P.3       1 GTP        -1.1921
      2 O1G         0.1536    6.2555   -2.9251 O.co2     1 GTP         0.3195
      3 O2G        -1.0982    4.7871   -4.6102 O.co2     1 GTP         0.3195
      4 O3G         0.9384    6.1462   -5.3628 O.co2     1 GTP         0.3195
      5 O3B         1.1983    4.1711   -3.8411 O.3       1 GTP         0.4672
      6 PB          2.7370    4.1388   -3.3433 P.3       1 GTP        -0.9715
      7 O1B         3.7206    4.7547   -4.2939 O.2       1 GTP         0.2707
      8 O2B         2.6633    4.8402   -1.8883 O.3       1 GTP         0.0326
      9 O3A         2.9877    2.5806   -2.9988 O.3       1 GTP         0.4672
     10 PA          2.8924    1.2553   -3.9461 P.3       1 GTP        -1.1062
     11 O1A         1.4473    1.0583   -4.3493 O.co2     1 GTP         0.3195
     12 O2A         3.9918    1.3260   -4.9834 O.co2     1 GTP         0.3195
     13 O5'         3.2903    0.1346   -2.8241 O.3       1 GTP         0.1618
     14 C5'         2.2816   -0.2918   -1.9206 C.3       1 GTP         0.1504
     15 C4'         2.7248    0.0226   -0.4980 C.3       1 GTP         0.1111
     16 O4'         2.4697    1.4219   -0.2462 O.3       1 GTP        -0.1436
     17 C3'         1.9404   -0.7419    0.5596 C.3       1 GTP         0.1111
     18 O3'         2.7418   -0.8086    1.7389 O.3       1 GTP        -0.2728
     19 C2'         0.7477    0.1630    0.7858 C.3       1 GTP         0.1111
     20 O2'         0.1373   -0.0577    2.0407 O.3       1 GTP        -0.2728
     21 C1'         1.3733    1.5427    0.6747 C.3       1 GTP         0.2693
     22 N9          0.4520    2.5240    0.1767 N.pl3     1 GTP        -0.3222
     23 C8          0.5671    3.2221   -0.9473 C.ar      1 GTP         0.1640
     24 N7         -0.4560    4.0508   -1.1290 N.pl3     1 GTP        -0.3688
     25 C5         -1.2671    3.8585   -0.0441 C.ar      1 GTP         0.0648
     26 C6         -2.5318    4.5014    0.2817 C.ar      1 GTP         0.3597
     27 O6         -3.0527    5.3493   -0.4293 O.2       1 GTP        -0.2755
     28 N1         -3.0357    4.0149    1.4868 N.pl3     1 GTP        -0.1604
     29 C2         -2.4069    3.0373    2.2768 C.ar      1 GTP         0.4468
     30 N2         -3.0679    2.6964    3.4278 N.pl3     1 GTP        -0.5618
     31 N3         -1.2653    2.4872    1.9379 N.2       1 GTP        -0.4283
     32 C4         -0.7342    2.9334    0.7643 C.ar      1 GTP         0.2226
     33 HOB2        2.4146    5.7873   -1.8309 H         1 GTP         0.2010
     34 H5'         1.3514    0.2330   -2.1577 H         1 GTP        -0.0393
     35 H5''        2.1280   -1.3678   -2.0460 H         1 GTP        -0.0393
     36 H4'         3.8044   -0.1397   -0.4040 H         1 GTP        -0.0393
     37 H3'         1.6764   -1.7639    0.2728 H         1 GTP        -0.0393
     38 HO3'        3.5554   -1.2733    1.4914 H         1 GTP         0.2010
     39 H2'        -0.0011    0.0027    0.0003 H         1 GTP        -0.0393
     40 HO2'       -0.1563   -0.9855    2.0596 H         1 GTP         0.2010
     41 H1'         1.7826    1.9024    1.6451 H         1 GTP        -0.0393
     42 H8          1.3888    3.1325   -1.6361 H         1 GTP         0.0000
     43 HN1        -3.9188    4.3932    1.8170 H         1 GTP         0.0865
     44 HN21       -2.6609    2.0087    4.0186 H         1 GTP         0.2048
     45 HN22       -3.9293    3.1496    3.6283 H         1 GTP         0.2048
     46 H46        -0.5938    4.6820   -1.9060 H         1 GTP         0.2048
@<TRIPOS>BOND
     1    1    2 2
     2    1    3 1
     3    1    4 1
     4    1    5 1
     5    5    6 1
     6    6    7 2
     7    6    8 1
     8    6    9 1
     9    8   33 1
    10    9   10 1
    11   10   11 2
    12   10   12 1
    13   10   13 1
    14   13   14 1
    15   14   15 1
    16   14   34 1
    17   14   35 1
    18   15   16 1
    19   15   17 1
    20   15   36 1
    21   16   21 1
    22   17   18 1
    23   17   19 1
    24   17   37 1
    25   18   38 1
    26   19   20 1
    27   19   21 1
    28   19   39 1
    29   20   40 1
    30   21   22 1
    31   21   41 1
    32   22   23 ar
    33   22   32 ar
    34   23   24 ar
    35   23   42 1
    36   24   25 ar
    37   24   46 1
    38   25   26 ar
    39   25   32 ar
    40   26   27 2
    41   26   28 ar
    42   28   29 ar
    43   28   43 1
    44   29   30 1
    45   29   31 ar
    46   30   44 1
    47   30   45 1
    48   31   32 ar
@<TRIPOS>SUBSTRUCTURE
     1 GTP         1 GROUP 0 A     ****
@<TRIPOS>MOLECULE
[[[5-(2-amino-6-oxo-7,8-dihydro-1~{H}-purin-8-ylium-9-yl)-3,4-dihydroxy-tetrahydrofuran-2-yl]methoxy-oxido-phosphoryl]oxy-hydroxy-phosphoryl] phosphate
   46    48     1     0     0
SMALL
USER_CHARGES

@<TRIPOS>ATOM
      1 PG         -2.2421    1.1811   -4.0864 P.3       1 GTP        -1.1921
      2 O1G        -3.0998    0.2940   -4.9828 O.co2     1 GTP         0.3195
      3 O2G        -2.8712    2.5302   -3.7541 O.co2     1 GTP         0.3195
      4 O3G        -1.6337    0.4619   -2.8869 O.co2     1 GTP         0.3195
      5 O3B        -0.9458    1.5720   -5.0267 O.3       1 GTP         0.4672
      6 PB          0.1650    0.6293   -5.7294 P.3       1 GTP        -0.9715
      7 O1B        -0.3696   -0.6405   -6.3230 O.2       1 GTP         0.2707
      8 O2B         0.8763    1.6285   -6.7829 O.3       1 GTP         0.0326
      9 O3A         1.2806    0.4400   -4.5765 O.3       1 GTP         0.4672
     10 PA          2.1937    1.5414   -3.7917 P.3       1 GTP        -1.1062
     11 O1A         3.1512    2.1639   -4.7844 O.co2     1 GTP         0.3195
     12 O2A         1.2849    2.3984   -2.9378 O.co2     1 GTP         0.3195
     13 O5'         3.0213    0.5153   -2.8245 O.3       1 GTP         0.1618
     14 C5'         2.2816   -0.2918   -1.9206 C.3       1 GTP         0.1504
     15 C4'         2.7248    0.0226   -0.4980 C.3       1 GTP         0.1111
     16 O4'         2.4697    1.4219   -0.2462 O.3       1 GTP        -0.1436
     17 C3'         1.9404   -0.7419    0.5596 C.3       1 GTP         0.1111
     18 O3'         2.7418   -0.8086    1.7389 O.3       1 GTP        -0.2728
     19 C2'         0.7477    0.1630    0.7858 C.3       1 GTP         0.1111
     20 O2'         0.1373   -0.0577    2.0407 O.3       1 GTP        -0.2728
     21 C1'         1.3733    1.5427    0.6747 C.3       1 GTP         0.2693
     22 N9          0.4520    2.5240    0.1767 N.pl3     1 GTP        -0.3222
     23 C8         -0.2009    2.4849   -0.9792 C.ar      1 GTP         0.1640
     24 N7         -0.9840    3.5454   -1.1481 N.pl3     1 GTP        -0.3688
     25 C5         -0.8090    4.3005   -0.0206 C.ar      1 GTP         0.0648
     26 C6         -1.4206    5.5724    0.3362 C.ar      1 GTP         0.3597
     27 O6         -2.2199    6.1544   -0.3836 O.2       1 GTP        -0.2755
     28 N1         -0.9680    6.0043    1.5817 N.pl3     1 GTP        -0.1604
     29 C2         -0.0474    5.3055    2.3814 C.ar      1 GTP         0.4468
     30 N2          0.2680    5.9024    3.5740 N.pl3     1 GTP        -0.5618
     31 N3          0.4755    4.1601    2.0138 N.2       1 GTP        -0.4283
     32 C4          0.0611    3.6981    0.8001 C.ar      1 GTP         0.2226
     33 HOB2        1.2465    2.4761   -6.4563 H         1 GTP         0.2010
     34 H5'         1.2163   -0.0770   -2.0471 H         1 GTP        -0.0393
     35 H5''        2.4655   -1.3443   -2.1563 H         1 GTP        -0.0393
     36 H4'         3.8044   -0.1397   -0.4040 H         1 GTP        -0.0393
     37 H3'         1.6764   -1.7639    0.2728 H         1 GTP        -0.0393
     38 HO3'        2.2232   -1.2979    2.3953 H         1 GTP         0.2010
     39 H2'        -0.0011    0.0027    0.0003 H         1 GTP        -0.0393
     40 HO2'       -0.1563   -0.9855    2.0596 H         1 GTP         0.2010
     41 H1'         1.7826    1.9024    1.6451 H         1 GTP        -0.0393
     42 H8         -0.1126    1.6906   -1.6997 H         1 GTP         0.0000
     43 HN1        -1.3285    6.8855    1.9361 H         1 GTP         0.0865
     44 HN21        0.9153    5.4446    4.1732 H         1 GTP         0.2048
     45 HN22       -0.1624    6.7706    3.7948 H         1 GTP         0.2048
     46 H46        -1.5768    3.7405   -1.9429 H         1 GTP         0.2048
@<TRIPOS>BOND
     1    1    2 2
     2    1    3 1
     3    1    4 1
     4    1    5 1
     5    5    6 1
     6    6    7 2
     7    6    8 1
     8    6    9 1
     9    8   33 1
    10    9   10 1
    11   10   11 2
    12   10   12 1
    13   10   13 1
    14   13   14 1
    15   14   15 1
    16   14   34 1
    17   14   35 1
    18   15   16 1
    19   15   17 1
    20   15   36 1
    21   16   21 1
    22   17   18 1
    23   17   19 1
    24   17   37 1
    25   18   38 1
    26   19   20 1
    27   19   21 1
    28   19   39 1
    29   20   40 1
    30   21   22 1
    31   21   41 1
    32   22   23 ar
    33   22   32 ar
    34   23   24 ar
    35   23   42 1
    36   24   25 ar
    37   24   46 1
    38   25   26 ar
    39   25   32 ar
    40   26   27 2
    41   26   28 ar
    42   28   29 ar
    43   28   43 1
    44   29   30 1
    45   29   31 ar
    46   30   44 1
    47   30   45 1
    48   31   32 ar
@<TRIPOS>SUBSTRUCTURE
     1 GTP         1 GROUP 0 A     ****
