@<TRIPOS>MOLECULE
[[[5-(2-amino-6-oxo-7,8-dihydro-1~{H}-purin-8-ylium-9-yl)-3,4-dihydroxy-tetrahydrofuran-2-yl]methoxy-oxido-phosphoryl]oxy-oxido-phosphoryl] phosphate
   45    47     1     0     0
SMALL
USER_CHARGES

@<TRIPOS>ATOM
      1 PG          2.5836    5.2466   -2.9173 P.3       1 GTP        -1.1921
      2 O1G         3.5971    5.8780   -3.8660 O.co2     1 GTP         0.3195
      3 O2G         1.7240    6.2504   -2.1563 O.co2     1 GTP         0.3195
      4 O3G         3.1495    4.1248   -2.0528 O.co2     1 GTP         0.3195
      5 O3B         1.5199    4.4764   -3.9149 O.3       1 GTP         0.4672
      6 PB          1.7745    3.2843   -5.0027 P.3       1 GTP        -1.1062
      7 O1B         0.4398    2.8359   -5.5549 O.co2     1 GTP         0.3195
      8 O2B         2.9151    3.6805   -5.9134 O.co2     1 GTP         0.3195
      9 O3A         2.3614    2.1374   -3.9999 O.3       1 GTP         0.4672
     10 PA          2.8629    0.6171   -4.3271 P.3       1 GTP        -1.1062
     11 O1A         1.6662   -0.1919   -4.7776 O.co2     1 GTP         0.3195
     12 O2A         4.1227    0.6810   -5.1632 O.co2     1 GTP         0.3195
     13 O5'         3.2903    0.1346   -2.8241 O.3       1 GTP         0.1618
     14 C5'         2.2816   -0.2918   -1.9206 C.3       1 GTP         0.1504
     15 C4'         2.7248    0.0226   -0.4980 C.3       1 GTP         0.1111
     16 O4'         2.4697    1.4219   -0.2462 O.3       1 GTP        -0.1436
     17 C3'         1.9404   -0.7419    0.5596 C.3       1 GTP         0.1111
     18 O3'         2.7418   -0.8086    1.7389 O.3       1 GTP        -0.2728
     19 C2'         0.7477    0.1630    0.7858 C.3       1 GTP         0.1111
     20 O2'         0.1373   -0.0577    2.0407 O.3       1 GTP        -0.2728
     21 C1'         1.3733    1.5427    0.6747 C.3       1 GTP         0.2693
     22 N9          0.4520    2.5240    0.1767 N.pl3     1 GTP        -0.3222
     23 C8          0.2203    2.8205   -1.0970 C.ar      1 GTP         0.1640
     24 N7         -0.6947    3.7752   -1.2304 N.pl3     1 GTP        -0.3688
     25 C5         -1.0607    4.0987    0.0476 C.ar      1 GTP         0.0648
     26 C6         -2.0310    5.0839    0.5029 C.ar      1 GTP         0.3597
     27 O6         -2.6779    5.7867   -0.2609 O.2       1 GTP        -0.2755
     28 N1         -2.1030    5.0975    1.8948 N.pl3     1 GTP        -0.1604
     29 C2         -1.3422    4.2721    2.7403 C.ar      1 GTP         0.4468
     30 N2         -1.5624    4.4419    4.0823 N.pl3     1 GTP        -0.5618
     31 N3         -0.4796    3.3981    2.2792 N.2       1 GTP        -0.4283
     32 C4         -0.3754    3.3496    0.9208 C.ar      1 GTP         0.2226
     33 H5'         1.3514    0.2330   -2.1577 H         1 GTP        -0.0393
     34 H5''        2.1280   -1.3678   -2.0460 H         1 GTP        -0.0393
     35 H4'         3.8044   -0.1397   -0.4040 H         1 GTP        -0.0393
     36 H3'         1.6764   -1.7639    0.2728 H         1 GTP        -0.0393
     37 HO3'        2.2232   -1.2979    2.3953 H         1 GTP         0.2010
     38 H2'        -0.0011    0.0027    0.0003 H         1 GTP        -0.0393
     39 HO2'       -0.6141    0.5574    2.1082 H         1 GTP         0.2010
     40 H1'         1.7826    1.9024    1.6451 H         1 GTP        -0.0393
     41 H8          0.7110    2.3472   -1.9295 H         1 GTP         0.0000
     42 HN1        -2.7504    5.7495    2.3282 H         1 GTP         0.0865
     43 HN21       -1.0467    3.8796    4.7190 H         1 GTP         0.2048
     44 HN22       -2.2294    5.1209    4.3680 H         1 GTP         0.2048
     45 H45        -1.0382    4.1687   -2.0954 H         1 GTP         0.2048
@<TRIPOS>BOND
     1    1    2 2
     2    1    3 1
     3    1    4 1
     4    1    5 1
     5    5    6 1
     6    6    7 2
     7    6    8 1
     8    6    9 1
     9    9   10 1
    10   10   11 2
    11   10   12 1
    12   10   13 1
    13   13   14 1
    14   14   15 1
    15   14   33 1
    16   14   34 1
    17   15   16 1
    18   15   17 1
    19   15   35 1
    20   16   21 1
    21   17   18 1
    22   17   19 1
    23   17   36 1
    24   18   37 1
    25   19   20 1
    26   19   21 1
    27   19   38 1
    28   20   39 1
    29   21   22 1
    30   21   40 1
    31   22   23 ar
    32   22   32 ar
    33   23   24 ar
    34   23   41 1
    35   24   25 ar
    36   24   45 1
    37   25   26 ar
    38   25   32 ar
    39   26   27 2
    40   26   28 ar
    41   28   29 ar
    42   28   42 1
    43   29   30 1
    44   29   31 ar
    45   30   43 1
    46   30   44 1
    47   31   32 ar
@<TRIPOS>SUBSTRUCTURE
     1 GTP         1 GROUP 0 A     ****
@<TRIPOS>MOLECULE
[[[5-(2-amino-6-oxo-7,8-dihydro-1~{H}-purin-8-ylium-9-yl)-3,4-dihydroxy-tetrahydrofuran-2-yl]methoxy-oxido-phosphoryl]oxy-oxido-phosphoryl] phosphate
   45    47     1     0     0
SMALL
USER_CHARGES

@<TRIPOS>ATOM
      1 PG         -2.7281    1.6529   -5.5352 P.3       1 GTP        -1.1921
      2 O1G        -3.1558    0.3468   -6.1962 O.co2     1 GTP         0.3195
      3 O2G        -3.5362    2.0253   -4.2967 O.co2     1 GTP         0.3195
      4 O3G        -2.5091    2.8055   -6.5097 O.co2     1 GTP         0.3195
      5 O3B        -1.2176    1.3369   -4.9535 O.3       1 GTP         0.4672
      6 PB          0.1382    0.8813   -5.7431 P.3       1 GTP        -1.1062
      7 O1B        -0.0774   -0.4982   -6.3246 O.co2     1 GTP         0.3195
      8 O2B         0.6253    2.0320   -6.5950 O.co2     1 GTP         0.3195
      9 O3A         1.1591    0.7827   -4.4728 O.3       1 GTP         0.4672
     10 PA          2.7413    0.3775   -4.4298 P.3       1 GTP        -1.1062
     11 O1A         2.8705   -1.0776   -4.8246 O.co2     1 GTP         0.3195
     12 O2A         3.5462    1.4514   -5.1291 O.co2     1 GTP         0.3195
     13 O5'         3.0213    0.5153   -2.8245 O.3       1 GTP         0.1618
     14 C5'         2.2816   -0.2918   -1.9206 C.3       1 GTP         0.1504
     15 C4'         2.7248    0.0226   -0.4980 C.3       1 GTP         0.1111
     16 O4'         2.4697    1.4219   -0.2462 O.3       1 GTP        -0.1436
     17 C3'         1.9404   -0.7419    0.5596 C.3       1 GTP         0.1111
     18 O3'         2.7418   -0.8086    1.7389 O.3       1 GTP        -0.2728
     19 C2'         0.7477    0.1630    0.7858 C.3       1 GTP         0.1111
     20 O2'         0.1373   -0.0577    2.0407 O.3       1 GTP        -0.2728
     21 C1'         1.3733    1.5427    0.6747 C.3       1 GTP         0.2693
     22 N9          0.4520    2.5240    0.1767 N.pl3     1 GTP        -0.3222
     23 C8          0.2203    2.8205   -1.0970 C.ar      1 GTP         0.1640
     24 N7         -0.6947    3.7752   -1.2304 N.pl3     1 GTP        -0.3688
     25 C5         -1.0607    4.0987    0.0476 C.ar      1 GTP         0.0648
     26 C6         -2.0310    5.0839    0.5029 C.ar      1 GTP         0.3597
     27 O6         -2.6779    5.7867   -0.2609 O.2       1 GTP        -0.2755
     28 N1         -2.1030    5.0975    1.8948 N.pl3     1 GTP        -0.1604
     29 C2         -1.3422    4.2721    2.7403 C.ar      1 GTP         0.4468
     30 N2         -1.5624    4.4419    4.0823 N.pl3     1 GTP        -0.5618
     31 N3         -0.4796    3.3981    2.2792 N.2       1 GTP        -0.4283
     32 C4         -0.3754    3.3496    0.9208 C.ar      1 GTP         0.2226
     33 H5'         1.2163   -0.0770   -2.0471 H         1 GTP        -0.0393
     34 H5''        2.4655   -1.3443   -2.1563 H         1 GTP        -0.0393
     35 H4'         3.8044   -0.1397   -0.4040 H         1 GTP        -0.0393
     36 H3'         1.6764   -1.7639    0.2728 H         1 GTP        -0.0393
     37 HO3'        2.2232   -1.2979    2.3953 H         1 GTP         0.2010
     38 H2'        -0.0011    0.0027    0.0003 H         1 GTP        -0.0393
     39 HO2'       -0.6141    0.5574    2.1082 H         1 GTP         0.2010
     40 H1'         1.7826    1.9024    1.6451 H         1 GTP        -0.0393
     41 H8          0.7110    2.3472   -1.9295 H         1 GTP         0.0000
     42 HN1        -2.7504    5.7495    2.3282 H         1 GTP         0.0865
     43 HN21       -1.0467    3.8796    4.7190 H         1 GTP         0.2048
     44 HN22       -2.2294    5.1209    4.3680 H         1 GTP         0.2048
     45 H45        -1.0382    4.1687   -2.0954 H         1 GTP         0.2048
@<TRIPOS>BOND
     1    1    2 2
     2    1    3 1
     3    1    4 1
     4    1    5 1
     5    5    6 1
     6    6    7 2
     7    6    8 1
     8    6    9 1
     9    9   10 1
    10   10   11 2
    11   10   12 1
    12   10   13 1
    13   13   14 1
    14   14   15 1
    15   14   33 1
    16   14   34 1
    17   15   16 1
    18   15   17 1
    19   15   35 1
    20   16   21 1
    21   17   18 1
    22   17   19 1
    23   17   36 1
    24   18   37 1
    25   19   20 1
    26   19   21 1
    27   19   38 1
    28   20   39 1
    29   21   22 1
    30   21   40 1
    31   22   23 ar
    32   22   32 ar
    33   23   24 ar
    34   23   41 1
    35   24   25 ar
    36   24   45 1
    37   25   26 ar
    38   25   32 ar
    39   26   27 2
    40   26   28 ar
    41   28   29 ar
    42   28   42 1
    43   29   30 1
    44   29   31 ar
    45   30   43 1
    46   30   44 1
    47   31   32 ar
@<TRIPOS>SUBSTRUCTURE
     1 GTP         1 GROUP 0 A     ****
@<TRIPOS>MOLECULE
[[[5-(2-amino-6-oxo-7,8-dihydro-1~{H}-purin-8-ylium-9-yl)-3,4-dihydroxy-tetrahydrofuran-2-yl]methoxy-oxido-phosphoryl]oxy-oxido-phosphoryl] phosphate
   45    47     1     0     0
SMALL
USER_CHARGES

@<TRIPOS>ATOM
      1 PG          3.0004    6.4672   -1.5950 P.3       1 GTP        -1.1921
      2 O1G         1.5714    6.8990   -1.9071 O.co2     1 GTP         0.3195
      3 O2G         3.3468    6.4653   -0.1098 O.co2     1 GTP         0.3195
      4 O3G         4.0580    7.1135   -2.4836 O.co2     1 GTP         0.3195
      5 O3B         3.0454    4.8754   -2.0236 O.3       1 GTP         0.4672
      6 PB          2.7722    4.1691   -3.4713 P.3       1 GTP        -1.1062
      7 O1B         1.3210    4.3722   -3.8460 O.co2     1 GTP         0.3195
      8 O2B         3.8928    4.5335   -4.4192 O.co2     1 GTP         0.3195
      9 O3A         3.0122    2.6101   -3.0502 O.3       1 GTP         0.4672
     10 PA          2.9240    1.2545   -3.9582 P.3       1 GTP        -1.1062
     11 O1A         1.4857    1.0623   -4.3872 O.co2     1 GTP         0.3195
     12 O2A         4.0474    1.2642   -4.9720 O.co2     1 GTP         0.3195
     13 O5'         3.2903    0.1346   -2.8241 O.3       1 GTP         0.1618
     14 C5'         2.2816   -0.2918   -1.9206 C.3       1 GTP         0.1504
     15 C4'         2.7248    0.0226   -0.4980 C.3       1 GTP         0.1111
     16 O4'         2.4697    1.4219   -0.2462 O.3       1 GTP        -0.1436
     17 C3'         1.9404   -0.7419    0.5596 C.3       1 GTP         0.1111
     18 O3'         2.7418   -0.8086    1.7389 O.3       1 GTP        -0.2728
     19 C2'         0.7477    0.1630    0.7858 C.3       1 GTP         0.1111
     20 O2'         0.1373   -0.0577    2.0407 O.3       1 GTP        -0.2728
     21 C1'         1.3733    1.5427    0.6747 C.3       1 GTP         0.2693
     22 N9          0.4520    2.5240    0.1767 N.pl3     1 GTP        -0.3222
     23 C8         -0.2009    2.4849   -0.9792 C.ar      1 GTP         0.1640
     24 N7         -0.9840    3.5454   -1.1481 N.pl3     1 GTP        -0.3688
     25 C5         -0.8090    4.3005   -0.0206 C.ar      1 GTP         0.0648
     26 C6         -1.4206    5.5724    0.3362 C.ar      1 GTP         0.3597
     27 O6         -2.2199    6.1544   -0.3836 O.2       1 GTP        -0.2755
     28 N1         -0.9680    6.0043    1.5817 N.pl3     1 GTP        -0.1604
     29 C2         -0.0474    5.3055    2.3814 C.ar      1 GTP         0.4468
     30 N2          0.2680    5.9024    3.5740 N.pl3     1 GTP        -0.5618
     31 N3          0.4755    4.1601    2.0138 N.2       1 GTP        -0.4283
     32 C4          0.0611    3.6981    0.8001 C.ar      1 GTP         0.2226
     33 H5'         1.3514    0.2330   -2.1577 H         1 GTP        -0.0393
     34 H5''        2.1280   -1.3678   -2.0460 H         1 GTP        -0.0393
     35 H4'         3.8044   -0.1397   -0.4040 H         1 GTP        -0.0393
     36 H3'         1.6764   -1.7639    0.2728 H         1 GTP        -0.0393
     37 HO3'        2.2232   -1.2979    2.3953 H         1 GTP         0.2010
     38 H2'        -0.0011    0.0027    0.0003 H         1 GTP        -0.0393
     39 HO2'       -0.6141    0.5574    2.1082 H         1 GTP         0.2010
     40 H1'         1.7826    1.9024    1.6451 H         1 GTP        -0.0393
     41 H8         -0.1126    1.6906   -1.6997 H         1 GTP         0.0000
     42 HN1        -1.3285    6.8855    1.9361 H         1 GTP         0.0865
     43 HN21        0.9153    5.4446    4.1732 H         1 GTP         0.2048
     44 HN22       -0.1624    6.7706    3.7948 H         1 GTP         0.2048
     45 H45        -1.5768    3.7405   -1.9429 H         1 GTP         0.2048
@<TRIPOS>BOND
     1    1    2 2
     2    1    3 1
     3    1    4 1
     4    1    5 1
     5    5    6 1
     6    6    7 2
     7    6    8 1
     8    6    9 1
     9    9   10 1
    10   10   11 2
    11   10   12 1
    12   10   13 1
    13   13   14 1
    14   14   15 1
    15   14   33 1
    16   14   34 1
    17   15   16 1
    18   15   17 1
    19   15   35 1
    20   16   21 1
    21   17   18 1
    22   17   19 1
    23   17   36 1
    24   18   37 1
    25   19   20 1
    26   19   21 1
    27   19   38 1
    28   20   39 1
    29   21   22 1
    30   21   40 1
    31   22   23 ar
    32   22   32 ar
    33   23   24 ar
    34   23   41 1
    35   24   25 ar
    36   24   45 1
    37   25   26 ar
    38   25   32 ar
    39   26   27 2
    40   26   28 ar
    41   28   29 ar
    42   28   42 1
    43   29   30 1
    44   29   31 ar
    45   30   43 1
    46   30   44 1
    47   31   32 ar
@<TRIPOS>SUBSTRUCTURE
     1 GTP         1 GROUP 0 A     ****
@<TRIPOS>MOLECULE
[[[5-(2-amino-6-oxo-7,8-dihydro-1~{H}-purin-8-ylium-9-yl)-3,4-dihydroxy-tetrahydrofuran-2-yl]methoxy-oxido-phosphoryl]oxy-oxido-phosphoryl] phosphate
   45    47     1     0     0
SMALL
USER_CHARGES

@<TRIPOS>ATOM
      1 PG         -0.5325   -1.3966   -7.5362 P.3       1 GTP        -1.1921
      2 O1G        -0.0634   -0.6101   -8.7558 O.co2     1 GTP         0.3195
      3 O2G        -0.0353   -2.8374   -7.4875 O.co2     1 GTP         0.3195
      4 O3G        -2.0157   -1.2351   -7.2197 O.co2     1 GTP         0.3195
      5 O3B         0.2230   -0.6640   -6.2665 O.3       1 GTP         0.4672
      6 PB          0.1382    0.8813   -5.7431 P.3       1 GTP        -1.1062
      7 O1B         0.7331    1.7863   -6.7988 O.co2     1 GTP         0.3195
      8 O2B        -1.2374    1.1342   -5.1676 O.co2     1 GTP         0.3195
      9 O3A         1.1591    0.7827   -4.4728 O.3       1 GTP         0.4672
     10 PA          2.7413    0.3775   -4.4298 P.3       1 GTP        -1.1062
     11 O1A         2.8705   -1.0776   -4.8246 O.co2     1 GTP         0.3195
     12 O2A         3.5462    1.4514   -5.1291 O.co2     1 GTP         0.3195
     13 O5'         3.0213    0.5153   -2.8245 O.3       1 GTP         0.1618
     14 C5'         2.2816   -0.2918   -1.9206 C.3       1 GTP         0.1504
     15 C4'         2.7248    0.0226   -0.4980 C.3       1 GTP         0.1111
     16 O4'         2.4697    1.4219   -0.2462 O.3       1 GTP        -0.1436
     17 C3'         1.9404   -0.7419    0.5596 C.3       1 GTP         0.1111
     18 O3'         2.7418   -0.8086    1.7389 O.3       1 GTP        -0.2728
     19 C2'         0.7477    0.1630    0.7858 C.3       1 GTP         0.1111
     20 O2'         0.1373   -0.0577    2.0407 O.3       1 GTP        -0.2728
     21 C1'         1.3733    1.5427    0.6747 C.3       1 GTP         0.2693
     22 N9          0.4520    2.5240    0.1767 N.pl3     1 GTP        -0.3222
     23 C8          0.2203    2.8205   -1.0970 C.ar      1 GTP         0.1640
     24 N7         -0.6947    3.7752   -1.2304 N.pl3     1 GTP        -0.3688
     25 C5         -1.0607    4.0987    0.0476 C.ar      1 GTP         0.0648
     26 C6         -2.0310    5.0839    0.5029 C.ar      1 GTP         0.3597
     27 O6         -2.6779    5.7867   -0.2609 O.2       1 GTP        -0.2755
     28 N1         -2.1030    5.0975    1.8948 N.pl3     1 GTP        -0.1604
     29 C2         -1.3422    4.2721    2.7403 C.ar      1 GTP         0.4468
     30 N2         -1.5624    4.4419    4.0823 N.pl3     1 GTP        -0.5618
     31 N3         -0.4796    3.3981    2.2792 N.2       1 GTP        -0.4283
     32 C4         -0.3754    3.3496    0.9208 C.ar      1 GTP         0.2226
     33 H5'         1.2163   -0.0770   -2.0471 H         1 GTP        -0.0393
     34 H5''        2.4655   -1.3443   -2.1563 H         1 GTP        -0.0393
     35 H4'         3.8044   -0.1397   -0.4040 H         1 GTP        -0.0393
     36 H3'         1.6764   -1.7639    0.2728 H         1 GTP        -0.0393
     37 HO3'        2.2232   -1.2979    2.3953 H         1 GTP         0.2010
     38 H2'        -0.0011    0.0027    0.0003 H         1 GTP        -0.0393
     39 HO2'       -0.6141    0.5574    2.1082 H         1 GTP         0.2010
     40 H1'         1.7826    1.9024    1.6451 H         1 GTP        -0.0393
     41 H8          0.7110    2.3472   -1.9295 H         1 GTP         0.0000
     42 HN1        -2.7504    5.7495    2.3282 H         1 GTP         0.0865
     43 HN21       -1.0467    3.8796    4.7190 H         1 GTP         0.2048
     44 HN22       -2.2294    5.1209    4.3680 H         1 GTP         0.2048
     45 H45        -1.0382    4.1687   -2.0954 H         1 GTP         0.2048
@<TRIPOS>BOND
     1    1    2 2
     2    1    3 1
     3    1    4 1
     4    1    5 1
     5    5    6 1
     6    6    7 2
     7    6    8 1
     8    6    9 1
     9    9   10 1
    10   10   11 2
    11   10   12 1
    12   10   13 1
    13   13   14 1
    14   14   15 1
    15   14   33 1
    16   14   34 1
    17   15   16 1
    18   15   17 1
    19   15   35 1
    20   16   21 1
    21   17   18 1
    22   17   19 1
    23   17   36 1
    24   18   37 1
    25   19   20 1
    26   19   21 1
    27   19   38 1
    28   20   39 1
    29   21   22 1
    30   21   40 1
    31   22   23 ar
    32   22   32 ar
    33   23   24 ar
    34   23   41 1
    35   24   25 ar
    36   24   45 1
    37   25   26 ar
    38   25   32 ar
    39   26   27 2
    40   26   28 ar
    41   28   29 ar
    42   28   42 1
    43   29   30 1
    44   29   31 ar
    45   30   43 1
    46   30   44 1
    47   31   32 ar
@<TRIPOS>SUBSTRUCTURE
     1 GTP         1 GROUP 0 A     ****
@<TRIPOS>MOLECULE
[[[5-(2-amino-6-oxo-7,8-dihydro-1~{H}-purin-8-ylium-9-yl)-3,4-dihydroxy-tetrahydrofuran-2-yl]methoxy-oxido-phosphoryl]oxy-oxido-phosphoryl] phosphate
   45    47     1     0     0
SMALL
USER_CHARGES

@<TRIPOS>ATOM
      1 PG         -1.6271    2.7213   -6.1143 P.3       1 GTP        -1.1921
      2 O1G        -2.4174    1.5522   -6.6927 O.co2     1 GTP         0.3195
      3 O2G        -2.3375    3.4651   -4.9884 O.co2     1 GTP         0.3195
      4 O3G        -0.9950    3.6299   -7.1635 O.co2     1 GTP         0.3195
      5 O3B        -0.3336    2.0111   -5.3779 O.3       1 GTP         0.4672
      6 PB          0.8428    1.0657   -6.0034 P.3       1 GTP        -1.1062
      7 O1B         0.2250   -0.2307   -6.4780 O.co2     1 GTP         0.3195
      8 O2B         1.7211    1.9014   -6.9075 O.co2     1 GTP         0.3195
      9 O3A         1.7067    0.7916   -4.6454 O.3       1 GTP         0.4672
     10 PA          3.0683   -0.0853   -4.4294 P.3       1 GTP        -1.1062
     11 O1A         2.7416   -1.5410   -4.6820 O.co2     1 GTP         0.3195
     12 O2A         4.2137    0.5946   -5.1476 O.co2     1 GTP         0.3195
     13 O5'         3.2903    0.1346   -2.8241 O.3       1 GTP         0.1618
     14 C5'         2.2816   -0.2918   -1.9206 C.3       1 GTP         0.1504
     15 C4'         2.7248    0.0226   -0.4980 C.3       1 GTP         0.1111
     16 O4'         2.4697    1.4219   -0.2462 O.3       1 GTP        -0.1436
     17 C3'         1.9404   -0.7419    0.5596 C.3       1 GTP         0.1111
     18 O3'         2.7418   -0.8086    1.7389 O.3       1 GTP        -0.2728
     19 C2'         0.7477    0.1630    0.7858 C.3       1 GTP         0.1111
     20 O2'         0.1373   -0.0577    2.0407 O.3       1 GTP        -0.2728
     21 C1'         1.3733    1.5427    0.6747 C.3       1 GTP         0.2693
     22 N9          0.4520    2.5240    0.1767 N.pl3     1 GTP        -0.3222
     23 C8         -0.6818    2.9109    0.7501 C.ar      1 GTP         0.1640
     24 N7         -1.3103    3.8415    0.0391 N.pl3     1 GTP        -0.3688
     25 C5         -0.5155    4.0512   -1.0547 C.ar      1 GTP         0.0648
     26 C6         -0.7125    4.9651   -2.1705 C.ar      1 GTP         0.3597
     27 O6         -1.6819    5.7047   -2.2651 O.2       1 GTP        -0.2755
     28 N1          0.3401    4.8672   -3.0790 N.pl3     1 GTP        -0.1604
     29 C2          1.4396    4.0039   -2.9348 C.ar      1 GTP         0.4468
     30 N2          2.3679    4.0602   -3.9414 N.pl3     1 GTP        -0.5618
     31 N3          1.5708    3.1983   -1.9080 N.2       1 GTP        -0.4283
     32 C4          0.5630    3.2599   -0.9921 C.ar      1 GTP         0.2226
     33 H5'         1.3514    0.2330   -2.1577 H         1 GTP        -0.0393
     34 H5''        2.1280   -1.3678   -2.0460 H         1 GTP        -0.0393
     35 H4'         3.8044   -0.1397   -0.4040 H         1 GTP        -0.0393
     36 H3'         1.6764   -1.7639    0.2728 H         1 GTP        -0.0393
     37 HO3'        2.2232   -1.2979    2.3953 H         1 GTP         0.2010
     38 H2'        -0.0011    0.0027    0.0003 H         1 GTP        -0.0393
     39 HO2'       -0.1563   -0.9855    2.0596 H         1 GTP         0.2010
     40 H1'         1.7826    1.9024    1.6451 H         1 GTP        -0.0393
     41 H8         -1.0545    2.5222    1.6816 H         1 GTP         0.0000
     42 HN1         0.3104    5.4612   -3.9026 H         1 GTP         0.0865
     43 HN21        3.1632    3.4672   -3.8824 H         1 GTP         0.2048
     44 HN22        2.2108    4.6918   -4.6924 H         1 GTP         0.2048
     45 H45        -2.1863    4.2902    0.2681 H         1 GTP         0.2048
@<TRIPOS>BOND
     1    1    2 2
     2    1    3 1
     3    1    4 1
     4    1    5 1
     5    5    6 1
     6    6    7 2
     7    6    8 1
     8    6    9 1
     9    9   10 1
    10   10   11 2
    11   10   12 1
    12   10   13 1
    13   13   14 1
    14   14   15 1
    15   14   33 1
    16   14   34 1
    17   15   16 1
    18   15   17 1
    19   15   35 1
    20   16   21 1
    21   17   18 1
    22   17   19 1
    23   17   36 1
    24   18   37 1
    25   19   20 1
    26   19   21 1
    27   19   38 1
    28   20   39 1
    29   21   22 1
    30   21   40 1
    31   22   23 ar
    32   22   32 ar
    33   23   24 ar
    34   23   41 1
    35   24   25 ar
    36   24   45 1
    37   25   26 ar
    38   25   32 ar
    39   26   27 2
    40   26   28 ar
    41   28   29 ar
    42   28   42 1
    43   29   30 1
    44   29   31 ar
    45   30   43 1
    46   30   44 1
    47   31   32 ar
@<TRIPOS>SUBSTRUCTURE
     1 GTP         1 GROUP 0 A     ****
@<TRIPOS>MOLECULE
[[[5-(2-amino-6-oxo-7,8-dihydro-1~{H}-purin-8-ylium-9-yl)-3,4-dihydroxy-tetrahydrofuran-2-yl]methoxy-oxido-phosphoryl]oxy-oxido-phosphoryl] phosphate
   45    47     1     0     0
SMALL
USER_CHARGES

@<TRIPOS>ATOM
      1 PG          0.5291    2.6911   -8.0724 P.3       1 GTP        -1.1921
      2 O1G        -0.8310    3.3381   -7.8326 O.co2     1 GTP         0.3195
      3 O2G         1.6575    3.6808   -8.3424 O.co2     1 GTP         0.3195
      4 O3G         0.4973    1.5022   -9.0270 O.co2     1 GTP         0.3195
      5 O3B         0.9196    2.0182   -6.6183 O.3       1 GTP         0.4672
      6 PB          0.1382    0.8813   -5.7431 P.3       1 GTP        -1.1062
      7 O1B        -1.1867    1.4470   -5.2823 O.co2     1 GTP         0.3195
      8 O2B         0.2243   -0.4450   -6.4649 O.co2     1 GTP         0.3195
      9 O3A         1.1591    0.7827   -4.4728 O.3       1 GTP         0.4672
     10 PA          2.7413    0.3775   -4.4298 P.3       1 GTP        -1.1062
     11 O1A         2.8705   -1.0776   -4.8246 O.co2     1 GTP         0.3195
     12 O2A         3.5462    1.4514   -5.1291 O.co2     1 GTP         0.3195
     13 O5'         3.0213    0.5153   -2.8245 O.3       1 GTP         0.1618
     14 C5'         2.2816   -0.2918   -1.9206 C.3       1 GTP         0.1504
     15 C4'         2.7248    0.0226   -0.4980 C.3       1 GTP         0.1111
     16 O4'         2.4697    1.4219   -0.2462 O.3       1 GTP        -0.1436
     17 C3'         1.9404   -0.7419    0.5596 C.3       1 GTP         0.1111
     18 O3'         2.7418   -0.8086    1.7389 O.3       1 GTP        -0.2728
     19 C2'         0.7477    0.1630    0.7858 C.3       1 GTP         0.1111
     20 O2'         0.1373   -0.0577    2.0407 O.3       1 GTP        -0.2728
     21 C1'         1.3733    1.5427    0.6747 C.3       1 GTP         0.2693
     22 N9          0.4520    2.5240    0.1767 N.pl3     1 GTP        -0.3222
     23 C8          0.2203    2.8205   -1.0970 C.ar      1 GTP         0.1640
     24 N7         -0.6947    3.7752   -1.2304 N.pl3     1 GTP        -0.3688
     25 C5         -1.0607    4.0987    0.0476 C.ar      1 GTP         0.0648
     26 C6         -2.0310    5.0839    0.5029 C.ar      1 GTP         0.3597
     27 O6         -2.6779    5.7867   -0.2609 O.2       1 GTP        -0.2755
     28 N1         -2.1030    5.0975    1.8948 N.pl3     1 GTP        -0.1604
     29 C2         -1.3422    4.2721    2.7403 C.ar      1 GTP         0.4468
     30 N2         -1.5624    4.4419    4.0823 N.pl3     1 GTP        -0.5618
     31 N3         -0.4796    3.3981    2.2792 N.2       1 GTP        -0.4283
     32 C4         -0.3754    3.3496    0.9208 C.ar      1 GTP         0.2226
     33 H5'         1.2163   -0.0770   -2.0471 H         1 GTP        -0.0393
     34 H5''        2.4655   -1.3443   -2.1563 H         1 GTP        -0.0393
     35 H4'         3.8044   -0.1397   -0.4040 H         1 GTP        -0.0393
     36 H3'         1.6764   -1.7639    0.2728 H         1 GTP        -0.0393
     37 HO3'        2.2232   -1.2979    2.3953 H         1 GTP         0.2010
     38 H2'        -0.0011    0.0027    0.0003 H         1 GTP        -0.0393
     39 HO2'       -0.6141    0.5574    2.1082 H         1 GTP         0.2010
     40 H1'         1.7826    1.9024    1.6451 H         1 GTP        -0.0393
     41 H8          0.7110    2.3472   -1.9295 H         1 GTP         0.0000
     42 HN1        -2.7504    5.7495    2.3282 H         1 GTP         0.0865
     43 HN21       -1.0467    3.8796    4.7190 H         1 GTP         0.2048
     44 HN22       -2.2294    5.1209    4.3680 H         1 GTP         0.2048
     45 H45        -1.0382    4.1687   -2.0954 H         1 GTP         0.2048
@<TRIPOS>BOND
     1    1    2 2
     2    1    3 1
     3    1    4 1
     4    1    5 1
     5    5    6 1
     6    6    7 2
     7    6    8 1
     8    6    9 1
     9    9   10 1
    10   10   11 2
    11   10   12 1
    12   10   13 1
    13   13   14 1
    14   14   15 1
    15   14   33 1
    16   14   34 1
    17   15   16 1
    18   15   17 1
    19   15   35 1
    20   16   21 1
    21   17   18 1
    22   17   19 1
    23   17   36 1
    24   18   37 1
    25   19   20 1
    26   19   21 1
    27   19   38 1
    28   20   39 1
    29   21   22 1
    30   21   40 1
    31   22   23 ar
    32   22   32 ar
    33   23   24 ar
    34   23   41 1
    35   24   25 ar
    36   24   45 1
    37   25   26 ar
    38   25   32 ar
    39   26   27 2
    40   26   28 ar
    41   28   29 ar
    42   28   42 1
    43   29   30 1
    44   29   31 ar
    45   30   43 1
    46   30   44 1
    47   31   32 ar
@<TRIPOS>SUBSTRUCTURE
     1 GTP         1 GROUP 0 A     ****
@<TRIPOS>MOLECULE
[[[5-(2-amino-6-oxo-7,8-dihydro-1~{H}-purin-8-ylium-9-yl)-3,4-dihydroxy-tetrahydrofuran-2-yl]methoxy-oxido-phosphoryl]oxy-oxido-phosphoryl] phosphate
   45    47     1     0     0
SMALL
USER_CHARGES

@<TRIPOS>ATOM
      1 PG          0.2232    5.2343   -4.5768 P.3       1 GTP        -1.1921
      2 O1G         0.9443    5.7458   -5.8194 O.co2     1 GTP         0.3195
      3 O2G        -1.0816    4.4993   -4.8646 O.co2     1 GTP         0.3195
      4 O3G         0.1326    6.2500   -3.4428 O.co2     1 GTP         0.3195
      5 O3B         1.2231    4.0664   -3.9802 O.3       1 GTP         0.4672
      6 PB          2.7722    4.1691   -3.4713 P.3       1 GTP        -1.1062
      7 O1B         3.6511    4.5131   -4.6531 O.co2     1 GTP         0.3195
      8 O2B         2.8201    4.9705   -2.1895 O.co2     1 GTP         0.3195
      9 O3A         3.0122    2.6101   -3.0502 O.3       1 GTP         0.4672
     10 PA          2.9240    1.2545   -3.9582 P.3       1 GTP        -1.1062
     11 O1A         1.4857    1.0623   -4.3872 O.co2     1 GTP         0.3195
     12 O2A         4.0474    1.2642   -4.9720 O.co2     1 GTP         0.3195
     13 O5'         3.2903    0.1346   -2.8241 O.3       1 GTP         0.1618
     14 C5'         2.2816   -0.2918   -1.9206 C.3       1 GTP         0.1504
     15 C4'         2.7248    0.0226   -0.4980 C.3       1 GTP         0.1111
     16 O4'         2.4697    1.4219   -0.2462 O.3       1 GTP        -0.1436
     17 C3'         1.9404   -0.7419    0.5596 C.3       1 GTP         0.1111
     18 O3'         2.7418   -0.8086    1.7389 O.3       1 GTP        -0.2728
     19 C2'         0.7477    0.1630    0.7858 C.3       1 GTP         0.1111
     20 O2'         0.1373   -0.0577    2.0407 O.3       1 GTP        -0.2728
     21 C1'         1.3733    1.5427    0.6747 C.3       1 GTP         0.2693
     22 N9          0.4520    2.5240    0.1767 N.pl3     1 GTP        -0.3222
     23 C8         -0.2009    2.4849   -0.9792 C.ar      1 GTP         0.1640
     24 N7         -0.9840    3.5454   -1.1481 N.pl3     1 GTP        -0.3688
     25 C5         -0.8090    4.3005   -0.0206 C.ar      1 GTP         0.0648
     26 C6         -1.4206    5.5724    0.3362 C.ar      1 GTP         0.3597
     27 O6         -2.2199    6.1544   -0.3836 O.2       1 GTP        -0.2755
     28 N1         -0.9680    6.0043    1.5817 N.pl3     1 GTP        -0.1604
     29 C2         -0.0474    5.3055    2.3814 C.ar      1 GTP         0.4468
     30 N2          0.2680    5.9024    3.5740 N.pl3     1 GTP        -0.5618
     31 N3          0.4755    4.1601    2.0138 N.2       1 GTP        -0.4283
     32 C4          0.0611    3.6981    0.8001 C.ar      1 GTP         0.2226
     33 H5'         1.3514    0.2330   -2.1577 H         1 GTP        -0.0393
     34 H5''        2.1280   -1.3678   -2.0460 H         1 GTP        -0.0393
     35 H4'         3.8044   -0.1397   -0.4040 H         1 GTP        -0.0393
     36 H3'         1.6764   -1.7639    0.2728 H         1 GTP        -0.0393
     37 HO3'        2.2232   -1.2979    2.3953 H         1 GTP         0.2010
     38 H2'        -0.0011    0.0027    0.0003 H         1 GTP        -0.0393
     39 HO2'       -0.6141    0.5574    2.1082 H         1 GTP         0.2010
     40 H1'         1.7826    1.9024    1.6451 H         1 GTP        -0.0393
     41 H8         -0.1126    1.6906   -1.6997 H         1 GTP         0.0000
     42 HN1        -1.3285    6.8855    1.9361 H         1 GTP         0.0865
     43 HN21        0.9153    5.4446    4.1732 H         1 GTP         0.2048
     44 HN22       -0.1624    6.7706    3.7948 H         1 GTP         0.2048
     45 H45        -1.5768    3.7405   -1.9429 H         1 GTP         0.2048
@<TRIPOS>BOND
     1    1    2 2
     2    1    3 1
     3    1    4 1
     4    1    5 1
     5    5    6 1
     6    6    7 2
     7    6    8 1
     8    6    9 1
     9    9   10 1
    10   10   11 2
    11   10   12 1
    12   10   13 1
    13   13   14 1
    14   14   15 1
    15   14   33 1
    16   14   34 1
    17   15   16 1
    18   15   17 1
    19   15   35 1
    20   16   21 1
    21   17   18 1
    22   17   19 1
    23   17   36 1
    24   18   37 1
    25   19   20 1
    26   19   21 1
    27   19   38 1
    28   20   39 1
    29   21   22 1
    30   21   40 1
    31   22   23 ar
    32   22   32 ar
    33   23   24 ar
    34   23   41 1
    35   24   25 ar
    36   24   45 1
    37   25   26 ar
    38   25   32 ar
    39   26   27 2
    40   26   28 ar
    41   28   29 ar
    42   28   42 1
    43   29   30 1
    44   29   31 ar
    45   30   43 1
    46   30   44 1
    47   31   32 ar
@<TRIPOS>SUBSTRUCTURE
     1 GTP         1 GROUP 0 A     ****
@<TRIPOS>MOLECULE
[[[5-(2-amino-6-oxo-7,8-dihydro-1~{H}-purin-8-ylium-9-yl)-3,4-dihydroxy-tetrahydrofuran-2-yl]methoxy-oxido-phosphoryl]oxy-oxido-phosphoryl] phosphate
   45    47     1     0     0
SMALL
USER_CHARGES

@<TRIPOS>ATOM
      1 PG          3.5535    5.9629   -4.9330 P.3       1 GTP        -1.1921
      2 O1G         3.4374    6.9833   -3.8055 O.co2     1 GTP         0.3195
      3 O2G         4.9577    5.8206   -5.5105 O.co2     1 GTP         0.3195
      4 O3G         2.4518    6.0620   -5.9830 O.co2     1 GTP         0.3195
      5 O3B         3.2685    4.5138   -4.1989 O.3       1 GTP         0.4672
      6 PB          1.9532    3.9899   -3.3837 P.3       1 GTP        -1.1062
      7 O1B         1.7997    4.8149   -2.1253 O.co2     1 GTP         0.3195
      8 O2B         0.8085    3.8080   -4.3553 O.co2     1 GTP         0.3195
      9 O3A         2.4690    2.4912   -2.9921 O.3       1 GTP         0.4672
     10 PA          2.9240    1.2545   -3.9582 P.3       1 GTP        -1.1062
     11 O1A         1.7120    0.7858   -4.7334 O.co2     1 GTP         0.3195
     12 O2A         4.2086    1.6267   -4.6662 O.co2     1 GTP         0.3195
     13 O5'         3.2903    0.1346   -2.8241 O.3       1 GTP         0.1618
     14 C5'         2.2816   -0.2918   -1.9206 C.3       1 GTP         0.1504
     15 C4'         2.7248    0.0226   -0.4980 C.3       1 GTP         0.1111
     16 O4'         2.4697    1.4219   -0.2462 O.3       1 GTP        -0.1436
     17 C3'         1.9404   -0.7419    0.5596 C.3       1 GTP         0.1111
     18 O3'         2.7418   -0.8086    1.7389 O.3       1 GTP        -0.2728
     19 C2'         0.7477    0.1630    0.7858 C.3       1 GTP         0.1111
     20 O2'         0.1373   -0.0577    2.0407 O.3       1 GTP        -0.2728
     21 C1'         1.3733    1.5427    0.6747 C.3       1 GTP         0.2693
     22 N9          0.4520    2.5240    0.1767 N.pl3     1 GTP        -0.3222
     23 C8         -0.2009    2.4849   -0.9792 C.ar      1 GTP         0.1640
     24 N7         -0.9840    3.5454   -1.1481 N.pl3     1 GTP        -0.3688
     25 C5         -0.8090    4.3005   -0.0206 C.ar      1 GTP         0.0648
     26 C6         -1.4206    5.5724    0.3362 C.ar      1 GTP         0.3597
     27 O6         -2.2199    6.1544   -0.3836 O.2       1 GTP        -0.2755
     28 N1         -0.9680    6.0043    1.5817 N.pl3     1 GTP        -0.1604
     29 C2         -0.0474    5.3055    2.3814 C.ar      1 GTP         0.4468
     30 N2          0.2680    5.9024    3.5740 N.pl3     1 GTP        -0.5618
     31 N3          0.4755    4.1601    2.0138 N.2       1 GTP        -0.4283
     32 C4          0.0611    3.6981    0.8001 C.ar      1 GTP         0.2226
     33 H5'         1.3514    0.2330   -2.1577 H         1 GTP        -0.0393
     34 H5''        2.1280   -1.3678   -2.0460 H         1 GTP        -0.0393
     35 H4'         3.8044   -0.1397   -0.4040 H         1 GTP        -0.0393
     36 H3'         1.6764   -1.7639    0.2728 H         1 GTP        -0.0393
     37 HO3'        2.2232   -1.2979    2.3953 H         1 GTP         0.2010
     38 H2'        -0.0011    0.0027    0.0003 H         1 GTP        -0.0393
     39 HO2'       -0.6141    0.5574    2.1082 H         1 GTP         0.2010
     40 H1'         1.7826    1.9024    1.6451 H         1 GTP        -0.0393
     41 H8         -0.1126    1.6906   -1.6997 H         1 GTP         0.0000
     42 HN1        -1.3285    6.8855    1.9361 H         1 GTP         0.0865
     43 HN21        0.9153    5.4446    4.1732 H         1 GTP         0.2048
     44 HN22       -0.1624    6.7706    3.7948 H         1 GTP         0.2048
     45 H45        -1.5768    3.7405   -1.9429 H         1 GTP         0.2048
@<TRIPOS>BOND
     1    1    2 2
     2    1    3 1
     3    1    4 1
     4    1    5 1
     5    5    6 1
     6    6    7 2
     7    6    8 1
     8    6    9 1
     9    9   10 1
    10   10   11 2
    11   10   12 1
    12   10   13 1
    13   13   14 1
    14   14   15 1
    15   14   33 1
    16   14   34 1
    17   15   16 1
    18   15   17 1
    19   15   35 1
    20   16   21 1
    21   17   18 1
    22   17   19 1
    23   17   36 1
    24   18   37 1
    25   19   20 1
    26   19   21 1
    27   19   38 1
    28   20   39 1
    29   21   22 1
    30   21   40 1
    31   22   23 ar
    32   22   32 ar
    33   23   24 ar
    34   23   41 1
    35   24   25 ar
    36   24   45 1
    37   25   26 ar
    38   25   32 ar
    39   26   27 2
    40   26   28 ar
    41   28   29 ar
    42   28   42 1
    43   29   30 1
    44   29   31 ar
    45   30   43 1
    46   30   44 1
    47   31   32 ar
@<TRIPOS>SUBSTRUCTURE
     1 GTP         1 GROUP 0 A     ****
@<TRIPOS>MOLECULE
[[[5-(2-amino-6-oxo-7,8-dihydro-1~{H}-purin-8-ylium-9-yl)-3,4-dihydroxy-tetrahydrofuran-2-yl]methoxy-oxido-phosphoryl]oxy-oxido-phosphoryl] phosphate
   45    47     1     0     0
SMALL
USER_CHARGES

@<TRIPOS>ATOM
      1 PG         -2.5985   -2.1059   -2.6361 P.3       1 GTP        -1.1921
      2 O1G        -1.5006   -1.8660   -1.6051 O.co2     1 GTP         0.3195
      3 O2G        -3.7966   -1.1711   -2.5083 O.co2     1 GTP         0.3195
      4 O3G        -2.9672   -3.5733   -2.8283 O.co2     1 GTP         0.3195
      5 O3B        -1.9057   -1.6829   -4.0717 O.3       1 GTP         0.4672
      6 PB         -0.5836   -2.2860   -4.8182 P.3       1 GTP        -1.1062
      7 O1B        -0.7461   -3.7828   -4.9623 O.co2     1 GTP         0.3195
      8 O2B        -0.2405   -1.4096   -6.0020 O.co2     1 GTP         0.3195
      9 O3A         0.5322   -1.9680   -3.6696 O.3       1 GTP         0.4672
     10 PA          2.1375   -2.2725   -3.6560 P.3       1 GTP        -1.1062
     11 O1A         2.3368   -3.7723   -3.6314 O.co2     1 GTP         0.3195
     12 O2A         2.8132   -1.4113   -4.7009 O.co2     1 GTP         0.3195
     13 O5'         2.5245   -1.6648   -2.1878 O.3       1 GTP         0.1618
     14 C5'         2.2816   -0.2918   -1.9206 C.3       1 GTP         0.1504
     15 C4'         2.7248    0.0226   -0.4980 C.3       1 GTP         0.1111
     16 O4'         2.4697    1.4219   -0.2462 O.3       1 GTP        -0.1436
     17 C3'         1.9404   -0.7419    0.5596 C.3       1 GTP         0.1111
     18 O3'         2.7418   -0.8086    1.7389 O.3       1 GTP        -0.2728
     19 C2'         0.7477    0.1630    0.7858 C.3       1 GTP         0.1111
     20 O2'         0.1373   -0.0577    2.0407 O.3       1 GTP        -0.2728
     21 C1'         1.3733    1.5427    0.6747 C.3       1 GTP         0.2693
     22 N9          0.4520    2.5240    0.1767 N.pl3     1 GTP        -0.3222
     23 C8          0.2203    2.8205   -1.0970 C.ar      1 GTP         0.1640
     24 N7         -0.6947    3.7752   -1.2304 N.pl3     1 GTP        -0.3688
     25 C5         -1.0607    4.0987    0.0476 C.ar      1 GTP         0.0648
     26 C6         -2.0310    5.0839    0.5029 C.ar      1 GTP         0.3597
     27 O6         -2.6779    5.7867   -0.2609 O.2       1 GTP        -0.2755
     28 N1         -2.1030    5.0975    1.8948 N.pl3     1 GTP        -0.1604
     29 C2         -1.3422    4.2721    2.7403 C.ar      1 GTP         0.4468
     30 N2         -1.5624    4.4419    4.0823 N.pl3     1 GTP        -0.5618
     31 N3         -0.4796    3.3981    2.2792 N.2       1 GTP        -0.4283
     32 C4         -0.3754    3.3496    0.9208 C.ar      1 GTP         0.2226
     33 H5'         2.8432    0.3119   -2.6398 H         1 GTP        -0.0393
     34 H5''        1.2128   -0.0927   -2.0428 H         1 GTP        -0.0393
     35 H4'         3.8044   -0.1397   -0.4040 H         1 GTP        -0.0393
     36 H3'         1.6764   -1.7639    0.2728 H         1 GTP        -0.0393
     37 HO3'        2.2232   -1.2979    2.3953 H         1 GTP         0.2010
     38 H2'        -0.0011    0.0027    0.0003 H         1 GTP        -0.0393
     39 HO2'       -0.6141    0.5574    2.1082 H         1 GTP         0.2010
     40 H1'         1.7826    1.9024    1.6451 H         1 GTP        -0.0393
     41 H8          0.7110    2.3472   -1.9295 H         1 GTP         0.0000
     42 HN1        -2.7504    5.7495    2.3282 H         1 GTP         0.0865
     43 HN21       -1.0467    3.8796    4.7190 H         1 GTP         0.2048
     44 HN22       -2.2294    5.1209    4.3680 H         1 GTP         0.2048
     45 H45        -1.0382    4.1687   -2.0954 H         1 GTP         0.2048
@<TRIPOS>BOND
     1    1    2 2
     2    1    3 1
     3    1    4 1
     4    1    5 1
     5    5    6 1
     6    6    7 2
     7    6    8 1
     8    6    9 1
     9    9   10 1
    10   10   11 2
    11   10   12 1
    12   10   13 1
    13   13   14 1
    14   14   15 1
    15   14   33 1
    16   14   34 1
    17   15   16 1
    18   15   17 1
    19   15   35 1
    20   16   21 1
    21   17   18 1
    22   17   19 1
    23   17   36 1
    24   18   37 1
    25   19   20 1
    26   19   21 1
    27   19   38 1
    28   20   39 1
    29   21   22 1
    30   21   40 1
    31   22   23 ar
    32   22   32 ar
    33   23   24 ar
    34   23   41 1
    35   24   25 ar
    36   24   45 1
    37   25   26 ar
    38   25   32 ar
    39   26   27 2
    40   26   28 ar
    41   28   29 ar
    42   28   42 1
    43   29   30 1
    44   29   31 ar
    45   30   43 1
    46   30   44 1
    47   31   32 ar
@<TRIPOS>SUBSTRUCTURE
     1 GTP         1 GROUP 0 A     ****
@<TRIPOS>MOLECULE
[[[5-(2-amino-6-oxo-7,8-dihydro-1~{H}-purin-8-ylium-9-yl)-3,4-dihydroxy-tetrahydrofuran-2-yl]methoxy-oxido-phosphoryl]oxy-oxido-phosphoryl] phosphate
   45    47     1     0     0
SMALL
USER_CHARGES

@<TRIPOS>ATOM
      1 PG          3.8195   -4.9880   -6.1070 P.3       1 GTP        -1.1921
      2 O1G         4.8818   -4.7057   -7.1643 O.co2     1 GTP         0.3195
      3 O2G         4.2822   -5.9046   -4.9795 O.co2     1 GTP         0.3195
      4 O3G         2.4480   -5.3376   -6.6751 O.co2     1 GTP         0.3195
      5 O3B         3.5816   -3.5306   -5.3726 O.3       1 GTP         0.4672
      6 PB          3.0841   -2.1067   -6.0004 P.3       1 GTP        -1.1062
      7 O1B         4.1362   -1.6055   -6.9645 O.co2     1 GTP         0.3195
      8 O2B         1.6317   -2.2245   -6.4051 O.co2     1 GTP         0.3195
      9 O3A         3.1131   -1.1992   -4.6435 O.3       1 GTP         0.4672
     10 PA          2.7413    0.3775   -4.4298 P.3       1 GTP        -1.1062
     11 O1A         3.7595    1.2116   -5.1762 O.co2     1 GTP         0.3195
     12 O2A         1.2573    0.5705   -4.6542 O.co2     1 GTP         0.3195
     13 O5'         3.0213    0.5153   -2.8245 O.3       1 GTP         0.1618
     14 C5'         2.2816   -0.2918   -1.9206 C.3       1 GTP         0.1504
     15 C4'         2.7248    0.0226   -0.4980 C.3       1 GTP         0.1111
     16 O4'         2.4697    1.4219   -0.2462 O.3       1 GTP        -0.1436
     17 C3'         1.9404   -0.7419    0.5596 C.3       1 GTP         0.1111
     18 O3'         2.7418   -0.8086    1.7389 O.3       1 GTP        -0.2728
     19 C2'         0.7477    0.1630    0.7858 C.3       1 GTP         0.1111
     20 O2'         0.1373   -0.0577    2.0407 O.3       1 GTP        -0.2728
     21 C1'         1.3733    1.5427    0.6747 C.3       1 GTP         0.2693
     22 N9          0.4520    2.5240    0.1767 N.pl3     1 GTP        -0.3222
     23 C8          0.2203    2.8205   -1.0970 C.ar      1 GTP         0.1640
     24 N7         -0.6947    3.7752   -1.2304 N.pl3     1 GTP        -0.3688
     25 C5         -1.0607    4.0987    0.0476 C.ar      1 GTP         0.0648
     26 C6         -2.0310    5.0839    0.5029 C.ar      1 GTP         0.3597
     27 O6         -2.6779    5.7867   -0.2609 O.2       1 GTP        -0.2755
     28 N1         -2.1030    5.0975    1.8948 N.pl3     1 GTP        -0.1604
     29 C2         -1.3422    4.2721    2.7403 C.ar      1 GTP         0.4468
     30 N2         -1.5624    4.4419    4.0823 N.pl3     1 GTP        -0.5618
     31 N3         -0.4796    3.3981    2.2792 N.2       1 GTP        -0.4283
     32 C4         -0.3754    3.3496    0.9208 C.ar      1 GTP         0.2226
     33 H5'         1.2163   -0.0770   -2.0471 H         1 GTP        -0.0393
     34 H5''        2.4655   -1.3443   -2.1563 H         1 GTP        -0.0393
     35 H4'         3.8044   -0.1397   -0.4040 H         1 GTP        -0.0393
     36 H3'         1.6764   -1.7639    0.2728 H         1 GTP        -0.0393
     37 HO3'        2.2232   -1.2979    2.3953 H         1 GTP         0.2010
     38 H2'        -0.0011    0.0027    0.0003 H         1 GTP        -0.0393
     39 HO2'       -0.6141    0.5574    2.1082 H         1 GTP         0.2010
     40 H1'         1.7826    1.9024    1.6451 H         1 GTP        -0.0393
     41 H8          0.7110    2.3472   -1.9295 H         1 GTP         0.0000
     42 HN1        -2.7504    5.7495    2.3282 H         1 GTP         0.0865
     43 HN21       -1.0467    3.8796    4.7190 H         1 GTP         0.2048
     44 HN22       -2.2294    5.1209    4.3680 H         1 GTP         0.2048
     45 H45        -1.0382    4.1687   -2.0954 H         1 GTP         0.2048
@<TRIPOS>BOND
     1    1    2 2
     2    1    3 1
     3    1    4 1
     4    1    5 1
     5    5    6 1
     6    6    7 2
     7    6    8 1
     8    6    9 1
     9    9   10 1
    10   10   11 2
    11   10   12 1
    12   10   13 1
    13   13   14 1
    14   14   15 1
    15   14   33 1
    16   14   34 1
    17   15   16 1
    18   15   17 1
    19   15   35 1
    20   16   21 1
    21   17   18 1
    22   17   19 1
    23   17   36 1
    24   18   37 1
    25   19   20 1
    26   19   21 1
    27   19   38 1
    28   20   39 1
    29   21   22 1
    30   21   40 1
    31   22   23 ar
    32   22   32 ar
    33   23   24 ar
    34   23   41 1
    35   24   25 ar
    36   24   45 1
    37   25   26 ar
    38   25   32 ar
    39   26   27 2
    40   26   28 ar
    41   28   29 ar
    42   28   42 1
    43   29   30 1
    44   29   31 ar
    45   30   43 1
    46   30   44 1
    47   31   32 ar
@<TRIPOS>SUBSTRUCTURE
     1 GTP         1 GROUP 0 A     ****
@<TRIPOS>MOLECULE
[[[5-(2-amino-6-oxo-7,8-dihydro-1~{H}-purin-8-ylium-9-yl)-3,4-dihydroxy-tetrahydrofuran-2-yl]methoxy-oxido-phosphoryl]oxy-oxido-phosphoryl] phosphate
   45    47     1     0     0
SMALL
USER_CHARGES

@<TRIPOS>ATOM
      1 PG         -0.6808    2.9713   -6.6541 P.3       1 GTP        -1.1921
      2 O1G         0.1062    3.2610   -7.9279 O.co2     1 GTP         0.3195
      3 O2G        -1.6256    1.7786   -6.7560 O.co2     1 GTP         0.3195
      4 O3G        -1.2986    4.2056   -6.0055 O.co2     1 GTP         0.3195
      5 O3B         0.4652    2.4892   -5.5707 O.3       1 GTP         0.4672
      6 PB          1.7745    3.2843   -5.0027 P.3       1 GTP        -1.1062
      7 O1B         2.7446    3.5016   -6.1425 O.co2     1 GTP         0.3195
      8 O2B         1.3170    4.4272   -4.1241 O.co2     1 GTP         0.3195
      9 O3A         2.3614    2.1374   -3.9999 O.3       1 GTP         0.4672
     10 PA          2.8629    0.6171   -4.3271 P.3       1 GTP        -1.1062
     11 O1A         1.6662   -0.1919   -4.7776 O.co2     1 GTP         0.3195
     12 O2A         4.1227    0.6810   -5.1632 O.co2     1 GTP         0.3195
     13 O5'         3.2903    0.1346   -2.8241 O.3       1 GTP         0.1618
     14 C5'         2.2816   -0.2918   -1.9206 C.3       1 GTP         0.1504
     15 C4'         2.7248    0.0226   -0.4980 C.3       1 GTP         0.1111
     16 O4'         2.4697    1.4219   -0.2462 O.3       1 GTP        -0.1436
     17 C3'         1.9404   -0.7419    0.5596 C.3       1 GTP         0.1111
     18 O3'         2.7418   -0.8086    1.7389 O.3       1 GTP        -0.2728
     19 C2'         0.7477    0.1630    0.7858 C.3       1 GTP         0.1111
     20 O2'         0.1373   -0.0577    2.0407 O.3       1 GTP        -0.2728
     21 C1'         1.3733    1.5427    0.6747 C.3       1 GTP         0.2693
     22 N9          0.4520    2.5240    0.1767 N.pl3     1 GTP        -0.3222
     23 C8          0.2203    2.8205   -1.0970 C.ar      1 GTP         0.1640
     24 N7         -0.6947    3.7752   -1.2304 N.pl3     1 GTP        -0.3688
     25 C5         -1.0607    4.0987    0.0476 C.ar      1 GTP         0.0648
     26 C6         -2.0310    5.0839    0.5029 C.ar      1 GTP         0.3597
     27 O6         -2.6779    5.7867   -0.2609 O.2       1 GTP        -0.2755
     28 N1         -2.1030    5.0975    1.8948 N.pl3     1 GTP        -0.1604
     29 C2         -1.3422    4.2721    2.7403 C.ar      1 GTP         0.4468
     30 N2         -1.5624    4.4419    4.0823 N.pl3     1 GTP        -0.5618
     31 N3         -0.4796    3.3981    2.2792 N.2       1 GTP        -0.4283
     32 C4         -0.3754    3.3496    0.9208 C.ar      1 GTP         0.2226
     33 H5'         1.3514    0.2330   -2.1577 H         1 GTP        -0.0393
     34 H5''        2.1280   -1.3678   -2.0460 H         1 GTP        -0.0393
     35 H4'         3.8044   -0.1397   -0.4040 H         1 GTP        -0.0393
     36 H3'         1.6764   -1.7639    0.2728 H         1 GTP        -0.0393
     37 HO3'        2.2232   -1.2979    2.3953 H         1 GTP         0.2010
     38 H2'        -0.0011    0.0027    0.0003 H         1 GTP        -0.0393
     39 HO2'       -0.6141    0.5574    2.1082 H         1 GTP         0.2010
     40 H1'         1.7826    1.9024    1.6451 H         1 GTP        -0.0393
     41 H8          0.7110    2.3472   -1.9295 H         1 GTP         0.0000
     42 HN1        -2.7504    5.7495    2.3282 H         1 GTP         0.0865
     43 HN21       -1.0467    3.8796    4.7190 H         1 GTP         0.2048
     44 HN22       -2.2294    5.1209    4.3680 H         1 GTP         0.2048
     45 H45        -1.0382    4.1687   -2.0954 H         1 GTP         0.2048
@<TRIPOS>BOND
     1    1    2 2
     2    1    3 1
     3    1    4 1
     4    1    5 1
     5    5    6 1
     6    6    7 2
     7    6    8 1
     8    6    9 1
     9    9   10 1
    10   10   11 2
    11   10   12 1
    12   10   13 1
    13   13   14 1
    14   14   15 1
    15   14   33 1
    16   14   34 1
    17   15   16 1
    18   15   17 1
    19   15   35 1
    20   16   21 1
    21   17   18 1
    22   17   19 1
    23   17   36 1
    24   18   37 1
    25   19   20 1
    26   19   21 1
    27   19   38 1
    28   20   39 1
    29   21   22 1
    30   21   40 1
    31   22   23 ar
    32   22   32 ar
    33   23   24 ar
    34   23   41 1
    35   24   25 ar
    36   24   45 1
    37   25   26 ar
    38   25   32 ar
    39   26   27 2
    40   26   28 ar
    41   28   29 ar
    42   28   42 1
    43   29   30 1
    44   29   31 ar
    45   30   43 1
    46   30   44 1
    47   31   32 ar
@<TRIPOS>SUBSTRUCTURE
     1 GTP         1 GROUP 0 A     ****
@<TRIPOS>MOLECULE
[[[5-(2-amino-6-oxo-7,8-dihydro-1~{H}-purin-8-ylium-9-yl)-3,4-dihydroxy-tetrahydrofuran-2-yl]methoxy-oxido-phosphoryl]oxy-oxido-phosphoryl] phosphate
   45    47     1     0     0
SMALL
USER_CHARGES

@<TRIPOS>ATOM
      1 PG          4.6942   -1.5334   -8.4361 P.3       1 GTP        -1.1921
      2 O1G         3.4323   -1.4798   -9.2908 O.co2     1 GTP         0.3195
      3 O2G         5.6770   -0.3960   -8.6934 O.co2     1 GTP         0.3195
      4 O3G         5.3398   -2.9130   -8.3585 O.co2     1 GTP         0.3195
      5 O3B         4.1555   -1.2639   -6.9009 O.3       1 GTP         0.4672
      6 PB          3.0841   -2.1067   -6.0004 P.3       1 GTP        -1.1062
      7 O1B         1.7199   -2.0054   -6.6454 O.co2     1 GTP         0.3195
      8 O2B         3.6890   -3.4435   -5.6338 O.co2     1 GTP         0.3195
      9 O3A         3.1131   -1.1992   -4.6435 O.3       1 GTP         0.4672
     10 PA          2.7413    0.3775   -4.4298 P.3       1 GTP        -1.1062
     11 O1A         3.7595    1.2116   -5.1762 O.co2     1 GTP         0.3195
     12 O2A         1.2573    0.5705   -4.6542 O.co2     1 GTP         0.3195
     13 O5'         3.0213    0.5153   -2.8245 O.3       1 GTP         0.1618
     14 C5'         2.2816   -0.2918   -1.9206 C.3       1 GTP         0.1504
     15 C4'         2.7248    0.0226   -0.4980 C.3       1 GTP         0.1111
     16 O4'         2.4697    1.4219   -0.2462 O.3       1 GTP        -0.1436
     17 C3'         1.9404   -0.7419    0.5596 C.3       1 GTP         0.1111
     18 O3'         2.7418   -0.8086    1.7389 O.3       1 GTP        -0.2728
     19 C2'         0.7477    0.1630    0.7858 C.3       1 GTP         0.1111
     20 O2'         0.1373   -0.0577    2.0407 O.3       1 GTP        -0.2728
     21 C1'         1.3733    1.5427    0.6747 C.3       1 GTP         0.2693
     22 N9          0.4520    2.5240    0.1767 N.pl3     1 GTP        -0.3222
     23 C8          0.2203    2.8205   -1.0970 C.ar      1 GTP         0.1640
     24 N7         -0.6947    3.7752   -1.2304 N.pl3     1 GTP        -0.3688
     25 C5         -1.0607    4.0987    0.0476 C.ar      1 GTP         0.0648
     26 C6         -2.0310    5.0839    0.5029 C.ar      1 GTP         0.3597
     27 O6         -2.6779    5.7867   -0.2609 O.2       1 GTP        -0.2755
     28 N1         -2.1030    5.0975    1.8948 N.pl3     1 GTP        -0.1604
     29 C2         -1.3422    4.2721    2.7403 C.ar      1 GTP         0.4468
     30 N2         -1.5624    4.4419    4.0823 N.pl3     1 GTP        -0.5618
     31 N3         -0.4796    3.3981    2.2792 N.2       1 GTP        -0.4283
     32 C4         -0.3754    3.3496    0.9208 C.ar      1 GTP         0.2226
     33 H5'         1.2163   -0.0770   -2.0471 H         1 GTP        -0.0393
     34 H5''        2.4655   -1.3443   -2.1563 H         1 GTP        -0.0393
     35 H4'         3.8044   -0.1397   -0.4040 H         1 GTP        -0.0393
     36 H3'         1.6764   -1.7639    0.2728 H         1 GTP        -0.0393
     37 HO3'        2.2232   -1.2979    2.3953 H         1 GTP         0.2010
     38 H2'        -0.0011    0.0027    0.0003 H         1 GTP        -0.0393
     39 HO2'       -0.6141    0.5574    2.1082 H         1 GTP         0.2010
     40 H1'         1.7826    1.9024    1.6451 H         1 GTP        -0.0393
     41 H8          0.7110    2.3472   -1.9295 H         1 GTP         0.0000
     42 HN1        -2.7504    5.7495    2.3282 H         1 GTP         0.0865
     43 HN21       -1.0467    3.8796    4.7190 H         1 GTP         0.2048
     44 HN22       -2.2294    5.1209    4.3680 H         1 GTP         0.2048
     45 H45        -1.0382    4.1687   -2.0954 H         1 GTP         0.2048
@<TRIPOS>BOND
     1    1    2 2
     2    1    3 1
     3    1    4 1
     4    1    5 1
     5    5    6 1
     6    6    7 2
     7    6    8 1
     8    6    9 1
     9    9   10 1
    10   10   11 2
    11   10   12 1
    12   10   13 1
    13   13   14 1
    14   14   15 1
    15   14   33 1
    16   14   34 1
    17   15   16 1
    18   15   17 1
    19   15   35 1
    20   16   21 1
    21   17   18 1
    22   17   19 1
    23   17   36 1
    24   18   37 1
    25   19   20 1
    26   19   21 1
    27   19   38 1
    28   20   39 1
    29   21   22 1
    30   21   40 1
    31   22   23 ar
    32   22   32 ar
    33   23   24 ar
    34   23   41 1
    35   24   25 ar
    36   24   45 1
    37   25   26 ar
    38   25   32 ar
    39   26   27 2
    40   26   28 ar
    41   28   29 ar
    42   28   42 1
    43   29   30 1
    44   29   31 ar
    45   30   43 1
    46   30   44 1
    47   31   32 ar
@<TRIPOS>SUBSTRUCTURE
     1 GTP         1 GROUP 0 A     ****
@<TRIPOS>MOLECULE
[[[5-(2-amino-6-oxo-7,8-dihydro-1~{H}-purin-8-ylium-9-yl)-3,4-dihydroxy-tetrahydrofuran-2-yl]methoxy-oxido-phosphoryl]oxy-oxido-phosphoryl] phosphate
   45    47     1     0     0
SMALL
USER_CHARGES

@<TRIPOS>ATOM
      1 PG          0.6493   -2.5952   -7.6395 P.3       1 GTP        -1.1921
      2 O1G         0.8115   -4.1033   -7.4801 O.co2     1 GTP         0.3195
      3 O2G        -0.7730   -2.0893   -7.4231 O.co2     1 GTP         0.3195
      4 O3G         1.3384   -2.0180   -8.8715 O.co2     1 GTP         0.3195
      5 O3B         1.5014   -1.9606   -6.3781 O.3       1 GTP         0.4672
      6 PB          3.0841   -2.1067   -6.0004 P.3       1 GTP        -1.1062
      7 O1B         3.3695   -3.5496   -5.6479 O.co2     1 GTP         0.3195
      8 O2B         3.9090   -1.3651   -7.0285 O.co2     1 GTP         0.3195
      9 O3A         3.1131   -1.1992   -4.6435 O.3       1 GTP         0.4672
     10 PA          2.7413    0.3775   -4.4298 P.3       1 GTP        -1.1062
     11 O1A         3.7595    1.2116   -5.1762 O.co2     1 GTP         0.3195
     12 O2A         1.2573    0.5705   -4.6542 O.co2     1 GTP         0.3195
     13 O5'         3.0213    0.5153   -2.8245 O.3       1 GTP         0.1618
     14 C5'         2.2816   -0.2918   -1.9206 C.3       1 GTP         0.1504
     15 C4'         2.7248    0.0226   -0.4980 C.3       1 GTP         0.1111
     16 O4'         2.4697    1.4219   -0.2462 O.3       1 GTP        -0.1436
     17 C3'         1.9404   -0.7419    0.5596 C.3       1 GTP         0.1111
     18 O3'         2.7418   -0.8086    1.7389 O.3       1 GTP        -0.2728
     19 C2'         0.7477    0.1630    0.7858 C.3       1 GTP         0.1111
     20 O2'         0.1373   -0.0577    2.0407 O.3       1 GTP        -0.2728
     21 C1'         1.3733    1.5427    0.6747 C.3       1 GTP         0.2693
     22 N9          0.4520    2.5240    0.1767 N.pl3     1 GTP        -0.3222
     23 C8          0.2203    2.8205   -1.0970 C.ar      1 GTP         0.1640
     24 N7         -0.6947    3.7752   -1.2304 N.pl3     1 GTP        -0.3688
     25 C5         -1.0607    4.0987    0.0476 C.ar      1 GTP         0.0648
     26 C6         -2.0310    5.0839    0.5029 C.ar      1 GTP         0.3597
     27 O6         -2.6779    5.7867   -0.2609 O.2       1 GTP        -0.2755
     28 N1         -2.1030    5.0975    1.8948 N.pl3     1 GTP        -0.1604
     29 C2         -1.3422    4.2721    2.7403 C.ar      1 GTP         0.4468
     30 N2         -1.5624    4.4419    4.0823 N.pl3     1 GTP        -0.5618
     31 N3         -0.4796    3.3981    2.2792 N.2       1 GTP        -0.4283
     32 C4         -0.3754    3.3496    0.9208 C.ar      1 GTP         0.2226
     33 H5'         1.2163   -0.0770   -2.0471 H         1 GTP        -0.0393
     34 H5''        2.4655   -1.3443   -2.1563 H         1 GTP        -0.0393
     35 H4'         3.8044   -0.1397   -0.4040 H         1 GTP        -0.0393
     36 H3'         1.6764   -1.7639    0.2728 H         1 GTP        -0.0393
     37 HO3'        2.2232   -1.2979    2.3953 H         1 GTP         0.2010
     38 H2'        -0.0011    0.0027    0.0003 H         1 GTP        -0.0393
     39 HO2'       -0.6141    0.5574    2.1082 H         1 GTP         0.2010
     40 H1'         1.7826    1.9024    1.6451 H         1 GTP        -0.0393
     41 H8          0.7110    2.3472   -1.9295 H         1 GTP         0.0000
     42 HN1        -2.7504    5.7495    2.3282 H         1 GTP         0.0865
     43 HN21       -1.0467    3.8796    4.7190 H         1 GTP         0.2048
     44 HN22       -2.2294    5.1209    4.3680 H         1 GTP         0.2048
     45 H45        -1.0382    4.1687   -2.0954 H         1 GTP         0.2048
@<TRIPOS>BOND
     1    1    2 2
     2    1    3 1
     3    1    4 1
     4    1    5 1
     5    5    6 1
     6    6    7 2
     7    6    8 1
     8    6    9 1
     9    9   10 1
    10   10   11 2
    11   10   12 1
    12   10   13 1
    13   13   14 1
    14   14   15 1
    15   14   33 1
    16   14   34 1
    17   15   16 1
    18   15   17 1
    19   15   35 1
    20   16   21 1
    21   17   18 1
    22   17   19 1
    23   17   36 1
    24   18   37 1
    25   19   20 1
    26   19   21 1
    27   19   38 1
    28   20   39 1
    29   21   22 1
    30   21   40 1
    31   22   23 ar
    32   22   32 ar
    33   23   24 ar
    34   23   41 1
    35   24   25 ar
    36   24   45 1
    37   25   26 ar
    38   25   32 ar
    39   26   27 2
    40   26   28 ar
    41   28   29 ar
    42   28   42 1
    43   29   30 1
    44   29   31 ar
    45   30   43 1
    46   30   44 1
    47   31   32 ar
@<TRIPOS>SUBSTRUCTURE
     1 GTP         1 GROUP 0 A     ****
@<TRIPOS>MOLECULE
[[[5-(2-amino-6-oxo-7,8-dihydro-1~{H}-purin-8-ylium-9-yl)-3,4-dihydroxy-tetrahydrofuran-2-yl]methoxy-oxido-phosphoryl]oxy-oxido-phosphoryl] phosphate
   45    47     1     0     0
SMALL
USER_CHARGES

@<TRIPOS>ATOM
      1 PG         -2.0551    0.5723   -3.7561 P.3       1 GTP        -1.1921
      2 O1G        -1.0449    0.4337   -2.6220 O.co2     1 GTP         0.3195
      3 O2G        -3.2168    1.5124   -3.4523 O.co2     1 GTP         0.3195
      4 O3G        -2.4701   -0.7512   -4.3902 O.co2     1 GTP         0.3195
      5 O3B        -1.2176    1.3369   -4.9535 O.3       1 GTP         0.4672
      6 PB          0.1382    0.8813   -5.7431 P.3       1 GTP        -1.1062
      7 O1B        -0.0774   -0.4982   -6.3246 O.co2     1 GTP         0.3195
      8 O2B         0.6253    2.0320   -6.5950 O.co2     1 GTP         0.3195
      9 O3A         1.1591    0.7827   -4.4728 O.3       1 GTP         0.4672
     10 PA          2.7413    0.3775   -4.4298 P.3       1 GTP        -1.1062
     11 O1A         2.8705   -1.0776   -4.8246 O.co2     1 GTP         0.3195
     12 O2A         3.5462    1.4514   -5.1291 O.co2     1 GTP         0.3195
     13 O5'         3.0213    0.5153   -2.8245 O.3       1 GTP         0.1618
     14 C5'         2.2816   -0.2918   -1.9206 C.3       1 GTP         0.1504
     15 C4'         2.7248    0.0226   -0.4980 C.3       1 GTP         0.1111
     16 O4'         2.4697    1.4219   -0.2462 O.3       1 GTP        -0.1436
     17 C3'         1.9404   -0.7419    0.5596 C.3       1 GTP         0.1111
     18 O3'         2.7418   -0.8086    1.7389 O.3       1 GTP        -0.2728
     19 C2'         0.7477    0.1630    0.7858 C.3       1 GTP         0.1111
     20 O2'         0.1373   -0.0577    2.0407 O.3       1 GTP        -0.2728
     21 C1'         1.3733    1.5427    0.6747 C.3       1 GTP         0.2693
     22 N9          0.4520    2.5240    0.1767 N.pl3     1 GTP        -0.3222
     23 C8         -0.6818    2.9109    0.7501 C.ar      1 GTP         0.1640
     24 N7         -1.3103    3.8415    0.0391 N.pl3     1 GTP        -0.3688
     25 C5         -0.5155    4.0512   -1.0547 C.ar      1 GTP         0.0648
     26 C6         -0.7125    4.9651   -2.1705 C.ar      1 GTP         0.3597
     27 O6         -1.6819    5.7047   -2.2651 O.2       1 GTP        -0.2755
     28 N1          0.3401    4.8672   -3.0790 N.pl3     1 GTP        -0.1604
     29 C2          1.4396    4.0039   -2.9348 C.ar      1 GTP         0.4468
     30 N2          2.3679    4.0602   -3.9414 N.pl3     1 GTP        -0.5618
     31 N3          1.5708    3.1983   -1.9080 N.2       1 GTP        -0.4283
     32 C4          0.5630    3.2599   -0.9921 C.ar      1 GTP         0.2226
     33 H5'         1.2163   -0.0770   -2.0471 H         1 GTP        -0.0393
     34 H5''        2.4655   -1.3443   -2.1563 H         1 GTP        -0.0393
     35 H4'         3.8044   -0.1397   -0.4040 H         1 GTP        -0.0393
     36 H3'         1.6764   -1.7639    0.2728 H         1 GTP        -0.0393
     37 HO3'        2.2232   -1.2979    2.3953 H         1 GTP         0.2010
     38 H2'        -0.0011    0.0027    0.0003 H         1 GTP        -0.0393
     39 HO2'       -0.1563   -0.9855    2.0596 H         1 GTP         0.2010
     40 H1'         1.7826    1.9024    1.6451 H         1 GTP        -0.0393
     41 H8         -1.0545    2.5222    1.6816 H         1 GTP         0.0000
     42 HN1         0.3104    5.4612   -3.9026 H         1 GTP         0.0865
     43 HN21        3.1632    3.4672   -3.8824 H         1 GTP         0.2048
     44 HN22        2.2108    4.6918   -4.6924 H         1 GTP         0.2048
     45 H45        -2.1863    4.2902    0.2681 H         1 GTP         0.2048
@<TRIPOS>BOND
     1    1    2 2
     2    1    3 1
     3    1    4 1
     4    1    5 1
     5    5    6 1
     6    6    7 2
     7    6    8 1
     8    6    9 1
     9    9   10 1
    10   10   11 2
    11   10   12 1
    12   10   13 1
    13   13   14 1
    14   14   15 1
    15   14   33 1
    16   14   34 1
    17   15   16 1
    18   15   17 1
    19   15   35 1
    20   16   21 1
    21   17   18 1
    22   17   19 1
    23   17   36 1
    24   18   37 1
    25   19   20 1
    26   19   21 1
    27   19   38 1
    28   20   39 1
    29   21   22 1
    30   21   40 1
    31   22   23 ar
    32   22   32 ar
    33   23   24 ar
    34   23   41 1
    35   24   25 ar
    36   24   45 1
    37   25   26 ar
    38   25   32 ar
    39   26   27 2
    40   26   28 ar
    41   28   29 ar
    42   28   42 1
    43   29   30 1
    44   29   31 ar
    45   30   43 1
    46   30   44 1
    47   31   32 ar
@<TRIPOS>SUBSTRUCTURE
     1 GTP         1 GROUP 0 A     ****
@<TRIPOS>MOLECULE
[[[5-(2-amino-6-oxo-7,8-dihydro-1~{H}-purin-8-ylium-9-yl)-3,4-dihydroxy-tetrahydrofuran-2-yl]methoxy-oxido-phosphoryl]oxy-oxido-phosphoryl] phosphate
   45    47     1     0     0
SMALL
USER_CHARGES

@<TRIPOS>ATOM
      1 PG          6.5443   -3.8250   -5.2292 P.3       1 GTP        -1.1921
      2 O1G         7.0672   -3.9573   -3.8027 O.co2     1 GTP         0.3195
      3 O2G         5.9389   -5.1038   -5.7983 O.co2     1 GTP         0.3195
      4 O3G         7.4948   -3.1052   -6.1803 O.co2     1 GTP         0.3195
      5 O3B         5.2638   -2.7941   -5.0974 O.3       1 GTP         0.4672
      6 PB          5.2069   -1.2534   -4.5571 P.3       1 GTP        -1.1062
      7 O1B         5.5463   -1.2414   -3.0832 O.co2     1 GTP         0.3195
      8 O2B         5.9238   -0.3567   -5.5416 O.co2     1 GTP         0.3195
      9 O3A         3.6110   -0.9682   -4.7501 O.3       1 GTP         0.4672
     10 PA          2.7413    0.3775   -4.4298 P.3       1 GTP        -1.1062
     11 O1A         3.3915    1.5444   -5.1406 O.co2     1 GTP         0.3195
     12 O2A         1.2708    0.0714   -4.6137 O.co2     1 GTP         0.3195
     13 O5'         3.0213    0.5153   -2.8245 O.3       1 GTP         0.1618
     14 C5'         2.2816   -0.2918   -1.9206 C.3       1 GTP         0.1504
     15 C4'         2.7248    0.0226   -0.4980 C.3       1 GTP         0.1111
     16 O4'         2.4697    1.4219   -0.2462 O.3       1 GTP        -0.1436
     17 C3'         1.9404   -0.7419    0.5596 C.3       1 GTP         0.1111
     18 O3'         2.7418   -0.8086    1.7389 O.3       1 GTP        -0.2728
     19 C2'         0.7477    0.1630    0.7858 C.3       1 GTP         0.1111
     20 O2'         0.1373   -0.0577    2.0407 O.3       1 GTP        -0.2728
     21 C1'         1.3733    1.5427    0.6747 C.3       1 GTP         0.2693
     22 N9          0.4520    2.5240    0.1767 N.pl3     1 GTP        -0.3222
     23 C8          0.2203    2.8205   -1.0970 C.ar      1 GTP         0.1640
     24 N7         -0.6947    3.7752   -1.2304 N.pl3     1 GTP        -0.3688
     25 C5         -1.0607    4.0987    0.0476 C.ar      1 GTP         0.0648
     26 C6         -2.0310    5.0839    0.5029 C.ar      1 GTP         0.3597
     27 O6         -2.6779    5.7867   -0.2609 O.2       1 GTP        -0.2755
     28 N1         -2.1030    5.0975    1.8948 N.pl3     1 GTP        -0.1604
     29 C2         -1.3422    4.2721    2.7403 C.ar      1 GTP         0.4468
     30 N2         -1.5624    4.4419    4.0823 N.pl3     1 GTP        -0.5618
     31 N3         -0.4796    3.3981    2.2792 N.2       1 GTP        -0.4283
     32 C4         -0.3754    3.3496    0.9208 C.ar      1 GTP         0.2226
     33 H5'         1.2163   -0.0770   -2.0471 H         1 GTP        -0.0393
     34 H5''        2.4655   -1.3443   -2.1563 H         1 GTP        -0.0393
     35 H4'         3.8044   -0.1397   -0.4040 H         1 GTP        -0.0393
     36 H3'         1.6764   -1.7639    0.2728 H         1 GTP        -0.0393
     37 HO3'        2.2232   -1.2979    2.3953 H         1 GTP         0.2010
     38 H2'        -0.0011    0.0027    0.0003 H         1 GTP        -0.0393
     39 HO2'       -0.6141    0.5574    2.1082 H         1 GTP         0.2010
     40 H1'         1.7826    1.9024    1.6451 H         1 GTP        -0.0393
     41 H8          0.7110    2.3472   -1.9295 H         1 GTP         0.0000
     42 HN1        -2.7504    5.7495    2.3282 H         1 GTP         0.0865
     43 HN21       -1.0467    3.8796    4.7190 H         1 GTP         0.2048
     44 HN22       -2.2294    5.1209    4.3680 H         1 GTP         0.2048
     45 H45        -1.0382    4.1687   -2.0954 H         1 GTP         0.2048
@<TRIPOS>BOND
     1    1    2 2
     2    1    3 1
     3    1    4 1
     4    1    5 1
     5    5    6 1
     6    6    7 2
     7    6    8 1
     8    6    9 1
     9    9   10 1
    10   10   11 2
    11   10   12 1
    12   10   13 1
    13   13   14 1
    14   14   15 1
    15   14   33 1
    16   14   34 1
    17   15   16 1
    18   15   17 1
    19   15   35 1
    20   16   21 1
    21   17   18 1
    22   17   19 1
    23   17   36 1
    24   18   37 1
    25   19   20 1
    26   19   21 1
    27   19   38 1
    28   20   39 1
    29   21   22 1
    30   21   40 1
    31   22   23 ar
    32   22   32 ar
    33   23   24 ar
    34   23   41 1
    35   24   25 ar
    36   24   45 1
    37   25   26 ar
    38   25   32 ar
    39   26   27 2
    40   26   28 ar
    41   28   29 ar
    42   28   42 1
    43   29   30 1
    44   29   31 ar
    45   30   43 1
    46   30   44 1
    47   31   32 ar
@<TRIPOS>SUBSTRUCTURE
     1 GTP         1 GROUP 0 A     ****
@<TRIPOS>MOLECULE
[[[5-(2-amino-6-oxo-7,8-dihydro-1~{H}-purin-8-ylium-9-yl)-3,4-dihydroxy-tetrahydrofuran-2-yl]methoxy-oxido-phosphoryl]oxy-oxido-phosphoryl] phosphate
   45    47     1     0     0
SMALL
USER_CHARGES

@<TRIPOS>ATOM
      1 PG          3.2691    4.4162   -7.3133 P.3       1 GTP        -1.1921
      2 O1G         3.1174    5.8273   -6.7550 O.co2     1 GTP         0.3195
      3 O2G         4.6728    4.0826   -7.8071 O.co2     1 GTP         0.3195
      4 O3G         2.1543    3.9965   -8.2657 O.co2     1 GTP         0.3195
      5 O3B         3.0570    3.4373   -6.0032 O.3       1 GTP         0.4672
      6 PB          1.7745    3.2843   -5.0027 P.3       1 GTP        -1.1062
      7 O1B         1.5956    4.5777   -4.2392 O.co2     1 GTP         0.3195
      8 O2B         0.6302    2.6467   -5.7586 O.co2     1 GTP         0.3195
      9 O3A         2.3614    2.1374   -3.9999 O.3       1 GTP         0.4672
     10 PA          2.8629    0.6171   -4.3271 P.3       1 GTP        -1.1062
     11 O1A         1.6662   -0.1919   -4.7776 O.co2     1 GTP         0.3195
     12 O2A         4.1227    0.6810   -5.1632 O.co2     1 GTP         0.3195
     13 O5'         3.2903    0.1346   -2.8241 O.3       1 GTP         0.1618
     14 C5'         2.2816   -0.2918   -1.9206 C.3       1 GTP         0.1504
     15 C4'         2.7248    0.0226   -0.4980 C.3       1 GTP         0.1111
     16 O4'         2.4697    1.4219   -0.2462 O.3       1 GTP        -0.1436
     17 C3'         1.9404   -0.7419    0.5596 C.3       1 GTP         0.1111
     18 O3'         2.7418   -0.8086    1.7389 O.3       1 GTP        -0.2728
     19 C2'         0.7477    0.1630    0.7858 C.3       1 GTP         0.1111
     20 O2'         0.1373   -0.0577    2.0407 O.3       1 GTP        -0.2728
     21 C1'         1.3733    1.5427    0.6747 C.3       1 GTP         0.2693
     22 N9          0.4520    2.5240    0.1767 N.pl3     1 GTP        -0.3222
     23 C8          0.2203    2.8205   -1.0970 C.ar      1 GTP         0.1640
     24 N7         -0.6947    3.7752   -1.2304 N.pl3     1 GTP        -0.3688
     25 C5         -1.0607    4.0987    0.0476 C.ar      1 GTP         0.0648
     26 C6         -2.0310    5.0839    0.5029 C.ar      1 GTP         0.3597
     27 O6         -2.6779    5.7867   -0.2609 O.2       1 GTP        -0.2755
     28 N1         -2.1030    5.0975    1.8948 N.pl3     1 GTP        -0.1604
     29 C2         -1.3422    4.2721    2.7403 C.ar      1 GTP         0.4468
     30 N2         -1.5624    4.4419    4.0823 N.pl3     1 GTP        -0.5618
     31 N3         -0.4796    3.3981    2.2792 N.2       1 GTP        -0.4283
     32 C4         -0.3754    3.3496    0.9208 C.ar      1 GTP         0.2226
     33 H5'         1.3514    0.2330   -2.1577 H         1 GTP        -0.0393
     34 H5''        2.1280   -1.3678   -2.0460 H         1 GTP        -0.0393
     35 H4'         3.8044   -0.1397   -0.4040 H         1 GTP        -0.0393
     36 H3'         1.6764   -1.7639    0.2728 H         1 GTP        -0.0393
     37 HO3'        2.2232   -1.2979    2.3953 H         1 GTP         0.2010
     38 H2'        -0.0011    0.0027    0.0003 H         1 GTP        -0.0393
     39 HO2'       -0.6141    0.5574    2.1082 H         1 GTP         0.2010
     40 H1'         1.7826    1.9024    1.6451 H         1 GTP        -0.0393
     41 H8          0.7110    2.3472   -1.9295 H         1 GTP         0.0000
     42 HN1        -2.7504    5.7495    2.3282 H         1 GTP         0.0865
     43 HN21       -1.0467    3.8796    4.7190 H         1 GTP         0.2048
     44 HN22       -2.2294    5.1209    4.3680 H         1 GTP         0.2048
     45 H45        -1.0382    4.1687   -2.0954 H         1 GTP         0.2048
@<TRIPOS>BOND
     1    1    2 2
     2    1    3 1
     3    1    4 1
     4    1    5 1
     5    5    6 1
     6    6    7 2
     7    6    8 1
     8    6    9 1
     9    9   10 1
    10   10   11 2
    11   10   12 1
    12   10   13 1
    13   13   14 1
    14   14   15 1
    15   14   33 1
    16   14   34 1
    17   15   16 1
    18   15   17 1
    19   15   35 1
    20   16   21 1
    21   17   18 1
    22   17   19 1
    23   17   36 1
    24   18   37 1
    25   19   20 1
    26   19   21 1
    27   19   38 1
    28   20   39 1
    29   21   22 1
    30   21   40 1
    31   22   23 ar
    32   22   32 ar
    33   23   24 ar
    34   23   41 1
    35   24   25 ar
    36   24   45 1
    37   25   26 ar
    38   25   32 ar
    39   26   27 2
    40   26   28 ar
    41   28   29 ar
    42   28   42 1
    43   29   30 1
    44   29   31 ar
    45   30   43 1
    46   30   44 1
    47   31   32 ar
@<TRIPOS>SUBSTRUCTURE
     1 GTP         1 GROUP 0 A     ****
@<TRIPOS>MOLECULE
[[[5-(2-amino-6-oxo-7,8-dihydro-1~{H}-purin-8-ylium-9-yl)-3,4-dihydroxy-tetrahydrofuran-2-yl]methoxy-oxido-phosphoryl]oxy-oxido-phosphoryl] phosphate
   45    47     1     0     0
SMALL
USER_CHARGES

@<TRIPOS>ATOM
      1 PG         -2.0913   -5.6525   -3.3185 P.3       1 GTP        -1.1921
      2 O1G        -2.5443   -5.3689   -4.7469 O.co2     1 GTP         0.3195
      3 O2G        -1.2190   -6.8945   -3.1701 O.co2     1 GTP         0.3195
      4 O3G        -3.1984   -5.5369   -2.2759 O.co2     1 GTP         0.3195
      5 O3B        -1.0793   -4.4011   -2.9584 O.3       1 GTP         0.4672
      6 PB         -1.3677   -2.7934   -2.9239 P.3       1 GTP        -1.1062
      7 O1B        -1.6744   -2.3234   -4.3284 O.co2     1 GTP         0.3195
      8 O2B        -2.2887   -2.4804   -1.7659 O.co2     1 GTP         0.3195
      9 O3A         0.1165   -2.2716   -2.4876 O.3       1 GTP         0.4672
     10 PA          1.5549   -2.4565   -3.2403 P.3       1 GTP        -1.1062
     11 O1A         1.9145   -3.9262   -3.2244 O.co2     1 GTP         0.3195
     12 O2A         1.5418   -1.6690   -4.5324 O.co2     1 GTP         0.3195
     13 O5'         2.5245   -1.6648   -2.1878 O.3       1 GTP         0.1618
     14 C5'         2.2816   -0.2918   -1.9206 C.3       1 GTP         0.1504
     15 C4'         2.7248    0.0226   -0.4980 C.3       1 GTP         0.1111
     16 O4'         2.4697    1.4219   -0.2462 O.3       1 GTP        -0.1436
     17 C3'         1.9404   -0.7419    0.5596 C.3       1 GTP         0.1111
     18 O3'         2.7418   -0.8086    1.7389 O.3       1 GTP        -0.2728
     19 C2'         0.7477    0.1630    0.7858 C.3       1 GTP         0.1111
     20 O2'         0.1373   -0.0577    2.0407 O.3       1 GTP        -0.2728
     21 C1'         1.3733    1.5427    0.6747 C.3       1 GTP         0.2693
     22 N9          0.4520    2.5240    0.1767 N.pl3     1 GTP        -0.3222
     23 C8          0.2203    2.8205   -1.0970 C.ar      1 GTP         0.1640
     24 N7         -0.6947    3.7752   -1.2304 N.pl3     1 GTP        -0.3688
     25 C5         -1.0607    4.0987    0.0476 C.ar      1 GTP         0.0648
     26 C6         -2.0310    5.0839    0.5029 C.ar      1 GTP         0.3597
     27 O6         -2.6779    5.7867   -0.2609 O.2       1 GTP        -0.2755
     28 N1         -2.1030    5.0975    1.8948 N.pl3     1 GTP        -0.1604
     29 C2         -1.3422    4.2721    2.7403 C.ar      1 GTP         0.4468
     30 N2         -1.5624    4.4419    4.0823 N.pl3     1 GTP        -0.5618
     31 N3         -0.4796    3.3981    2.2792 N.2       1 GTP        -0.4283
     32 C4         -0.3754    3.3496    0.9208 C.ar      1 GTP         0.2226
     33 H5'         2.8432    0.3119   -2.6398 H         1 GTP        -0.0393
     34 H5''        1.2128   -0.0927   -2.0428 H         1 GTP        -0.0393
     35 H4'         3.8044   -0.1397   -0.4040 H         1 GTP        -0.0393
     36 H3'         1.6764   -1.7639    0.2728 H         1 GTP        -0.0393
     37 HO3'        2.2232   -1.2979    2.3953 H         1 GTP         0.2010
     38 H2'        -0.0011    0.0027    0.0003 H         1 GTP        -0.0393
     39 HO2'       -0.6141    0.5574    2.1082 H         1 GTP         0.2010
     40 H1'         1.7826    1.9024    1.6451 H         1 GTP        -0.0393
     41 H8          0.7110    2.3472   -1.9295 H         1 GTP         0.0000
     42 HN1        -2.7504    5.7495    2.3282 H         1 GTP         0.0865
     43 HN21       -1.0467    3.8796    4.7190 H         1 GTP         0.2048
     44 HN22       -2.2294    5.1209    4.3680 H         1 GTP         0.2048
     45 H45        -1.0382    4.1687   -2.0954 H         1 GTP         0.2048
@<TRIPOS>BOND
     1    1    2 2
     2    1    3 1
     3    1    4 1
     4    1    5 1
     5    5    6 1
     6    6    7 2
     7    6    8 1
     8    6    9 1
     9    9   10 1
    10   10   11 2
    11   10   12 1
    12   10   13 1
    13   13   14 1
    14   14   15 1
    15   14   33 1
    16   14   34 1
    17   15   16 1
    18   15   17 1
    19   15   35 1
    20   16   21 1
    21   17   18 1
    22   17   19 1
    23   17   36 1
    24   18   37 1
    25   19   20 1
    26   19   21 1
    27   19   38 1
    28   20   39 1
    29   21   22 1
    30   21   40 1
    31   22   23 ar
    32   22   32 ar
    33   23   24 ar
    34   23   41 1
    35   24   25 ar
    36   24   45 1
    37   25   26 ar
    38   25   32 ar
    39   26   27 2
    40   26   28 ar
    41   28   29 ar
    42   28   42 1
    43   29   30 1
    44   29   31 ar
    45   30   43 1
    46   30   44 1
    47   31   32 ar
@<TRIPOS>SUBSTRUCTURE
     1 GTP         1 GROUP 0 A     ****
@<TRIPOS>MOLECULE
[[[5-(2-amino-6-oxo-7,8-dihydro-1~{H}-purin-8-ylium-9-yl)-3,4-dihydroxy-tetrahydrofuran-2-yl]methoxy-oxido-phosphoryl]oxy-oxido-phosphoryl] phosphate
   45    47     1     0     0
SMALL
USER_CHARGES

@<TRIPOS>ATOM
      1 PG         -2.7402   -2.0247   -5.4497 P.3       1 GTP        -1.1921
      2 O1G        -3.9332   -1.4838   -4.6687 O.co2     1 GTP         0.3195
      3 O2G        -2.2536   -1.1097   -6.5684 O.co2     1 GTP         0.3195
      4 O3G        -2.8668   -3.4907   -5.8505 O.co2     1 GTP         0.3195
      5 O3B        -1.5051   -2.0207   -4.3568 O.3       1 GTP         0.4672
      6 PB         -1.3677   -2.7934   -2.9239 P.3       1 GTP        -1.1062
      7 O1B        -2.3991   -2.2352   -1.9689 O.co2     1 GTP         0.3195
      8 O2B        -1.2423   -4.2798   -3.1731 O.co2     1 GTP         0.3195
      9 O3A         0.1165   -2.2716   -2.4876 O.3       1 GTP         0.4672
     10 PA          1.5549   -2.4565   -3.2403 P.3       1 GTP        -1.1062
     11 O1A         1.9145   -3.9262   -3.2244 O.co2     1 GTP         0.3195
     12 O2A         1.5418   -1.6690   -4.5324 O.co2     1 GTP         0.3195
     13 O5'         2.5245   -1.6648   -2.1878 O.3       1 GTP         0.1618
     14 C5'         2.2816   -0.2918   -1.9206 C.3       1 GTP         0.1504
     15 C4'         2.7248    0.0226   -0.4980 C.3       1 GTP         0.1111
     16 O4'         2.4697    1.4219   -0.2462 O.3       1 GTP        -0.1436
     17 C3'         1.9404   -0.7419    0.5596 C.3       1 GTP         0.1111
     18 O3'         2.7418   -0.8086    1.7389 O.3       1 GTP        -0.2728
     19 C2'         0.7477    0.1630    0.7858 C.3       1 GTP         0.1111
     20 O2'         0.1373   -0.0577    2.0407 O.3       1 GTP        -0.2728
     21 C1'         1.3733    1.5427    0.6747 C.3       1 GTP         0.2693
     22 N9          0.4520    2.5240    0.1767 N.pl3     1 GTP        -0.3222
     23 C8          0.2203    2.8205   -1.0970 C.ar      1 GTP         0.1640
     24 N7         -0.6947    3.7752   -1.2304 N.pl3     1 GTP        -0.3688
     25 C5         -1.0607    4.0987    0.0476 C.ar      1 GTP         0.0648
     26 C6         -2.0310    5.0839    0.5029 C.ar      1 GTP         0.3597
     27 O6         -2.6779    5.7867   -0.2609 O.2       1 GTP        -0.2755
     28 N1         -2.1030    5.0975    1.8948 N.pl3     1 GTP        -0.1604
     29 C2         -1.3422    4.2721    2.7403 C.ar      1 GTP         0.4468
     30 N2         -1.5624    4.4419    4.0823 N.pl3     1 GTP        -0.5618
     31 N3         -0.4796    3.3981    2.2792 N.2       1 GTP        -0.4283
     32 C4         -0.3754    3.3496    0.9208 C.ar      1 GTP         0.2226
     33 H5'         2.8432    0.3119   -2.6398 H         1 GTP        -0.0393
     34 H5''        1.2128   -0.0927   -2.0428 H         1 GTP        -0.0393
     35 H4'         3.8044   -0.1397   -0.4040 H         1 GTP        -0.0393
     36 H3'         1.6764   -1.7639    0.2728 H         1 GTP        -0.0393
     37 HO3'        2.2232   -1.2979    2.3953 H         1 GTP         0.2010
     38 H2'        -0.0011    0.0027    0.0003 H         1 GTP        -0.0393
     39 HO2'       -0.6141    0.5574    2.1082 H         1 GTP         0.2010
     40 H1'         1.7826    1.9024    1.6451 H         1 GTP        -0.0393
     41 H8          0.7110    2.3472   -1.9295 H         1 GTP         0.0000
     42 HN1        -2.7504    5.7495    2.3282 H         1 GTP         0.0865
     43 HN21       -1.0467    3.8796    4.7190 H         1 GTP         0.2048
     44 HN22       -2.2294    5.1209    4.3680 H         1 GTP         0.2048
     45 H45        -1.0382    4.1687   -2.0954 H         1 GTP         0.2048
@<TRIPOS>BOND
     1    1    2 2
     2    1    3 1
     3    1    4 1
     4    1    5 1
     5    5    6 1
     6    6    7 2
     7    6    8 1
     8    6    9 1
     9    9   10 1
    10   10   11 2
    11   10   12 1
    12   10   13 1
    13   13   14 1
    14   14   15 1
    15   14   33 1
    16   14   34 1
    17   15   16 1
    18   15   17 1
    19   15   35 1
    20   16   21 1
    21   17   18 1
    22   17   19 1
    23   17   36 1
    24   18   37 1
    25   19   20 1
    26   19   21 1
    27   19   38 1
    28   20   39 1
    29   21   22 1
    30   21   40 1
    31   22   23 ar
    32   22   32 ar
    33   23   24 ar
    34   23   41 1
    35   24   25 ar
    36   24   45 1
    37   25   26 ar
    38   25   32 ar
    39   26   27 2
    40   26   28 ar
    41   28   29 ar
    42   28   42 1
    43   29   30 1
    44   29   31 ar
    45   30   43 1
    46   30   44 1
    47   31   32 ar
@<TRIPOS>SUBSTRUCTURE
     1 GTP         1 GROUP 0 A     ****
@<TRIPOS>MOLECULE
[[[5-(2-amino-6-oxo-7,8-dihydro-1~{H}-purin-8-ylium-9-yl)-3,4-dihydroxy-tetrahydrofuran-2-yl]methoxy-oxido-phosphoryl]oxy-oxido-phosphoryl] phosphate
   45    47     1     0     0
SMALL
USER_CHARGES

@<TRIPOS>ATOM
      1 PG         -4.7225   -4.7086   -2.8591 P.3       1 GTP        -1.1921
      2 O1G        -6.0878   -4.4391   -2.2354 O.co2     1 GTP         0.3195
      3 O2G        -4.1138   -3.5116   -3.5819 O.co2     1 GTP         0.3195
      4 O3G        -4.6361   -6.0187   -3.6351 O.co2     1 GTP         0.3195
      5 O3B        -3.7272   -4.9504   -1.5664 O.3       1 GTP         0.4672
      6 PB         -3.7999   -6.0710   -0.3799 P.3       1 GTP        -1.1062
      7 O1B        -5.0426   -5.8253    0.4465 O.co2     1 GTP         0.3195
      8 O2B        -3.4947   -7.4319   -0.9648 O.co2     1 GTP         0.3195
      9 O3A        -2.4814   -5.6302    0.4761 O.3       1 GTP         0.4672
     10 PA         -1.8559   -6.2737    1.8416 P.3       1 GTP        -1.1062
     11 O1A        -2.8374   -6.0417    2.9696 O.co2     1 GTP         0.3195
     12 O2A        -1.3268   -7.6587    1.5384 O.co2     1 GTP         0.3195
     13 O5'        -0.5687   -5.2869    2.0510 O.3       1 GTP         0.1618
     14 C5'        -0.7840   -3.8935    2.2172 C.3       1 GTP         0.1504
     15 C4'        -0.0724   -3.1466    1.1027 C.3       1 GTP         0.1111
     16 O4'        -0.8674   -3.1929   -0.0945 O.3       1 GTP        -0.1436
     17 C3'         0.1338   -1.6715    1.4027 C.3       1 GTP         0.1111
     18 O3'         1.2893   -1.4445    2.1808 O.3       1 GTP        -0.2728
     19 C2'         0.2158   -1.0724    0.0128 C.3       1 GTP         0.1111
     20 O2'         1.5141   -1.2448   -0.5513 O.3       1 GTP        -0.2728
     21 C1'        -0.7897   -1.9176   -0.7583 C.3       1 GTP         0.2693
     22 N9         -2.1040   -1.3333   -0.7704 N.pl3     1 GTP        -0.3222
     23 C8         -3.0597   -1.5109    0.1345 C.ar      1 GTP         0.1640
     24 N7         -4.1618   -0.8291   -0.1607 N.pl3     1 GTP        -0.3688
     25 C5         -3.8764   -0.1805   -1.3310 C.ar      1 GTP         0.0648
     26 C6         -4.7187    0.7111   -2.1152 C.ar      1 GTP         0.3597
     27 O6         -5.8617    1.0043   -1.7939 O.2       1 GTP        -0.2755
     28 N1         -4.0405    1.1608   -3.2468 N.pl3     1 GTP        -0.1604
     29 C2         -2.7239    0.8013   -3.5822 C.ar      1 GTP         0.4468
     30 N2         -2.2399    1.3534   -4.7394 N.pl3     1 GTP        -0.5618
     31 N3         -2.0053   -0.0071   -2.8402 N.2       1 GTP        -0.4283
     32 C4         -2.6290   -0.4727   -1.7210 C.ar      1 GTP         0.2226
     33 H5'        -1.8598   -3.6968    2.1850 H         1 GTP        -0.0393
     34 H5''       -0.3933   -3.5903    3.1931 H         1 GTP        -0.0393
     35 H4'         0.8874   -3.6466    0.8805 H         1 GTP        -0.0393
     36 H3'        -0.7376   -1.2333    1.9867 H         1 GTP        -0.0393
     37 HO3'        1.3408   -0.4870    2.3219 H         1 GTP         0.2010
     38 H2'        -0.0384   -0.0310    0.0096 H         1 GTP        -0.0393
     39 HO2'        2.1463   -0.7958    0.0370 H         1 GTP         0.2010
     40 H1'        -0.4769   -2.1002   -1.8093 H         1 GTP        -0.0393
     41 H8         -2.9610   -2.1316    1.0079 H         1 GTP         0.0000
     42 HN1        -4.5320    1.7923   -3.8726 H         1 GTP         0.0865
     43 HN21       -1.3128    1.1277   -5.0171 H         1 GTP         0.2048
     44 HN22       -2.8342    1.9586   -5.2572 H         1 GTP         0.2048
     45 H45        -5.0195   -0.8034    0.3729 H         1 GTP         0.2048
@<TRIPOS>BOND
     1    1    2 2
     2    1    3 1
     3    1    4 1
     4    1    5 1
     5    5    6 1
     6    6    7 2
     7    6    8 1
     8    6    9 1
     9    9   10 1
    10   10   11 2
    11   10   12 1
    12   10   13 1
    13   13   14 1
    14   14   15 1
    15   14   33 1
    16   14   34 1
    17   15   16 1
    18   15   17 1
    19   15   35 1
    20   16   21 1
    21   17   18 1
    22   17   19 1
    23   17   36 1
    24   18   37 1
    25   19   20 1
    26   19   21 1
    27   19   38 1
    28   20   39 1
    29   21   22 1
    30   21   40 1
    31   22   23 ar
    32   22   32 ar
    33   23   24 ar
    34   23   41 1
    35   24   25 ar
    36   24   45 1
    37   25   26 ar
    38   25   32 ar
    39   26   27 2
    40   26   28 ar
    41   28   29 ar
    42   28   42 1
    43   29   30 1
    44   29   31 ar
    45   30   43 1
    46   30   44 1
    47   31   32 ar
@<TRIPOS>SUBSTRUCTURE
     1 GTP         1 GROUP 0 A     ****
@<TRIPOS>MOLECULE
[[[5-(2-amino-6-oxo-7,8-dihydro-1~{H}-purin-8-ylium-9-yl)-3,4-dihydroxy-tetrahydrofuran-2-yl]methoxy-oxido-phosphoryl]oxy-oxido-phosphoryl] phosphate
   45    47     1     0     0
SMALL
USER_CHARGES

@<TRIPOS>ATOM
      1 PG          2.8700   -4.4643   -4.2324 P.3       1 GTP        -1.1921
      2 O1G         1.5914   -3.6580   -4.4350 O.co2     1 GTP         0.3195
      3 O2G         2.9583   -5.7275   -5.0820 O.co2     1 GTP         0.3195
      4 O3G         3.2594   -4.6640   -2.7714 O.co2     1 GTP         0.3195
      5 O3B         4.0611   -3.4913   -4.8278 O.3       1 GTP         0.4672
      6 PB          4.5160   -1.9894   -4.3734 P.3       1 GTP        -1.1062
      7 O1B         4.8121   -1.9982   -2.8902 O.co2     1 GTP         0.3195
      8 O2B         5.5112   -1.4491   -5.3759 O.co2     1 GTP         0.3195
      9 O3A         3.1131   -1.1992   -4.6435 O.3       1 GTP         0.4672
     10 PA          2.7413    0.3775   -4.4298 P.3       1 GTP        -1.1062
     11 O1A         3.7595    1.2116   -5.1762 O.co2     1 GTP         0.3195
     12 O2A         1.2573    0.5705   -4.6542 O.co2     1 GTP         0.3195
     13 O5'         3.0213    0.5153   -2.8245 O.3       1 GTP         0.1618
     14 C5'         2.2816   -0.2918   -1.9206 C.3       1 GTP         0.1504
     15 C4'         2.7248    0.0226   -0.4980 C.3       1 GTP         0.1111
     16 O4'         2.4697    1.4219   -0.2462 O.3       1 GTP        -0.1436
     17 C3'         1.9404   -0.7419    0.5596 C.3       1 GTP         0.1111
     18 O3'         2.7418   -0.8086    1.7389 O.3       1 GTP        -0.2728
     19 C2'         0.7477    0.1630    0.7858 C.3       1 GTP         0.1111
     20 O2'         0.1373   -0.0577    2.0407 O.3       1 GTP        -0.2728
     21 C1'         1.3733    1.5427    0.6747 C.3       1 GTP         0.2693
     22 N9          0.4520    2.5240    0.1767 N.pl3     1 GTP        -0.3222
     23 C8          0.2203    2.8205   -1.0970 C.ar      1 GTP         0.1640
     24 N7         -0.6947    3.7752   -1.2304 N.pl3     1 GTP        -0.3688
     25 C5         -1.0607    4.0987    0.0476 C.ar      1 GTP         0.0648
     26 C6         -2.0310    5.0839    0.5029 C.ar      1 GTP         0.3597
     27 O6         -2.6779    5.7867   -0.2609 O.2       1 GTP        -0.2755
     28 N1         -2.1030    5.0975    1.8948 N.pl3     1 GTP        -0.1604
     29 C2         -1.3422    4.2721    2.7403 C.ar      1 GTP         0.4468
     30 N2         -1.5624    4.4419    4.0823 N.pl3     1 GTP        -0.5618
     31 N3         -0.4796    3.3981    2.2792 N.2       1 GTP        -0.4283
     32 C4         -0.3754    3.3496    0.9208 C.ar      1 GTP         0.2226
     33 H5'         1.2163   -0.0770   -2.0471 H         1 GTP        -0.0393
     34 H5''        2.4655   -1.3443   -2.1563 H         1 GTP        -0.0393
     35 H4'         3.8044   -0.1397   -0.4040 H         1 GTP        -0.0393
     36 H3'         1.6764   -1.7639    0.2728 H         1 GTP        -0.0393
     37 HO3'        2.2232   -1.2979    2.3953 H         1 GTP         0.2010
     38 H2'        -0.0011    0.0027    0.0003 H         1 GTP        -0.0393
     39 HO2'       -0.6141    0.5574    2.1082 H         1 GTP         0.2010
     40 H1'         1.7826    1.9024    1.6451 H         1 GTP        -0.0393
     41 H8          0.7110    2.3472   -1.9295 H         1 GTP         0.0000
     42 HN1        -2.7504    5.7495    2.3282 H         1 GTP         0.0865
     43 HN21       -1.0467    3.8796    4.7190 H         1 GTP         0.2048
     44 HN22       -2.2294    5.1209    4.3680 H         1 GTP         0.2048
     45 H45        -1.0382    4.1687   -2.0954 H         1 GTP         0.2048
@<TRIPOS>BOND
     1    1    2 2
     2    1    3 1
     3    1    4 1
     4    1    5 1
     5    5    6 1
     6    6    7 2
     7    6    8 1
     8    6    9 1
     9    9   10 1
    10   10   11 2
    11   10   12 1
    12   10   13 1
    13   13   14 1
    14   14   15 1
    15   14   33 1
    16   14   34 1
    17   15   16 1
    18   15   17 1
    19   15   35 1
    20   16   21 1
    21   17   18 1
    22   17   19 1
    23   17   36 1
    24   18   37 1
    25   19   20 1
    26   19   21 1
    27   19   38 1
    28   20   39 1
    29   21   22 1
    30   21   40 1
    31   22   23 ar
    32   22   32 ar
    33   23   24 ar
    34   23   41 1
    35   24   25 ar
    36   24   45 1
    37   25   26 ar
    38   25   32 ar
    39   26   27 2
    40   26   28 ar
    41   28   29 ar
    42   28   42 1
    43   29   30 1
    44   29   31 ar
    45   30   43 1
    46   30   44 1
    47   31   32 ar
@<TRIPOS>SUBSTRUCTURE
     1 GTP         1 GROUP 0 A     ****
@<TRIPOS>MOLECULE
[[[5-(2-amino-6-oxo-7,8-dihydro-1~{H}-purin-8-ylium-9-yl)-3,4-dihydroxy-tetrahydrofuran-2-yl]methoxy-oxido-phosphoryl]oxy-oxido-phosphoryl] phosphate
   45    47     1     0     0
SMALL
USER_CHARGES

@<TRIPOS>ATOM
      1 PG          5.0712    0.5048   -7.7110 P.3       1 GTP        -1.1921
      2 O1G         3.9050    1.0239   -8.5454 O.co2     1 GTP         0.3195
      3 O2G         5.9909    1.5939   -7.1692 O.co2     1 GTP         0.3195
      4 O3G         5.8028   -0.6827   -8.3279 O.co2     1 GTP         0.3195
      5 O3B         4.3569   -0.1284   -6.3661 O.3       1 GTP         0.4672
      6 PB          3.2607   -1.3318   -6.2266 P.3       1 GTP        -1.1062
      7 O1B         1.9676   -0.8902   -6.8751 O.co2     1 GTP         0.3195
      8 O2B         3.9187   -2.6450   -6.5872 O.co2     1 GTP         0.3195
      9 O3A         3.0822   -1.3351   -4.6038 O.3       1 GTP         0.4672
     10 PA          2.1375   -2.2725   -3.6560 P.3       1 GTP        -1.1062
     11 O1A         0.6906   -1.9446   -3.9539 O.co2     1 GTP         0.3195
     12 O2A         2.6428   -3.6980   -3.7095 O.co2     1 GTP         0.3195
     13 O5'         2.5245   -1.6648   -2.1878 O.3       1 GTP         0.1618
     14 C5'         2.2816   -0.2918   -1.9206 C.3       1 GTP         0.1504
     15 C4'         2.7248    0.0226   -0.4980 C.3       1 GTP         0.1111
     16 O4'         2.4697    1.4219   -0.2462 O.3       1 GTP        -0.1436
     17 C3'         1.9404   -0.7419    0.5596 C.3       1 GTP         0.1111
     18 O3'         2.7418   -0.8086    1.7389 O.3       1 GTP        -0.2728
     19 C2'         0.7477    0.1630    0.7858 C.3       1 GTP         0.1111
     20 O2'         0.1373   -0.0577    2.0407 O.3       1 GTP        -0.2728
     21 C1'         1.3733    1.5427    0.6747 C.3       1 GTP         0.2693
     22 N9          0.4520    2.5240    0.1767 N.pl3     1 GTP        -0.3222
     23 C8          0.2203    2.8205   -1.0970 C.ar      1 GTP         0.1640
     24 N7         -0.6947    3.7752   -1.2304 N.pl3     1 GTP        -0.3688
     25 C5         -1.0607    4.0987    0.0476 C.ar      1 GTP         0.0648
     26 C6         -2.0310    5.0839    0.5029 C.ar      1 GTP         0.3597
     27 O6         -2.6779    5.7867   -0.2609 O.2       1 GTP        -0.2755
     28 N1         -2.1030    5.0975    1.8948 N.pl3     1 GTP        -0.1604
     29 C2         -1.3422    4.2721    2.7403 C.ar      1 GTP         0.4468
     30 N2         -1.5624    4.4419    4.0823 N.pl3     1 GTP        -0.5618
     31 N3         -0.4796    3.3981    2.2792 N.2       1 GTP        -0.4283
     32 C4         -0.3754    3.3496    0.9208 C.ar      1 GTP         0.2226
     33 H5'         2.8432    0.3119   -2.6398 H         1 GTP        -0.0393
     34 H5''        1.2128   -0.0927   -2.0428 H         1 GTP        -0.0393
     35 H4'         3.8044   -0.1397   -0.4040 H         1 GTP        -0.0393
     36 H3'         1.6764   -1.7639    0.2728 H         1 GTP        -0.0393
     37 HO3'        2.2232   -1.2979    2.3953 H         1 GTP         0.2010
     38 H2'        -0.0011    0.0027    0.0003 H         1 GTP        -0.0393
     39 HO2'       -0.6141    0.5574    2.1082 H         1 GTP         0.2010
     40 H1'         1.7826    1.9024    1.6451 H         1 GTP        -0.0393
     41 H8          0.7110    2.3472   -1.9295 H         1 GTP         0.0000
     42 HN1        -2.7504    5.7495    2.3282 H         1 GTP         0.0865
     43 HN21       -1.0467    3.8796    4.7190 H         1 GTP         0.2048
     44 HN22       -2.2294    5.1209    4.3680 H         1 GTP         0.2048
     45 H45        -1.0382    4.1687   -2.0954 H         1 GTP         0.2048
@<TRIPOS>BOND
     1    1    2 2
     2    1    3 1
     3    1    4 1
     4    1    5 1
     5    5    6 1
     6    6    7 2
     7    6    8 1
     8    6    9 1
     9    9   10 1
    10   10   11 2
    11   10   12 1
    12   10   13 1
    13   13   14 1
    14   14   15 1
    15   14   33 1
    16   14   34 1
    17   15   16 1
    18   15   17 1
    19   15   35 1
    20   16   21 1
    21   17   18 1
    22   17   19 1
    23   17   36 1
    24   18   37 1
    25   19   20 1
    26   19   21 1
    27   19   38 1
    28   20   39 1
    29   21   22 1
    30   21   40 1
    31   22   23 ar
    32   22   32 ar
    33   23   24 ar
    34   23   41 1
    35   24   25 ar
    36   24   45 1
    37   25   26 ar
    38   25   32 ar
    39   26   27 2
    40   26   28 ar
    41   28   29 ar
    42   28   42 1
    43   29   30 1
    44   29   31 ar
    45   30   43 1
    46   30   44 1
    47   31   32 ar
@<TRIPOS>SUBSTRUCTURE
     1 GTP         1 GROUP 0 A     ****
@<TRIPOS>MOLECULE
[[[5-(2-amino-6-oxo-7,8-dihydro-1~{H}-purin-8-ylium-9-yl)-3,4-dihydroxy-tetrahydrofuran-2-yl]methoxy-oxido-phosphoryl]oxy-oxido-phosphoryl] phosphate
   45    47     1     0     0
SMALL
USER_CHARGES

@<TRIPOS>ATOM
      1 PG          1.0522   -0.8271   -8.1558 P.3       1 GTP        -1.1921
      2 O1G         1.3051   -2.1675   -8.8378 O.co2     1 GTP         0.3195
      3 O2G        -0.4176   -0.5299   -7.8785 O.co2     1 GTP         0.3195
      4 O3G         1.8230    0.3401   -8.7636 O.co2     1 GTP         0.3195
      5 O3B         1.7198   -1.0023   -6.6580 O.3       1 GTP         0.4672
      6 PB          3.2607   -1.3318   -6.2266 P.3       1 GTP        -1.1062
      7 O1B         3.6109   -2.7256   -6.6980 O.co2     1 GTP         0.3195
      8 O2B         4.1329   -0.1417   -6.5585 O.co2     1 GTP         0.3195
      9 O3A         3.0822   -1.3351   -4.6038 O.3       1 GTP         0.4672
     10 PA          2.1375   -2.2725   -3.6560 P.3       1 GTP        -1.1062
     11 O1A         0.6906   -1.9446   -3.9539 O.co2     1 GTP         0.3195
     12 O2A         2.6428   -3.6980   -3.7095 O.co2     1 GTP         0.3195
     13 O5'         2.5245   -1.6648   -2.1878 O.3       1 GTP         0.1618
     14 C5'         2.2816   -0.2918   -1.9206 C.3       1 GTP         0.1504
     15 C4'         2.7248    0.0226   -0.4980 C.3       1 GTP         0.1111
     16 O4'         2.4697    1.4219   -0.2462 O.3       1 GTP        -0.1436
     17 C3'         1.9404   -0.7419    0.5596 C.3       1 GTP         0.1111
     18 O3'         2.7418   -0.8086    1.7389 O.3       1 GTP        -0.2728
     19 C2'         0.7477    0.1630    0.7858 C.3       1 GTP         0.1111
     20 O2'         0.1373   -0.0577    2.0407 O.3       1 GTP        -0.2728
     21 C1'         1.3733    1.5427    0.6747 C.3       1 GTP         0.2693
     22 N9          0.4520    2.5240    0.1767 N.pl3     1 GTP        -0.3222
     23 C8          0.2203    2.8205   -1.0970 C.ar      1 GTP         0.1640
     24 N7         -0.6947    3.7752   -1.2304 N.pl3     1 GTP        -0.3688
     25 C5         -1.0607    4.0987    0.0476 C.ar      1 GTP         0.0648
     26 C6         -2.0310    5.0839    0.5029 C.ar      1 GTP         0.3597
     27 O6         -2.6779    5.7867   -0.2609 O.2       1 GTP        -0.2755
     28 N1         -2.1030    5.0975    1.8948 N.pl3     1 GTP        -0.1604
     29 C2         -1.3422    4.2721    2.7403 C.ar      1 GTP         0.4468
     30 N2         -1.5624    4.4419    4.0823 N.pl3     1 GTP        -0.5618
     31 N3         -0.4796    3.3981    2.2792 N.2       1 GTP        -0.4283
     32 C4         -0.3754    3.3496    0.9208 C.ar      1 GTP         0.2226
     33 H5'         2.8432    0.3119   -2.6398 H         1 GTP        -0.0393
     34 H5''        1.2128   -0.0927   -2.0428 H         1 GTP        -0.0393
     35 H4'         3.8044   -0.1397   -0.4040 H         1 GTP        -0.0393
     36 H3'         1.6764   -1.7639    0.2728 H         1 GTP        -0.0393
     37 HO3'        2.2232   -1.2979    2.3953 H         1 GTP         0.2010
     38 H2'        -0.0011    0.0027    0.0003 H         1 GTP        -0.0393
     39 HO2'       -0.6141    0.5574    2.1082 H         1 GTP         0.2010
     40 H1'         1.7826    1.9024    1.6451 H         1 GTP        -0.0393
     41 H8          0.7110    2.3472   -1.9295 H         1 GTP         0.0000
     42 HN1        -2.7504    5.7495    2.3282 H         1 GTP         0.0865
     43 HN21       -1.0467    3.8796    4.7190 H         1 GTP         0.2048
     44 HN22       -2.2294    5.1209    4.3680 H         1 GTP         0.2048
     45 H45        -1.0382    4.1687   -2.0954 H         1 GTP         0.2048
@<TRIPOS>BOND
     1    1    2 2
     2    1    3 1
     3    1    4 1
     4    1    5 1
     5    5    6 1
     6    6    7 2
     7    6    8 1
     8    6    9 1
     9    9   10 1
    10   10   11 2
    11   10   12 1
    12   10   13 1
    13   13   14 1
    14   14   15 1
    15   14   33 1
    16   14   34 1
    17   15   16 1
    18   15   17 1
    19   15   35 1
    20   16   21 1
    21   17   18 1
    22   17   19 1
    23   17   36 1
    24   18   37 1
    25   19   20 1
    26   19   21 1
    27   19   38 1
    28   20   39 1
    29   21   22 1
    30   21   40 1
    31   22   23 ar
    32   22   32 ar
    33   23   24 ar
    34   23   41 1
    35   24   25 ar
    36   24   45 1
    37   25   26 ar
    38   25   32 ar
    39   26   27 2
    40   26   28 ar
    41   28   29 ar
    42   28   42 1
    43   29   30 1
    44   29   31 ar
    45   30   43 1
    46   30   44 1
    47   31   32 ar
@<TRIPOS>SUBSTRUCTURE
     1 GTP         1 GROUP 0 A     ****
@<TRIPOS>MOLECULE
[[[5-(2-amino-6-oxo-7,8-dihydro-1~{H}-purin-8-ylium-9-yl)-3,4-dihydroxy-tetrahydrofuran-2-yl]methoxy-oxido-phosphoryl]oxy-oxido-phosphoryl] phosphate
   45    47     1     0     0
SMALL
USER_CHARGES

@<TRIPOS>ATOM
      1 PG          0.5291    2.6911   -8.0724 P.3       1 GTP        -1.1921
      2 O1G        -0.8310    3.3381   -7.8326 O.co2     1 GTP         0.3195
      3 O2G         1.6575    3.6808   -8.3424 O.co2     1 GTP         0.3195
      4 O3G         0.4973    1.5022   -9.0270 O.co2     1 GTP         0.3195
      5 O3B         0.9196    2.0182   -6.6183 O.3       1 GTP         0.4672
      6 PB          0.1382    0.8813   -5.7431 P.3       1 GTP        -1.1062
      7 O1B        -1.1867    1.4470   -5.2823 O.co2     1 GTP         0.3195
      8 O2B         0.2243   -0.4450   -6.4649 O.co2     1 GTP         0.3195
      9 O3A         1.1591    0.7827   -4.4728 O.3       1 GTP         0.4672
     10 PA          2.7413    0.3775   -4.4298 P.3       1 GTP        -1.1062
     11 O1A         2.8705   -1.0776   -4.8246 O.co2     1 GTP         0.3195
     12 O2A         3.5462    1.4514   -5.1291 O.co2     1 GTP         0.3195
     13 O5'         3.0213    0.5153   -2.8245 O.3       1 GTP         0.1618
     14 C5'         2.2816   -0.2918   -1.9206 C.3       1 GTP         0.1504
     15 C4'         2.7248    0.0226   -0.4980 C.3       1 GTP         0.1111
     16 O4'         2.4697    1.4219   -0.2462 O.3       1 GTP        -0.1436
     17 C3'         1.9404   -0.7419    0.5596 C.3       1 GTP         0.1111
     18 O3'         2.7418   -0.8086    1.7389 O.3       1 GTP        -0.2728
     19 C2'         0.7477    0.1630    0.7858 C.3       1 GTP         0.1111
     20 O2'         0.1373   -0.0577    2.0407 O.3       1 GTP        -0.2728
     21 C1'         1.3733    1.5427    0.6747 C.3       1 GTP         0.2693
     22 N9          0.4520    2.5240    0.1767 N.pl3     1 GTP        -0.3222
     23 C8         -0.6818    2.9109    0.7501 C.ar      1 GTP         0.1640
     24 N7         -1.3103    3.8415    0.0391 N.pl3     1 GTP        -0.3688
     25 C5         -0.5155    4.0512   -1.0547 C.ar      1 GTP         0.0648
     26 C6         -0.7125    4.9651   -2.1705 C.ar      1 GTP         0.3597
     27 O6         -1.6819    5.7047   -2.2651 O.2       1 GTP        -0.2755
     28 N1          0.3401    4.8672   -3.0790 N.pl3     1 GTP        -0.1604
     29 C2          1.4396    4.0039   -2.9348 C.ar      1 GTP         0.4468
     30 N2          2.3679    4.0602   -3.9414 N.pl3     1 GTP        -0.5618
     31 N3          1.5708    3.1983   -1.9080 N.2       1 GTP        -0.4283
     32 C4          0.5630    3.2599   -0.9921 C.ar      1 GTP         0.2226
     33 H5'         1.2163   -0.0770   -2.0471 H         1 GTP        -0.0393
     34 H5''        2.4655   -1.3443   -2.1563 H         1 GTP        -0.0393
     35 H4'         3.8044   -0.1397   -0.4040 H         1 GTP        -0.0393
     36 H3'         1.6764   -1.7639    0.2728 H         1 GTP        -0.0393
     37 HO3'        2.2232   -1.2979    2.3953 H         1 GTP         0.2010
     38 H2'        -0.0011    0.0027    0.0003 H         1 GTP        -0.0393
     39 HO2'       -0.1563   -0.9855    2.0596 H         1 GTP         0.2010
     40 H1'         1.7826    1.9024    1.6451 H         1 GTP        -0.0393
     41 H8         -1.0545    2.5222    1.6816 H         1 GTP         0.0000
     42 HN1         0.3104    5.4612   -3.9026 H         1 GTP         0.0865
     43 HN21        3.1632    3.4672   -3.8824 H         1 GTP         0.2048
     44 HN22        2.2108    4.6918   -4.6924 H         1 GTP         0.2048
     45 H45        -2.1863    4.2902    0.2681 H         1 GTP         0.2048
@<TRIPOS>BOND
     1    1    2 2
     2    1    3 1
     3    1    4 1
     4    1    5 1
     5    5    6 1
     6    6    7 2
     7    6    8 1
     8    6    9 1
     9    9   10 1
    10   10   11 2
    11   10   12 1
    12   10   13 1
    13   13   14 1
    14   14   15 1
    15   14   33 1
    16   14   34 1
    17   15   16 1
    18   15   17 1
    19   15   35 1
    20   16   21 1
    21   17   18 1
    22   17   19 1
    23   17   36 1
    24   18   37 1
    25   19   20 1
    26   19   21 1
    27   19   38 1
    28   20   39 1
    29   21   22 1
    30   21   40 1
    31   22   23 ar
    32   22   32 ar
    33   23   24 ar
    34   23   41 1
    35   24   25 ar
    36   24   45 1
    37   25   26 ar
    38   25   32 ar
    39   26   27 2
    40   26   28 ar
    41   28   29 ar
    42   28   42 1
    43   29   30 1
    44   29   31 ar
    45   30   43 1
    46   30   44 1
    47   31   32 ar
@<TRIPOS>SUBSTRUCTURE
     1 GTP         1 GROUP 0 A     ****
@<TRIPOS>MOLECULE
[[[5-(2-amino-6-oxo-7,8-dihydro-1~{H}-purin-8-ylium-9-yl)-3,4-dihydroxy-tetrahydrofuran-2-yl]methoxy-oxido-phosphoryl]oxy-oxido-phosphoryl] phosphate
   45    47     1     0     0
SMALL
USER_CHARGES

@<TRIPOS>ATOM
      1 PG          6.6123   -3.1865   -2.6171 P.3       1 GTP        -1.1921
      2 O1G         5.9767   -2.0831   -1.7778 O.co2     1 GTP         0.3195
      3 O2G         6.7789   -4.5151   -1.8873 O.co2     1 GTP         0.3195
      4 O3G         7.8426   -2.7454   -3.4031 O.co2     1 GTP         0.3195
      5 O3B         5.4918   -3.5034   -3.7850 O.3       1 GTP         0.4672
      6 PB          4.8525   -2.5198   -4.9221 P.3       1 GTP        -1.1062
      7 O1B         5.9792   -1.8918   -5.7119 O.co2     1 GTP         0.3195
      8 O2B         3.7077   -3.2328   -5.6065 O.co2     1 GTP         0.3195
      9 O3A         4.1798   -1.3965   -3.9468 O.3       1 GTP         0.4672
     10 PA          3.3347   -0.0507   -4.3265 P.3       1 GTP        -1.1062
     11 O1A         4.2665    0.9141   -5.0270 O.co2     1 GTP         0.3195
     12 O2A         2.0155   -0.4540   -4.9486 O.co2     1 GTP         0.3195
     13 O5'         3.0213    0.5153   -2.8245 O.3       1 GTP         0.1618
     14 C5'         2.2816   -0.2918   -1.9206 C.3       1 GTP         0.1504
     15 C4'         2.7248    0.0226   -0.4980 C.3       1 GTP         0.1111
     16 O4'         2.4697    1.4219   -0.2462 O.3       1 GTP        -0.1436
     17 C3'         1.9404   -0.7419    0.5596 C.3       1 GTP         0.1111
     18 O3'         2.7418   -0.8086    1.7389 O.3       1 GTP        -0.2728
     19 C2'         0.7477    0.1630    0.7858 C.3       1 GTP         0.1111
     20 O2'         0.1373   -0.0577    2.0407 O.3       1 GTP        -0.2728
     21 C1'         1.3733    1.5427    0.6747 C.3       1 GTP         0.2693
     22 N9          0.4520    2.5240    0.1767 N.pl3     1 GTP        -0.3222
     23 C8          0.2203    2.8205   -1.0970 C.ar      1 GTP         0.1640
     24 N7         -0.6947    3.7752   -1.2304 N.pl3     1 GTP        -0.3688
     25 C5         -1.0607    4.0987    0.0476 C.ar      1 GTP         0.0648
     26 C6         -2.0310    5.0839    0.5029 C.ar      1 GTP         0.3597
     27 O6         -2.6779    5.7867   -0.2609 O.2       1 GTP        -0.2755
     28 N1         -2.1030    5.0975    1.8948 N.pl3     1 GTP        -0.1604
     29 C2         -1.3422    4.2721    2.7403 C.ar      1 GTP         0.4468
     30 N2         -1.5624    4.4419    4.0823 N.pl3     1 GTP        -0.5618
     31 N3         -0.4796    3.3981    2.2792 N.2       1 GTP        -0.4283
     32 C4         -0.3754    3.3496    0.9208 C.ar      1 GTP         0.2226
     33 H5'         1.2163   -0.0770   -2.0471 H         1 GTP        -0.0393
     34 H5''        2.4655   -1.3443   -2.1563 H         1 GTP        -0.0393
     35 H4'         3.8044   -0.1397   -0.4040 H         1 GTP        -0.0393
     36 H3'         1.6764   -1.7639    0.2728 H         1 GTP        -0.0393
     37 HO3'        2.2232   -1.2979    2.3953 H         1 GTP         0.2010
     38 H2'        -0.0011    0.0027    0.0003 H         1 GTP        -0.0393
     39 HO2'       -0.6141    0.5574    2.1082 H         1 GTP         0.2010
     40 H1'         1.7826    1.9024    1.6451 H         1 GTP        -0.0393
     41 H8          0.7110    2.3472   -1.9295 H         1 GTP         0.0000
     42 HN1        -2.7504    5.7495    2.3282 H         1 GTP         0.0865
     43 HN21       -1.0467    3.8796    4.7190 H         1 GTP         0.2048
     44 HN22       -2.2294    5.1209    4.3680 H         1 GTP         0.2048
     45 H45        -1.0382    4.1687   -2.0954 H         1 GTP         0.2048
@<TRIPOS>BOND
     1    1    2 2
     2    1    3 1
     3    1    4 1
     4    1    5 1
     5    5    6 1
     6    6    7 2
     7    6    8 1
     8    6    9 1
     9    9   10 1
    10   10   11 2
    11   10   12 1
    12   10   13 1
    13   13   14 1
    14   14   15 1
    15   14   33 1
    16   14   34 1
    17   15   16 1
    18   15   17 1
    19   15   35 1
    20   16   21 1
    21   17   18 1
    22   17   19 1
    23   17   36 1
    24   18   37 1
    25   19   20 1
    26   19   21 1
    27   19   38 1
    28   20   39 1
    29   21   22 1
    30   21   40 1
    31   22   23 ar
    32   22   32 ar
    33   23   24 ar
    34   23   41 1
    35   24   25 ar
    36   24   45 1
    37   25   26 ar
    38   25   32 ar
    39   26   27 2
    40   26   28 ar
    41   28   29 ar
    42   28   42 1
    43   29   30 1
    44   29   31 ar
    45   30   43 1
    46   30   44 1
    47   31   32 ar
@<TRIPOS>SUBSTRUCTURE
     1 GTP         1 GROUP 0 A     ****
@<TRIPOS>MOLECULE
[[[5-(2-amino-6-oxo-7,8-dihydro-1~{H}-purin-8-ylium-9-yl)-3,4-dihydroxy-tetrahydrofuran-2-yl]methoxy-oxido-phosphoryl]oxy-oxido-phosphoryl] phosphate
   45    47     1     0     0
SMALL
USER_CHARGES

@<TRIPOS>ATOM
      1 PG          4.2090   -3.6630   -7.8142 P.3       1 GTP        -1.1921
      2 O1G         5.3528   -2.8375   -8.3939 O.co2     1 GTP         0.3195
      3 O2G         4.6161   -5.0519   -7.3338 O.co2     1 GTP         0.3195
      4 O3G         2.9332   -3.6385   -8.6495 O.co2     1 GTP         0.3195
      5 O3B         3.7911   -2.8631   -6.4339 O.3       1 GTP         0.4672
      6 PB          3.2607   -1.3318   -6.2266 P.3       1 GTP        -1.1062
      7 O1B         4.3690   -0.3766   -6.6098 O.co2     1 GTP         0.3195
      8 O2B         1.8708   -1.2062   -6.8096 O.co2     1 GTP         0.3195
      9 O3A         3.0822   -1.3351   -4.6038 O.3       1 GTP         0.4672
     10 PA          2.1375   -2.2725   -3.6560 P.3       1 GTP        -1.1062
     11 O1A         0.6906   -1.9446   -3.9539 O.co2     1 GTP         0.3195
     12 O2A         2.6428   -3.6980   -3.7095 O.co2     1 GTP         0.3195
     13 O5'         2.5245   -1.6648   -2.1878 O.3       1 GTP         0.1618
     14 C5'         2.2816   -0.2918   -1.9206 C.3       1 GTP         0.1504
     15 C4'         2.7248    0.0226   -0.4980 C.3       1 GTP         0.1111
     16 O4'         2.4697    1.4219   -0.2462 O.3       1 GTP        -0.1436
     17 C3'         1.9404   -0.7419    0.5596 C.3       1 GTP         0.1111
     18 O3'         2.7418   -0.8086    1.7389 O.3       1 GTP        -0.2728
     19 C2'         0.7477    0.1630    0.7858 C.3       1 GTP         0.1111
     20 O2'         0.1373   -0.0577    2.0407 O.3       1 GTP        -0.2728
     21 C1'         1.3733    1.5427    0.6747 C.3       1 GTP         0.2693
     22 N9          0.4520    2.5240    0.1767 N.pl3     1 GTP        -0.3222
     23 C8          0.2203    2.8205   -1.0970 C.ar      1 GTP         0.1640
     24 N7         -0.6947    3.7752   -1.2304 N.pl3     1 GTP        -0.3688
     25 C5         -1.0607    4.0987    0.0476 C.ar      1 GTP         0.0648
     26 C6         -2.0310    5.0839    0.5029 C.ar      1 GTP         0.3597
     27 O6         -2.6779    5.7867   -0.2609 O.2       1 GTP        -0.2755
     28 N1         -2.1030    5.0975    1.8948 N.pl3     1 GTP        -0.1604
     29 C2         -1.3422    4.2721    2.7403 C.ar      1 GTP         0.4468
     30 N2         -1.5624    4.4419    4.0823 N.pl3     1 GTP        -0.5618
     31 N3         -0.4796    3.3981    2.2792 N.2       1 GTP        -0.4283
     32 C4         -0.3754    3.3496    0.9208 C.ar      1 GTP         0.2226
     33 H5'         2.8432    0.3119   -2.6398 H         1 GTP        -0.0393
     34 H5''        1.2128   -0.0927   -2.0428 H         1 GTP        -0.0393
     35 H4'         3.8044   -0.1397   -0.4040 H         1 GTP        -0.0393
     36 H3'         1.6764   -1.7639    0.2728 H         1 GTP        -0.0393
     37 HO3'        2.2232   -1.2979    2.3953 H         1 GTP         0.2010
     38 H2'        -0.0011    0.0027    0.0003 H         1 GTP        -0.0393
     39 HO2'       -0.6141    0.5574    2.1082 H         1 GTP         0.2010
     40 H1'         1.7826    1.9024    1.6451 H         1 GTP        -0.0393
     41 H8          0.7110    2.3472   -1.9295 H         1 GTP         0.0000
     42 HN1        -2.7504    5.7495    2.3282 H         1 GTP         0.0865
     43 HN21       -1.0467    3.8796    4.7190 H         1 GTP         0.2048
     44 HN22       -2.2294    5.1209    4.3680 H         1 GTP         0.2048
     45 H45        -1.0382    4.1687   -2.0954 H         1 GTP         0.2048
@<TRIPOS>BOND
     1    1    2 2
     2    1    3 1
     3    1    4 1
     4    1    5 1
     5    5    6 1
     6    6    7 2
     7    6    8 1
     8    6    9 1
     9    9   10 1
    10   10   11 2
    11   10   12 1
    12   10   13 1
    13   13   14 1
    14   14   15 1
    15   14   33 1
    16   14   34 1
    17   15   16 1
    18   15   17 1
    19   15   35 1
    20   16   21 1
    21   17   18 1
    22   17   19 1
    23   17   36 1
    24   18   37 1
    25   19   20 1
    26   19   21 1
    27   19   38 1
    28   20   39 1
    29   21   22 1
    30   21   40 1
    31   22   23 ar
    32   22   32 ar
    33   23   24 ar
    34   23   41 1
    35   24   25 ar
    36   24   45 1
    37   25   26 ar
    38   25   32 ar
    39   26   27 2
    40   26   28 ar
    41   28   29 ar
    42   28   42 1
    43   29   30 1
    44   29   31 ar
    45   30   43 1
    46   30   44 1
    47   31   32 ar
@<TRIPOS>SUBSTRUCTURE
     1 GTP         1 GROUP 0 A     ****
@<TRIPOS>MOLECULE
[[[5-(2-amino-6-oxo-7,8-dihydro-1~{H}-purin-8-ylium-9-yl)-3,4-dihydroxy-tetrahydrofuran-2-yl]methoxy-oxido-phosphoryl]oxy-oxido-phosphoryl] phosphate
   45    47     1     0     0
SMALL
USER_CHARGES

@<TRIPOS>ATOM
      1 PG          1.8806    1.1428   -6.4708 P.3       1 GTP        -1.1921
      2 O1G         2.3976    1.2395   -5.0393 O.co2     1 GTP         0.3195
      3 O2G         2.7929    1.7804   -7.5134 O.co2     1 GTP         0.3195
      4 O3G         0.4057    1.4969   -6.6291 O.co2     1 GTP         0.3195
      5 O3B         1.9375   -0.4692   -6.8141 O.3       1 GTP         0.4672
      6 PB          1.1907   -1.7257   -6.0842 P.3       1 GTP        -1.1062
      7 O1B        -0.2963   -1.4522   -6.0450 O.co2     1 GTP         0.3195
      8 O2B         1.7430   -3.0198   -6.6389 O.co2     1 GTP         0.3195
      9 O3A         1.8135   -1.5634   -4.5838 O.3       1 GTP         0.4672
     10 PA          1.5549   -2.4565   -3.2403 P.3       1 GTP        -1.1062
     11 O1A         0.1153   -2.2683   -2.8139 O.co2     1 GTP         0.3195
     12 O2A         2.1346   -3.8391   -3.4462 O.co2     1 GTP         0.3195
     13 O5'         2.5245   -1.6648   -2.1878 O.3       1 GTP         0.1618
     14 C5'         2.2816   -0.2918   -1.9206 C.3       1 GTP         0.1504
     15 C4'         2.7248    0.0226   -0.4980 C.3       1 GTP         0.1111
     16 O4'         2.4697    1.4219   -0.2462 O.3       1 GTP        -0.1436
     17 C3'         1.9404   -0.7419    0.5596 C.3       1 GTP         0.1111
     18 O3'         2.7418   -0.8086    1.7389 O.3       1 GTP        -0.2728
     19 C2'         0.7477    0.1630    0.7858 C.3       1 GTP         0.1111
     20 O2'         0.1373   -0.0577    2.0407 O.3       1 GTP        -0.2728
     21 C1'         1.3733    1.5427    0.6747 C.3       1 GTP         0.2693
     22 N9          0.4520    2.5240    0.1767 N.pl3     1 GTP        -0.3222
     23 C8          0.2203    2.8205   -1.0970 C.ar      1 GTP         0.1640
     24 N7         -0.6947    3.7752   -1.2304 N.pl3     1 GTP        -0.3688
     25 C5         -1.0607    4.0987    0.0476 C.ar      1 GTP         0.0648
     26 C6         -2.0310    5.0839    0.5029 C.ar      1 GTP         0.3597
     27 O6         -2.6779    5.7867   -0.2609 O.2       1 GTP        -0.2755
     28 N1         -2.1030    5.0975    1.8948 N.pl3     1 GTP        -0.1604
     29 C2         -1.3422    4.2721    2.7403 C.ar      1 GTP         0.4468
     30 N2         -1.5624    4.4419    4.0823 N.pl3     1 GTP        -0.5618
     31 N3         -0.4796    3.3981    2.2792 N.2       1 GTP        -0.4283
     32 C4         -0.3754    3.3496    0.9208 C.ar      1 GTP         0.2226
     33 H5'         2.8432    0.3119   -2.6398 H         1 GTP        -0.0393
     34 H5''        1.2128   -0.0927   -2.0428 H         1 GTP        -0.0393
     35 H4'         3.8044   -0.1397   -0.4040 H         1 GTP        -0.0393
     36 H3'         1.6764   -1.7639    0.2728 H         1 GTP        -0.0393
     37 HO3'        2.2232   -1.2979    2.3953 H         1 GTP         0.2010
     38 H2'        -0.0011    0.0027    0.0003 H         1 GTP        -0.0393
     39 HO2'       -0.6141    0.5574    2.1082 H         1 GTP         0.2010
     40 H1'         1.7826    1.9024    1.6451 H         1 GTP        -0.0393
     41 H8          0.7110    2.3472   -1.9295 H         1 GTP         0.0000
     42 HN1        -2.7504    5.7495    2.3282 H         1 GTP         0.0865
     43 HN21       -1.0467    3.8796    4.7190 H         1 GTP         0.2048
     44 HN22       -2.2294    5.1209    4.3680 H         1 GTP         0.2048
     45 H45        -1.0382    4.1687   -2.0954 H         1 GTP         0.2048
@<TRIPOS>BOND
     1    1    2 2
     2    1    3 1
     3    1    4 1
     4    1    5 1
     5    5    6 1
     6    6    7 2
     7    6    8 1
     8    6    9 1
     9    9   10 1
    10   10   11 2
    11   10   12 1
    12   10   13 1
    13   13   14 1
    14   14   15 1
    15   14   33 1
    16   14   34 1
    17   15   16 1
    18   15   17 1
    19   15   35 1
    20   16   21 1
    21   17   18 1
    22   17   19 1
    23   17   36 1
    24   18   37 1
    25   19   20 1
    26   19   21 1
    27   19   38 1
    28   20   39 1
    29   21   22 1
    30   21   40 1
    31   22   23 ar
    32   22   32 ar
    33   23   24 ar
    34   23   41 1
    35   24   25 ar
    36   24   45 1
    37   25   26 ar
    38   25   32 ar
    39   26   27 2
    40   26   28 ar
    41   28   29 ar
    42   28   42 1
    43   29   30 1
    44   29   31 ar
    45   30   43 1
    46   30   44 1
    47   31   32 ar
@<TRIPOS>SUBSTRUCTURE
     1 GTP         1 GROUP 0 A     ****
@<TRIPOS>MOLECULE
[[[5-(2-amino-6-oxo-7,8-dihydro-1~{H}-purin-8-ylium-9-yl)-3,4-dihydroxy-tetrahydrofuran-2-yl]methoxy-oxido-phosphoryl]oxy-oxido-phosphoryl] phosphate
   45    47     1     0     0
SMALL
USER_CHARGES

@<TRIPOS>ATOM
      1 PG          0.3843   -3.2495   -5.1726 P.3       1 GTP        -1.1921
      2 O1G         0.3359   -2.3281   -3.9583 O.co2     1 GTP         0.3195
      3 O2G        -0.9333   -3.3580   -5.9327 O.co2     1 GTP         0.3195
      4 O3G         1.0715   -4.5868   -4.9169 O.co2     1 GTP         0.3195
      5 O3B         1.3965   -2.4814   -6.2239 O.3       1 GTP         0.4672
      6 PB          2.9619   -2.0480   -6.0480 P.3       1 GTP        -1.1062
      7 O1B         3.7639   -3.2686   -5.6549 O.co2     1 GTP         0.3195
      8 O2B         3.3683   -1.1761   -7.2151 O.co2     1 GTP         0.3195
      9 O3A         2.8145   -1.0558   -4.7598 O.3       1 GTP         0.4672
     10 PA          3.9556   -0.2056   -3.9568 P.3       1 GTP        -1.1062
     11 O1A         4.8843   -1.1846   -3.2722 O.co2     1 GTP         0.3195
     12 O2A         4.4944    0.8789   -4.8642 O.co2     1 GTP         0.3195
     13 O5'         3.0213    0.5153   -2.8245 O.3       1 GTP         0.1618
     14 C5'         2.2816   -0.2918   -1.9206 C.3       1 GTP         0.1504
     15 C4'         2.7248    0.0226   -0.4980 C.3       1 GTP         0.1111
     16 O4'         2.4697    1.4219   -0.2462 O.3       1 GTP        -0.1436
     17 C3'         1.9404   -0.7419    0.5596 C.3       1 GTP         0.1111
     18 O3'         2.7418   -0.8086    1.7389 O.3       1 GTP        -0.2728
     19 C2'         0.7477    0.1630    0.7858 C.3       1 GTP         0.1111
     20 O2'         0.1373   -0.0577    2.0407 O.3       1 GTP        -0.2728
     21 C1'         1.3733    1.5427    0.6747 C.3       1 GTP         0.2693
     22 N9          0.4520    2.5240    0.1767 N.pl3     1 GTP        -0.3222
     23 C8          0.2203    2.8205   -1.0970 C.ar      1 GTP         0.1640
     24 N7         -0.6947    3.7752   -1.2304 N.pl3     1 GTP        -0.3688
     25 C5         -1.0607    4.0987    0.0476 C.ar      1 GTP         0.0648
     26 C6         -2.0310    5.0839    0.5029 C.ar      1 GTP         0.3597
     27 O6         -2.6779    5.7867   -0.2609 O.2       1 GTP        -0.2755
     28 N1         -2.1030    5.0975    1.8948 N.pl3     1 GTP        -0.1604
     29 C2         -1.3422    4.2721    2.7403 C.ar      1 GTP         0.4468
     30 N2         -1.5624    4.4419    4.0823 N.pl3     1 GTP        -0.5618
     31 N3         -0.4796    3.3981    2.2792 N.2       1 GTP        -0.4283
     32 C4         -0.3754    3.3496    0.9208 C.ar      1 GTP         0.2226
     33 H5'         1.2163   -0.0770   -2.0471 H         1 GTP        -0.0393
     34 H5''        2.4655   -1.3443   -2.1563 H         1 GTP        -0.0393
     35 H4'         3.8044   -0.1397   -0.4040 H         1 GTP        -0.0393
     36 H3'         1.6764   -1.7639    0.2728 H         1 GTP        -0.0393
     37 HO3'        2.2232   -1.2979    2.3953 H         1 GTP         0.2010
     38 H2'        -0.0011    0.0027    0.0003 H         1 GTP        -0.0393
     39 HO2'       -0.6141    0.5574    2.1082 H         1 GTP         0.2010
     40 H1'         1.7826    1.9024    1.6451 H         1 GTP        -0.0393
     41 H8          0.7110    2.3472   -1.9295 H         1 GTP         0.0000
     42 HN1        -2.7504    5.7495    2.3282 H         1 GTP         0.0865
     43 HN21       -1.0467    3.8796    4.7190 H         1 GTP         0.2048
     44 HN22       -2.2294    5.1209    4.3680 H         1 GTP         0.2048
     45 H45        -1.0382    4.1687   -2.0954 H         1 GTP         0.2048
@<TRIPOS>BOND
     1    1    2 2
     2    1    3 1
     3    1    4 1
     4    1    5 1
     5    5    6 1
     6    6    7 2
     7    6    8 1
     8    6    9 1
     9    9   10 1
    10   10   11 2
    11   10   12 1
    12   10   13 1
    13   13   14 1
    14   14   15 1
    15   14   33 1
    16   14   34 1
    17   15   16 1
    18   15   17 1
    19   15   35 1
    20   16   21 1
    21   17   18 1
    22   17   19 1
    23   17   36 1
    24   18   37 1
    25   19   20 1
    26   19   21 1
    27   19   38 1
    28   20   39 1
    29   21   22 1
    30   21   40 1
    31   22   23 ar
    32   22   32 ar
    33   23   24 ar
    34   23   41 1
    35   24   25 ar
    36   24   45 1
    37   25   26 ar
    38   25   32 ar
    39   26   27 2
    40   26   28 ar
    41   28   29 ar
    42   28   42 1
    43   29   30 1
    44   29   31 ar
    45   30   43 1
    46   30   44 1
    47   31   32 ar
@<TRIPOS>SUBSTRUCTURE
     1 GTP         1 GROUP 0 A     ****
@<TRIPOS>MOLECULE
[[[5-(2-amino-6-oxo-7,8-dihydro-1~{H}-purin-8-ylium-9-yl)-3,4-dihydroxy-tetrahydrofuran-2-yl]methoxy-oxido-phosphoryl]oxy-oxido-phosphoryl] phosphate
   45    47     1     0     0
SMALL
USER_CHARGES

@<TRIPOS>ATOM
      1 PG         -7.0810   -3.4307    0.7758 P.3       1 GTP        -1.1921
      2 O1G        -7.6929   -3.1747    2.1491 O.co2     1 GTP         0.3195
      3 O2G        -6.8460   -2.1721   -0.0526 O.co2     1 GTP         0.3195
      4 O3G        -7.7298   -4.5755    0.0048 O.co2     1 GTP         0.3195
      5 O3B        -5.5643   -3.9879    1.1055 O.3       1 GTP         0.4672
      6 PB         -5.0888   -5.3010    1.9533 P.3       1 GTP        -1.1062
      7 O1B        -5.4858   -5.1160    3.4010 O.co2     1 GTP         0.3195
      8 O2B        -5.4612   -6.5486    1.1838 O.co2     1 GTP         0.3195
      9 O3A        -3.4713   -5.1341    1.8072 O.3       1 GTP         0.4672
     10 PA         -2.2649   -6.0688    2.3909 P.3       1 GTP        -1.1062
     11 O1A        -2.2781   -5.9742    3.9010 O.co2     1 GTP         0.3195
     12 O2A        -2.2962   -7.4104    1.6916 O.co2     1 GTP         0.3195
     13 O5'        -0.9724   -5.2440    1.8220 O.3       1 GTP         0.1618
     14 C5'        -0.7840   -3.8935    2.2172 C.3       1 GTP         0.1504
     15 C4'        -0.0724   -3.1466    1.1027 C.3       1 GTP         0.1111
     16 O4'        -0.8674   -3.1929   -0.0945 O.3       1 GTP        -0.1436
     17 C3'         0.1338   -1.6715    1.4027 C.3       1 GTP         0.1111
     18 O3'         1.2893   -1.4445    2.1808 O.3       1 GTP        -0.2728
     19 C2'         0.2158   -1.0724    0.0128 C.3       1 GTP         0.1111
     20 O2'         1.5141   -1.2448   -0.5513 O.3       1 GTP        -0.2728
     21 C1'        -0.7897   -1.9176   -0.7583 C.3       1 GTP         0.2693
     22 N9         -2.1040   -1.3333   -0.7704 N.pl3     1 GTP        -0.3222
     23 C8         -3.0597   -1.5109    0.1345 C.ar      1 GTP         0.1640
     24 N7         -4.1618   -0.8291   -0.1607 N.pl3     1 GTP        -0.3688
     25 C5         -3.8764   -0.1805   -1.3310 C.ar      1 GTP         0.0648
     26 C6         -4.7187    0.7111   -2.1152 C.ar      1 GTP         0.3597
     27 O6         -5.8617    1.0043   -1.7939 O.2       1 GTP        -0.2755
     28 N1         -4.0405    1.1608   -3.2468 N.pl3     1 GTP        -0.1604
     29 C2         -2.7239    0.8013   -3.5822 C.ar      1 GTP         0.4468
     30 N2         -2.2399    1.3534   -4.7394 N.pl3     1 GTP        -0.5618
     31 N3         -2.0053   -0.0071   -2.8402 N.2       1 GTP        -0.4283
     32 C4         -2.6290   -0.4727   -1.7210 C.ar      1 GTP         0.2226
     33 H5'        -1.7618   -3.4448    2.4164 H         1 GTP        -0.0393
     34 H5''       -0.1874   -3.8744    3.1341 H         1 GTP        -0.0393
     35 H4'         0.8874   -3.6466    0.8805 H         1 GTP        -0.0393
     36 H3'        -0.7376   -1.2333    1.9867 H         1 GTP        -0.0393
     37 HO3'        1.3408   -0.4870    2.3219 H         1 GTP         0.2010
     38 H2'        -0.0384   -0.0310    0.0096 H         1 GTP        -0.0393
     39 HO2'        2.1463   -0.7958    0.0370 H         1 GTP         0.2010
     40 H1'        -0.4769   -2.1002   -1.8093 H         1 GTP        -0.0393
     41 H8         -2.9610   -2.1316    1.0079 H         1 GTP         0.0000
     42 HN1        -4.5320    1.7923   -3.8726 H         1 GTP         0.0865
     43 HN21       -1.3128    1.1277   -5.0171 H         1 GTP         0.2048
     44 HN22       -2.8342    1.9586   -5.2572 H         1 GTP         0.2048
     45 H45        -5.0195   -0.8034    0.3729 H         1 GTP         0.2048
@<TRIPOS>BOND
     1    1    2 2
     2    1    3 1
     3    1    4 1
     4    1    5 1
     5    5    6 1
     6    6    7 2
     7    6    8 1
     8    6    9 1
     9    9   10 1
    10   10   11 2
    11   10   12 1
    12   10   13 1
    13   13   14 1
    14   14   15 1
    15   14   33 1
    16   14   34 1
    17   15   16 1
    18   15   17 1
    19   15   35 1
    20   16   21 1
    21   17   18 1
    22   17   19 1
    23   17   36 1
    24   18   37 1
    25   19   20 1
    26   19   21 1
    27   19   38 1
    28   20   39 1
    29   21   22 1
    30   21   40 1
    31   22   23 ar
    32   22   32 ar
    33   23   24 ar
    34   23   41 1
    35   24   25 ar
    36   24   45 1
    37   25   26 ar
    38   25   32 ar
    39   26   27 2
    40   26   28 ar
    41   28   29 ar
    42   28   42 1
    43   29   30 1
    44   29   31 ar
    45   30   43 1
    46   30   44 1
    47   31   32 ar
@<TRIPOS>SUBSTRUCTURE
     1 GTP         1 GROUP 0 A     ****
@<TRIPOS>MOLECULE
[[[5-(2-amino-6-oxo-7,8-dihydro-1~{H}-purin-8-ylium-9-yl)-3,4-dihydroxy-tetrahydrofuran-2-yl]methoxy-oxido-phosphoryl]oxy-oxido-phosphoryl] phosphate
   45    47     1     0     0
SMALL
USER_CHARGES

@<TRIPOS>ATOM
      1 PG         -2.0001    1.2230   -6.3981 P.3       1 GTP        -1.1921
      2 O1G        -1.5877    2.1842   -7.5079 O.co2     1 GTP         0.3195
      3 O2G        -2.0556   -0.2408   -6.8221 O.co2     1 GTP         0.3195
      4 O3G        -3.2048    1.6852   -5.5849 O.co2     1 GTP         0.3195
      5 O3B        -0.7515    1.2862   -5.3225 O.3       1 GTP         0.4672
      6 PB         -0.1493    2.5533   -4.4853 P.3       1 GTP        -1.1062
      7 O1B         0.4583    3.5367   -5.4605 O.co2     1 GTP         0.3195
      8 O2B        -1.1621    2.9888   -3.4499 O.co2     1 GTP         0.3195
      9 O3A         1.0413    1.7867   -3.6727 O.3       1 GTP         0.4672
     10 PA          2.3343    0.9640   -4.2391 P.3       1 GTP        -1.1062
     11 O1A         1.8353   -0.2731   -4.9534 O.co2     1 GTP         0.3195
     12 O2A         3.2774    1.9324   -4.9195 O.co2     1 GTP         0.3195
     13 O5'         3.0213    0.5153   -2.8245 O.3       1 GTP         0.1618
     14 C5'         2.2816   -0.2918   -1.9206 C.3       1 GTP         0.1504
     15 C4'         2.7248    0.0226   -0.4980 C.3       1 GTP         0.1111
     16 O4'         2.4697    1.4219   -0.2462 O.3       1 GTP        -0.1436
     17 C3'         1.9404   -0.7419    0.5596 C.3       1 GTP         0.1111
     18 O3'         2.7418   -0.8086    1.7389 O.3       1 GTP        -0.2728
     19 C2'         0.7477    0.1630    0.7858 C.3       1 GTP         0.1111
     20 O2'         0.1373   -0.0577    2.0407 O.3       1 GTP        -0.2728
     21 C1'         1.3733    1.5427    0.6747 C.3       1 GTP         0.2693
     22 N9          0.4520    2.5240    0.1767 N.pl3     1 GTP        -0.3222
     23 C8         -0.8613    2.5511    0.3730 C.ar      1 GTP         0.1640
     24 N7         -1.4346    3.5939   -0.2188 N.pl3     1 GTP        -0.3688
     25 C5         -0.4099    4.2657   -0.8276 C.ar      1 GTP         0.0648
     26 C6         -0.4554    5.4854   -1.6209 C.ar      1 GTP         0.3597
     27 O6         -1.4907    6.0944   -1.8508 O.2       1 GTP        -0.2755
     28 N1          0.8205    5.8357   -2.0593 N.pl3     1 GTP        -0.1604
     29 C2          1.9890    5.1091   -1.7730 C.ar      1 GTP         0.4468
     30 N2          3.1452    5.6230   -2.2997 N.pl3     1 GTP        -0.5618
     31 N3          1.9765    4.0139   -1.0514 N.2       1 GTP        -0.4283
     32 C4          0.7480    3.6324   -0.6003 C.ar      1 GTP         0.2226
     33 H5'         1.2163   -0.0770   -2.0471 H         1 GTP        -0.0393
     34 H5''        2.4655   -1.3443   -2.1563 H         1 GTP        -0.0393
     35 H4'         3.8044   -0.1397   -0.4040 H         1 GTP        -0.0393
     36 H3'         1.6764   -1.7639    0.2728 H         1 GTP        -0.0393
     37 HO3'        2.2232   -1.2979    2.3953 H         1 GTP         0.2010
     38 H2'        -0.0011    0.0027    0.0003 H         1 GTP        -0.0393
     39 HO2'       -0.1563   -0.9855    2.0596 H         1 GTP         0.2010
     40 H1'         1.7826    1.9024    1.6451 H         1 GTP        -0.0393
     41 H8         -1.4050    1.8187    0.9438 H         1 GTP         0.0000
     42 HN1         0.9121    6.6744   -2.6251 H         1 GTP         0.0865
     43 HN21        3.9971    5.1427   -2.1235 H         1 GTP         0.2048
     44 HN22        3.0881    6.4564   -2.8380 H         1 GTP         0.2048
     45 H45        -2.4173    3.8294   -0.2127 H         1 GTP         0.2048
@<TRIPOS>BOND
     1    1    2 2
     2    1    3 1
     3    1    4 1
     4    1    5 1
     5    5    6 1
     6    6    7 2
     7    6    8 1
     8    6    9 1
     9    9   10 1
    10   10   11 2
    11   10   12 1
    12   10   13 1
    13   13   14 1
    14   14   15 1
    15   14   33 1
    16   14   34 1
    17   15   16 1
    18   15   17 1
    19   15   35 1
    20   16   21 1
    21   17   18 1
    22   17   19 1
    23   17   36 1
    24   18   37 1
    25   19   20 1
    26   19   21 1
    27   19   38 1
    28   20   39 1
    29   21   22 1
    30   21   40 1
    31   22   23 ar
    32   22   32 ar
    33   23   24 ar
    34   23   41 1
    35   24   25 ar
    36   24   45 1
    37   25   26 ar
    38   25   32 ar
    39   26   27 2
    40   26   28 ar
    41   28   29 ar
    42   28   42 1
    43   29   30 1
    44   29   31 ar
    45   30   43 1
    46   30   44 1
    47   31   32 ar
@<TRIPOS>SUBSTRUCTURE
     1 GTP         1 GROUP 0 A     ****
@<TRIPOS>MOLECULE
[[[5-(2-amino-6-oxo-7,8-dihydro-1~{H}-purin-8-ylium-9-yl)-3,4-dihydroxy-tetrahydrofuran-2-yl]methoxy-oxido-phosphoryl]oxy-oxido-phosphoryl] phosphate
   45    47     1     0     0
SMALL
USER_CHARGES

@<TRIPOS>ATOM
      1 PG          7.1838   -1.0187   -6.0487 P.3       1 GTP        -1.1921
      2 O1G         7.6601   -2.4312   -6.3712 O.co2     1 GTP         0.3195
      3 O2G         7.0795   -0.0982   -7.2601 O.co2     1 GTP         0.3195
      4 O3G         7.8676   -0.3880   -4.8402 O.co2     1 GTP         0.3195
      5 O3B         5.6225   -1.2200   -5.5571 O.3       1 GTP         0.4672
      6 PB          5.0166   -2.0887   -4.3131 P.3       1 GTP        -1.1062
      7 O1B         5.2692   -3.5566   -4.5757 O.co2     1 GTP         0.3195
      8 O2B         5.4218   -1.4365   -3.0101 O.co2     1 GTP         0.3195
      9 O3A         3.4295   -1.7646   -4.5176 O.3       1 GTP         0.4672
     10 PA          2.1375   -2.2725   -3.6560 P.3       1 GTP        -1.1062
     11 O1A         0.9094   -1.5552   -4.1728 O.co2     1 GTP         0.3195
     12 O2A         2.1749   -3.7817   -3.5514 O.co2     1 GTP         0.3195
     13 O5'         2.5245   -1.6648   -2.1878 O.3       1 GTP         0.1618
     14 C5'         2.2816   -0.2918   -1.9206 C.3       1 GTP         0.1504
     15 C4'         2.7248    0.0226   -0.4980 C.3       1 GTP         0.1111
     16 O4'         2.4697    1.4219   -0.2462 O.3       1 GTP        -0.1436
     17 C3'         1.9404   -0.7419    0.5596 C.3       1 GTP         0.1111
     18 O3'         2.7418   -0.8086    1.7389 O.3       1 GTP        -0.2728
     19 C2'         0.7477    0.1630    0.7858 C.3       1 GTP         0.1111
     20 O2'         0.1373   -0.0577    2.0407 O.3       1 GTP        -0.2728
     21 C1'         1.3733    1.5427    0.6747 C.3       1 GTP         0.2693
     22 N9          0.4520    2.5240    0.1767 N.pl3     1 GTP        -0.3222
     23 C8          0.2203    2.8205   -1.0970 C.ar      1 GTP         0.1640
     24 N7         -0.6947    3.7752   -1.2304 N.pl3     1 GTP        -0.3688
     25 C5         -1.0607    4.0987    0.0476 C.ar      1 GTP         0.0648
     26 C6         -2.0310    5.0839    0.5029 C.ar      1 GTP         0.3597
     27 O6         -2.6779    5.7867   -0.2609 O.2       1 GTP        -0.2755
     28 N1         -2.1030    5.0975    1.8948 N.pl3     1 GTP        -0.1604
     29 C2         -1.3422    4.2721    2.7403 C.ar      1 GTP         0.4468
     30 N2         -1.5624    4.4419    4.0823 N.pl3     1 GTP        -0.5618
     31 N3         -0.4796    3.3981    2.2792 N.2       1 GTP        -0.4283
     32 C4         -0.3754    3.3496    0.9208 C.ar      1 GTP         0.2226
     33 H5'         2.8432    0.3119   -2.6398 H         1 GTP        -0.0393
     34 H5''        1.2128   -0.0927   -2.0428 H         1 GTP        -0.0393
     35 H4'         3.8044   -0.1397   -0.4040 H         1 GTP        -0.0393
     36 H3'         1.6764   -1.7639    0.2728 H         1 GTP        -0.0393
     37 HO3'        2.2232   -1.2979    2.3953 H         1 GTP         0.2010
     38 H2'        -0.0011    0.0027    0.0003 H         1 GTP        -0.0393
     39 HO2'       -0.1563   -0.9855    2.0596 H         1 GTP         0.2010
     40 H1'         1.7826    1.9024    1.6451 H         1 GTP        -0.0393
     41 H8          0.7110    2.3472   -1.9295 H         1 GTP         0.0000
     42 HN1        -2.7504    5.7495    2.3282 H         1 GTP         0.0865
     43 HN21       -1.0467    3.8796    4.7190 H         1 GTP         0.2048
     44 HN22       -2.2294    5.1209    4.3680 H         1 GTP         0.2048
     45 H45        -1.0382    4.1687   -2.0954 H         1 GTP         0.2048
@<TRIPOS>BOND
     1    1    2 2
     2    1    3 1
     3    1    4 1
     4    1    5 1
     5    5    6 1
     6    6    7 2
     7    6    8 1
     8    6    9 1
     9    9   10 1
    10   10   11 2
    11   10   12 1
    12   10   13 1
    13   13   14 1
    14   14   15 1
    15   14   33 1
    16   14   34 1
    17   15   16 1
    18   15   17 1
    19   15   35 1
    20   16   21 1
    21   17   18 1
    22   17   19 1
    23   17   36 1
    24   18   37 1
    25   19   20 1
    26   19   21 1
    27   19   38 1
    28   20   39 1
    29   21   22 1
    30   21   40 1
    31   22   23 ar
    32   22   32 ar
    33   23   24 ar
    34   23   41 1
    35   24   25 ar
    36   24   45 1
    37   25   26 ar
    38   25   32 ar
    39   26   27 2
    40   26   28 ar
    41   28   29 ar
    42   28   42 1
    43   29   30 1
    44   29   31 ar
    45   30   43 1
    46   30   44 1
    47   31   32 ar
@<TRIPOS>SUBSTRUCTURE
     1 GTP         1 GROUP 0 A     ****
@<TRIPOS>MOLECULE
[[[5-(2-amino-6-oxo-7,8-dihydro-1~{H}-purin-8-ylium-9-yl)-3,4-dihydroxy-tetrahydrofuran-2-yl]methoxy-oxido-phosphoryl]oxy-oxido-phosphoryl] phosphate
   45    47     1     0     0
SMALL
USER_CHARGES

@<TRIPOS>ATOM
      1 PG          8.6046   -1.1865   -4.9262 P.3       1 GTP        -1.1921
      2 O1G         8.3432   -2.2647   -5.9726 O.co2     1 GTP         0.3195
      3 O2G         8.9401    0.1838   -5.5051 O.co2     1 GTP         0.3195
      4 O3G         9.5202   -1.6268   -3.7887 O.co2     1 GTP         0.3195
      5 O3B         7.1429   -0.9701   -4.1937 O.3       1 GTP         0.4672
      6 PB          6.2089   -2.0337   -3.3779 P.3       1 GTP        -1.1062
      7 O1B         5.7253   -3.0953   -4.3406 O.co2     1 GTP         0.3195
      8 O2B         6.8913   -2.3961   -2.0778 O.co2     1 GTP         0.3195
      9 O3A         4.9683   -1.0464   -2.9888 O.3       1 GTP         0.4672
     10 PA          3.9556   -0.2056   -3.9568 P.3       1 GTP        -1.1062
     11 O1A         4.7578    0.8568   -4.6761 O.co2     1 GTP         0.3195
     12 O2A         3.0820   -1.1766   -4.7210 O.co2     1 GTP         0.3195
     13 O5'         3.0213    0.5153   -2.8245 O.3       1 GTP         0.1618
     14 C5'         2.2816   -0.2918   -1.9206 C.3       1 GTP         0.1504
     15 C4'         2.7248    0.0226   -0.4980 C.3       1 GTP         0.1111
     16 O4'         2.4697    1.4219   -0.2462 O.3       1 GTP        -0.1436
     17 C3'         1.9404   -0.7419    0.5596 C.3       1 GTP         0.1111
     18 O3'         2.7418   -0.8086    1.7389 O.3       1 GTP        -0.2728
     19 C2'         0.7477    0.1630    0.7858 C.3       1 GTP         0.1111
     20 O2'         0.1373   -0.0577    2.0407 O.3       1 GTP        -0.2728
     21 C1'         1.3733    1.5427    0.6747 C.3       1 GTP         0.2693
     22 N9          0.4520    2.5240    0.1767 N.pl3     1 GTP        -0.3222
     23 C8          0.2203    2.8205   -1.0970 C.ar      1 GTP         0.1640
     24 N7         -0.6947    3.7752   -1.2304 N.pl3     1 GTP        -0.3688
     25 C5         -1.0607    4.0987    0.0476 C.ar      1 GTP         0.0648
     26 C6         -2.0310    5.0839    0.5029 C.ar      1 GTP         0.3597
     27 O6         -2.6779    5.7867   -0.2609 O.2       1 GTP        -0.2755
     28 N1         -2.1030    5.0975    1.8948 N.pl3     1 GTP        -0.1604
     29 C2         -1.3422    4.2721    2.7403 C.ar      1 GTP         0.4468
     30 N2         -1.5624    4.4419    4.0823 N.pl3     1 GTP        -0.5618
     31 N3         -0.4796    3.3981    2.2792 N.2       1 GTP        -0.4283
     32 C4         -0.3754    3.3496    0.9208 C.ar      1 GTP         0.2226
     33 H5'         1.2163   -0.0770   -2.0471 H         1 GTP        -0.0393
     34 H5''        2.4655   -1.3443   -2.1563 H         1 GTP        -0.0393
     35 H4'         3.8044   -0.1397   -0.4040 H         1 GTP        -0.0393
     36 H3'         1.6764   -1.7639    0.2728 H         1 GTP        -0.0393
     37 HO3'        2.2232   -1.2979    2.3953 H         1 GTP         0.2010
     38 H2'        -0.0011    0.0027    0.0003 H         1 GTP        -0.0393
     39 HO2'       -0.6141    0.5574    2.1082 H         1 GTP         0.2010
     40 H1'         1.7826    1.9024    1.6451 H         1 GTP        -0.0393
     41 H8          0.7110    2.3472   -1.9295 H         1 GTP         0.0000
     42 HN1        -2.7504    5.7495    2.3282 H         1 GTP         0.0865
     43 HN21       -1.0467    3.8796    4.7190 H         1 GTP         0.2048
     44 HN22       -2.2294    5.1209    4.3680 H         1 GTP         0.2048
     45 H45        -1.0382    4.1687   -2.0954 H         1 GTP         0.2048
@<TRIPOS>BOND
     1    1    2 2
     2    1    3 1
     3    1    4 1
     4    1    5 1
     5    5    6 1
     6    6    7 2
     7    6    8 1
     8    6    9 1
     9    9   10 1
    10   10   11 2
    11   10   12 1
    12   10   13 1
    13   13   14 1
    14   14   15 1
    15   14   33 1
    16   14   34 1
    17   15   16 1
    18   15   17 1
    19   15   35 1
    20   16   21 1
    21   17   18 1
    22   17   19 1
    23   17   36 1
    24   18   37 1
    25   19   20 1
    26   19   21 1
    27   19   38 1
    28   20   39 1
    29   21   22 1
    30   21   40 1
    31   22   23 ar
    32   22   32 ar
    33   23   24 ar
    34   23   41 1
    35   24   25 ar
    36   24   45 1
    37   25   26 ar
    38   25   32 ar
    39   26   27 2
    40   26   28 ar
    41   28   29 ar
    42   28   42 1
    43   29   30 1
    44   29   31 ar
    45   30   43 1
    46   30   44 1
    47   31   32 ar
@<TRIPOS>SUBSTRUCTURE
     1 GTP         1 GROUP 0 A     ****
@<TRIPOS>MOLECULE
[[[5-(2-amino-6-oxo-7,8-dihydro-1~{H}-purin-8-ylium-9-yl)-3,4-dihydroxy-tetrahydrofuran-2-yl]methoxy-oxido-phosphoryl]oxy-oxido-phosphoryl] phosphate
   45    47     1     0     0
SMALL
USER_CHARGES

@<TRIPOS>ATOM
      1 PG          5.6234    4.5978   -4.5486 P.3       1 GTP        -1.1921
      2 O1G         6.4111    4.3381   -3.2688 O.co2     1 GTP         0.3195
      3 O2G         6.3578    4.2126   -5.8284 O.co2     1 GTP         0.3195
      4 O3G         4.9479    5.9642   -4.6016 O.co2     1 GTP         0.3195
      5 O3B         4.3623    3.5379   -4.4703 O.3       1 GTP         0.4672
      6 PB          3.1800    3.3927   -3.3522 P.3       1 GTP        -1.1062
      7 O1B         3.8002    2.9669   -2.0401 O.co2     1 GTP         0.3195
      8 O2B         2.2637    4.5927   -3.4419 O.co2     1 GTP         0.3195
      9 O3A         2.3614    2.1374   -3.9999 O.3       1 GTP         0.4672
     10 PA          2.8629    0.6171   -4.3271 P.3       1 GTP        -1.1062
     11 O1A         1.6662   -0.1919   -4.7776 O.co2     1 GTP         0.3195
     12 O2A         4.1227    0.6810   -5.1632 O.co2     1 GTP         0.3195
     13 O5'         3.2903    0.1346   -2.8241 O.3       1 GTP         0.1618
     14 C5'         2.2816   -0.2918   -1.9206 C.3       1 GTP         0.1504
     15 C4'         2.7248    0.0226   -0.4980 C.3       1 GTP         0.1111
     16 O4'         2.4697    1.4219   -0.2462 O.3       1 GTP        -0.1436
     17 C3'         1.9404   -0.7419    0.5596 C.3       1 GTP         0.1111
     18 O3'         2.7418   -0.8086    1.7389 O.3       1 GTP        -0.2728
     19 C2'         0.7477    0.1630    0.7858 C.3       1 GTP         0.1111
     20 O2'         0.1373   -0.0577    2.0407 O.3       1 GTP        -0.2728
     21 C1'         1.3733    1.5427    0.6747 C.3       1 GTP         0.2693
     22 N9          0.4520    2.5240    0.1767 N.pl3     1 GTP        -0.3222
     23 C8          0.2203    2.8205   -1.0970 C.ar      1 GTP         0.1640
     24 N7         -0.6947    3.7752   -1.2304 N.pl3     1 GTP        -0.3688
     25 C5         -1.0607    4.0987    0.0476 C.ar      1 GTP         0.0648
     26 C6         -2.0310    5.0839    0.5029 C.ar      1 GTP         0.3597
     27 O6         -2.6779    5.7867   -0.2609 O.2       1 GTP        -0.2755
     28 N1         -2.1030    5.0975    1.8948 N.pl3     1 GTP        -0.1604
     29 C2         -1.3422    4.2721    2.7403 C.ar      1 GTP         0.4468
     30 N2         -1.5624    4.4419    4.0823 N.pl3     1 GTP        -0.5618
     31 N3         -0.4796    3.3981    2.2792 N.2       1 GTP        -0.4283
     32 C4         -0.3754    3.3496    0.9208 C.ar      1 GTP         0.2226
     33 H5'         1.3514    0.2330   -2.1577 H         1 GTP        -0.0393
     34 H5''        2.1280   -1.3678   -2.0460 H         1 GTP        -0.0393
     35 H4'         3.8044   -0.1397   -0.4040 H         1 GTP        -0.0393
     36 H3'         1.6764   -1.7639    0.2728 H         1 GTP        -0.0393
     37 HO3'        2.2232   -1.2979    2.3953 H         1 GTP         0.2010
     38 H2'        -0.0011    0.0027    0.0003 H         1 GTP        -0.0393
     39 HO2'       -0.6141    0.5574    2.1082 H         1 GTP         0.2010
     40 H1'         1.7826    1.9024    1.6451 H         1 GTP        -0.0393
     41 H8          0.7110    2.3472   -1.9295 H         1 GTP         0.0000
     42 HN1        -2.7504    5.7495    2.3282 H         1 GTP         0.0865
     43 HN21       -1.0467    3.8796    4.7190 H         1 GTP         0.2048
     44 HN22       -2.2294    5.1209    4.3680 H         1 GTP         0.2048
     45 H45        -1.0382    4.1687   -2.0954 H         1 GTP         0.2048
@<TRIPOS>BOND
     1    1    2 2
     2    1    3 1
     3    1    4 1
     4    1    5 1
     5    5    6 1
     6    6    7 2
     7    6    8 1
     8    6    9 1
     9    9   10 1
    10   10   11 2
    11   10   12 1
    12   10   13 1
    13   13   14 1
    14   14   15 1
    15   14   33 1
    16   14   34 1
    17   15   16 1
    18   15   17 1
    19   15   35 1
    20   16   21 1
    21   17   18 1
    22   17   19 1
    23   17   36 1
    24   18   37 1
    25   19   20 1
    26   19   21 1
    27   19   38 1
    28   20   39 1
    29   21   22 1
    30   21   40 1
    31   22   23 ar
    32   22   32 ar
    33   23   24 ar
    34   23   41 1
    35   24   25 ar
    36   24   45 1
    37   25   26 ar
    38   25   32 ar
    39   26   27 2
    40   26   28 ar
    41   28   29 ar
    42   28   42 1
    43   29   30 1
    44   29   31 ar
    45   30   43 1
    46   30   44 1
    47   31   32 ar
@<TRIPOS>SUBSTRUCTURE
     1 GTP         1 GROUP 0 A     ****
@<TRIPOS>MOLECULE
[[[5-(2-amino-6-oxo-7,8-dihydro-1~{H}-purin-8-ylium-9-yl)-3,4-dihydroxy-tetrahydrofuran-2-yl]methoxy-oxido-phosphoryl]oxy-oxido-phosphoryl] phosphate
   45    47     1     0     0
SMALL
USER_CHARGES

@<TRIPOS>ATOM
      1 PG          7.2953   -0.1889   -3.4925 P.3       1 GTP        -1.1921
      2 O1G         8.1445   -1.4234   -3.7767 O.co2     1 GTP         0.3195
      3 O2G         8.0647    1.1271   -3.5350 O.co2     1 GTP         0.3195
      4 O3G         6.3649   -0.3316   -2.2926 O.co2     1 GTP         0.3195
      5 O3B         6.2675   -0.0992   -4.7791 O.3       1 GTP         0.4672
      6 PB          5.1593   -1.1733   -5.3153 P.3       1 GTP        -1.1062
      7 O1B         4.3825   -0.5454   -6.4511 O.co2     1 GTP         0.3195
      8 O2B         5.8132   -2.5295   -5.4583 O.co2     1 GTP         0.3195
      9 O3A         4.2121   -1.2550   -3.9881 O.3       1 GTP         0.4672
     10 PA          2.8604   -2.1325   -3.7186 P.3       1 GTP        -1.1062
     11 O1A         1.7706   -1.6210   -4.6353 O.co2     1 GTP         0.3195
     12 O2A         3.2235   -3.6010   -3.6797 O.co2     1 GTP         0.3195
     13 O5'         2.5245   -1.6648   -2.1878 O.3       1 GTP         0.1618
     14 C5'         2.2816   -0.2918   -1.9206 C.3       1 GTP         0.1504
     15 C4'         2.7248    0.0226   -0.4980 C.3       1 GTP         0.1111
     16 O4'         2.4697    1.4219   -0.2462 O.3       1 GTP        -0.1436
     17 C3'         1.9404   -0.7419    0.5596 C.3       1 GTP         0.1111
     18 O3'         2.7418   -0.8086    1.7389 O.3       1 GTP        -0.2728
     19 C2'         0.7477    0.1630    0.7858 C.3       1 GTP         0.1111
     20 O2'         0.1373   -0.0577    2.0407 O.3       1 GTP        -0.2728
     21 C1'         1.3733    1.5427    0.6747 C.3       1 GTP         0.2693
     22 N9          0.4520    2.5240    0.1767 N.pl3     1 GTP        -0.3222
     23 C8          0.2203    2.8205   -1.0970 C.ar      1 GTP         0.1640
     24 N7         -0.6947    3.7752   -1.2304 N.pl3     1 GTP        -0.3688
     25 C5         -1.0607    4.0987    0.0476 C.ar      1 GTP         0.0648
     26 C6         -2.0310    5.0839    0.5029 C.ar      1 GTP         0.3597
     27 O6         -2.6779    5.7867   -0.2609 O.2       1 GTP        -0.2755
     28 N1         -2.1030    5.0975    1.8948 N.pl3     1 GTP        -0.1604
     29 C2         -1.3422    4.2721    2.7403 C.ar      1 GTP         0.4468
     30 N2         -1.5624    4.4419    4.0823 N.pl3     1 GTP        -0.5618
     31 N3         -0.4796    3.3981    2.2792 N.2       1 GTP        -0.4283
     32 C4         -0.3754    3.3496    0.9208 C.ar      1 GTP         0.2226
     33 H5'         2.8432    0.3119   -2.6398 H         1 GTP        -0.0393
     34 H5''        1.2128   -0.0927   -2.0428 H         1 GTP        -0.0393
     35 H4'         3.8044   -0.1397   -0.4040 H         1 GTP        -0.0393
     36 H3'         1.6764   -1.7639    0.2728 H         1 GTP        -0.0393
     37 HO3'        2.2232   -1.2979    2.3953 H         1 GTP         0.2010
     38 H2'        -0.0011    0.0027    0.0003 H         1 GTP        -0.0393
     39 HO2'       -0.6141    0.5574    2.1082 H         1 GTP         0.2010
     40 H1'         1.7826    1.9024    1.6451 H         1 GTP        -0.0393
     41 H8          0.7110    2.3472   -1.9295 H         1 GTP         0.0000
     42 HN1        -2.7504    5.7495    2.3282 H         1 GTP         0.0865
     43 HN21       -1.0467    3.8796    4.7190 H         1 GTP         0.2048
     44 HN22       -2.2294    5.1209    4.3680 H         1 GTP         0.2048
     45 H45        -1.0382    4.1687   -2.0954 H         1 GTP         0.2048
@<TRIPOS>BOND
     1    1    2 2
     2    1    3 1
     3    1    4 1
     4    1    5 1
     5    5    6 1
     6    6    7 2
     7    6    8 1
     8    6    9 1
     9    9   10 1
    10   10   11 2
    11   10   12 1
    12   10   13 1
    13   13   14 1
    14   14   15 1
    15   14   33 1
    16   14   34 1
    17   15   16 1
    18   15   17 1
    19   15   35 1
    20   16   21 1
    21   17   18 1
    22   17   19 1
    23   17   36 1
    24   18   37 1
    25   19   20 1
    26   19   21 1
    27   19   38 1
    28   20   39 1
    29   21   22 1
    30   21   40 1
    31   22   23 ar
    32   22   32 ar
    33   23   24 ar
    34   23   41 1
    35   24   25 ar
    36   24   45 1
    37   25   26 ar
    38   25   32 ar
    39   26   27 2
    40   26   28 ar
    41   28   29 ar
    42   28   42 1
    43   29   30 1
    44   29   31 ar
    45   30   43 1
    46   30   44 1
    47   31   32 ar
@<TRIPOS>SUBSTRUCTURE
     1 GTP         1 GROUP 0 A     ****
@<TRIPOS>MOLECULE
[[[5-(2-amino-6-oxo-7,8-dihydro-1~{H}-purin-8-ylium-9-yl)-3,4-dihydroxy-tetrahydrofuran-2-yl]methoxy-oxido-phosphoryl]oxy-oxido-phosphoryl] phosphate
   45    47     1     0     0
SMALL
USER_CHARGES

@<TRIPOS>ATOM
      1 PG         -0.8324    0.4694   -5.4768 P.3       1 GTP        -1.1921
      2 O1G        -0.0823    1.3841   -6.4393 O.co2     1 GTP         0.3195
      3 O2G        -2.3494    0.5040   -5.6294 O.co2     1 GTP         0.3195
      4 O3G        -0.3466    0.5461   -4.0332 O.co2     1 GTP         0.3195
      5 O3B        -0.4118   -1.0524   -5.9533 O.3       1 GTP         0.4672
      6 PB          1.0592   -1.7584   -6.0361 P.3       1 GTP        -1.1062
      7 O1B         0.8805   -3.2145   -6.4040 O.co2     1 GTP         0.3195
      8 O2B         1.9983   -0.8570   -6.8062 O.co2     1 GTP         0.3195
      9 O3A         1.4924   -1.6431   -4.4662 O.3       1 GTP         0.4672
     10 PA          2.8604   -2.1325   -3.7186 P.3       1 GTP        -1.1062
     11 O1A         2.9139   -3.6439   -3.7665 O.co2     1 GTP         0.3195
     12 O2A         4.0199   -1.2934   -4.2099 O.co2     1 GTP         0.3195
     13 O5'         2.5245   -1.6648   -2.1878 O.3       1 GTP         0.1618
     14 C5'         2.2816   -0.2918   -1.9206 C.3       1 GTP         0.1504
     15 C4'         2.7248    0.0226   -0.4980 C.3       1 GTP         0.1111
     16 O4'         2.4697    1.4219   -0.2462 O.3       1 GTP        -0.1436
     17 C3'         1.9404   -0.7419    0.5596 C.3       1 GTP         0.1111
     18 O3'         2.7418   -0.8086    1.7389 O.3       1 GTP        -0.2728
     19 C2'         0.7477    0.1630    0.7858 C.3       1 GTP         0.1111
     20 O2'         0.1373   -0.0577    2.0407 O.3       1 GTP        -0.2728
     21 C1'         1.3733    1.5427    0.6747 C.3       1 GTP         0.2693
     22 N9          0.4520    2.5240    0.1767 N.pl3     1 GTP        -0.3222
     23 C8          0.2203    2.8205   -1.0970 C.ar      1 GTP         0.1640
     24 N7         -0.6947    3.7752   -1.2304 N.pl3     1 GTP        -0.3688
     25 C5         -1.0607    4.0987    0.0476 C.ar      1 GTP         0.0648
     26 C6         -2.0310    5.0839    0.5029 C.ar      1 GTP         0.3597
     27 O6         -2.6779    5.7867   -0.2609 O.2       1 GTP        -0.2755
     28 N1         -2.1030    5.0975    1.8948 N.pl3     1 GTP        -0.1604
     29 C2         -1.3422    4.2721    2.7403 C.ar      1 GTP         0.4468
     30 N2         -1.5624    4.4419    4.0823 N.pl3     1 GTP        -0.5618
     31 N3         -0.4796    3.3981    2.2792 N.2       1 GTP        -0.4283
     32 C4         -0.3754    3.3496    0.9208 C.ar      1 GTP         0.2226
     33 H5'         2.8432    0.3119   -2.6398 H         1 GTP        -0.0393
     34 H5''        1.2128   -0.0927   -2.0428 H         1 GTP        -0.0393
     35 H4'         3.8044   -0.1397   -0.4040 H         1 GTP        -0.0393
     36 H3'         1.6764   -1.7639    0.2728 H         1 GTP        -0.0393
     37 HO3'        2.2232   -1.2979    2.3953 H         1 GTP         0.2010
     38 H2'        -0.0011    0.0027    0.0003 H         1 GTP        -0.0393
     39 HO2'       -0.6141    0.5574    2.1082 H         1 GTP         0.2010
     40 H1'         1.7826    1.9024    1.6451 H         1 GTP        -0.0393
     41 H8          0.7110    2.3472   -1.9295 H         1 GTP         0.0000
     42 HN1        -2.7504    5.7495    2.3282 H         1 GTP         0.0865
     43 HN21       -1.0467    3.8796    4.7190 H         1 GTP         0.2048
     44 HN22       -2.2294    5.1209    4.3680 H         1 GTP         0.2048
     45 H45        -1.0382    4.1687   -2.0954 H         1 GTP         0.2048
@<TRIPOS>BOND
     1    1    2 2
     2    1    3 1
     3    1    4 1
     4    1    5 1
     5    5    6 1
     6    6    7 2
     7    6    8 1
     8    6    9 1
     9    9   10 1
    10   10   11 2
    11   10   12 1
    12   10   13 1
    13   13   14 1
    14   14   15 1
    15   14   33 1
    16   14   34 1
    17   15   16 1
    18   15   17 1
    19   15   35 1
    20   16   21 1
    21   17   18 1
    22   17   19 1
    23   17   36 1
    24   18   37 1
    25   19   20 1
    26   19   21 1
    27   19   38 1
    28   20   39 1
    29   21   22 1
    30   21   40 1
    31   22   23 ar
    32   22   32 ar
    33   23   24 ar
    34   23   41 1
    35   24   25 ar
    36   24   45 1
    37   25   26 ar
    38   25   32 ar
    39   26   27 2
    40   26   28 ar
    41   28   29 ar
    42   28   42 1
    43   29   30 1
    44   29   31 ar
    45   30   43 1
    46   30   44 1
    47   31   32 ar
@<TRIPOS>SUBSTRUCTURE
     1 GTP         1 GROUP 0 A     ****
@<TRIPOS>MOLECULE
[[[5-(2-amino-6-oxo-7,8-dihydro-1~{H}-purin-8-ylium-9-yl)-3,4-dihydroxy-tetrahydrofuran-2-yl]methoxy-oxido-phosphoryl]oxy-oxido-phosphoryl] phosphate
   45    47     1     0     0
SMALL
USER_CHARGES

@<TRIPOS>ATOM
      1 PG         -0.9033    3.3292   -6.0944 P.3       1 GTP        -1.1921
      2 O1G        -2.1075    2.4720   -6.4696 O.co2     1 GTP         0.3195
      3 O2G        -1.1735    4.3438   -4.9884 O.co2     1 GTP         0.3195
      4 O3G        -0.1395    3.8929   -7.2881 O.co2     1 GTP         0.3195
      5 O3B         0.1571    2.2635   -5.4163 O.3       1 GTP         0.4672
      6 PB          0.8574    0.9308   -6.0508 P.3       1 GTP        -1.1062
      7 O1B        -0.2158   -0.0986   -6.3268 O.co2     1 GTP         0.3195
      8 O2B         1.8445    1.3503   -7.1171 O.co2     1 GTP         0.3195
      9 O3A         1.7421    0.4621   -4.7613 O.3       1 GTP         0.4672
     10 PA          2.9240    1.2545   -3.9582 P.3       1 GTP        -1.1062
     11 O1A         4.1072    1.4127   -4.8880 O.co2     1 GTP         0.3195
     12 O2A         2.3242    2.4478   -3.2466 O.co2     1 GTP         0.3195
     13 O5'         3.2903    0.1346   -2.8241 O.3       1 GTP         0.1618
     14 C5'         2.2816   -0.2918   -1.9206 C.3       1 GTP         0.1504
     15 C4'         2.7248    0.0226   -0.4980 C.3       1 GTP         0.1111
     16 O4'         2.4697    1.4219   -0.2462 O.3       1 GTP        -0.1436
     17 C3'         1.9404   -0.7419    0.5596 C.3       1 GTP         0.1111
     18 O3'         2.7418   -0.8086    1.7389 O.3       1 GTP        -0.2728
     19 C2'         0.7477    0.1630    0.7858 C.3       1 GTP         0.1111
     20 O2'         0.1373   -0.0577    2.0407 O.3       1 GTP        -0.2728
     21 C1'         1.3733    1.5427    0.6747 C.3       1 GTP         0.2693
     22 N9          0.4520    2.5240    0.1767 N.pl3     1 GTP        -0.3222
     23 C8         -0.2009    2.4849   -0.9792 C.ar      1 GTP         0.1640
     24 N7         -0.9840    3.5454   -1.1481 N.pl3     1 GTP        -0.3688
     25 C5         -0.8090    4.3005   -0.0206 C.ar      1 GTP         0.0648
     26 C6         -1.4206    5.5724    0.3362 C.ar      1 GTP         0.3597
     27 O6         -2.2199    6.1544   -0.3836 O.2       1 GTP        -0.2755
     28 N1         -0.9680    6.0043    1.5817 N.pl3     1 GTP        -0.1604
     29 C2         -0.0474    5.3055    2.3814 C.ar      1 GTP         0.4468
     30 N2          0.2680    5.9024    3.5740 N.pl3     1 GTP        -0.5618
     31 N3          0.4755    4.1601    2.0138 N.2       1 GTP        -0.4283
     32 C4          0.0611    3.6981    0.8001 C.ar      1 GTP         0.2226
     33 H5'         1.3514    0.2330   -2.1577 H         1 GTP        -0.0393
     34 H5''        2.1280   -1.3678   -2.0460 H         1 GTP        -0.0393
     35 H4'         3.8044   -0.1397   -0.4040 H         1 GTP        -0.0393
     36 H3'         1.6764   -1.7639    0.2728 H         1 GTP        -0.0393
     37 HO3'        2.2232   -1.2979    2.3953 H         1 GTP         0.2010
     38 H2'        -0.0011    0.0027    0.0003 H         1 GTP        -0.0393
     39 HO2'       -0.6141    0.5574    2.1082 H         1 GTP         0.2010
     40 H1'         1.7826    1.9024    1.6451 H         1 GTP        -0.0393
     41 H8         -0.1126    1.6906   -1.6997 H         1 GTP         0.0000
     42 HN1        -1.3285    6.8855    1.9361 H         1 GTP         0.0865
     43 HN21        0.9153    5.4446    4.1732 H         1 GTP         0.2048
     44 HN22       -0.1624    6.7706    3.7948 H         1 GTP         0.2048
     45 H45        -1.5768    3.7405   -1.9429 H         1 GTP         0.2048
@<TRIPOS>BOND
     1    1    2 2
     2    1    3 1
     3    1    4 1
     4    1    5 1
     5    5    6 1
     6    6    7 2
     7    6    8 1
     8    6    9 1
     9    9   10 1
    10   10   11 2
    11   10   12 1
    12   10   13 1
    13   13   14 1
    14   14   15 1
    15   14   33 1
    16   14   34 1
    17   15   16 1
    18   15   17 1
    19   15   35 1
    20   16   21 1
    21   17   18 1
    22   17   19 1
    23   17   36 1
    24   18   37 1
    25   19   20 1
    26   19   21 1
    27   19   38 1
    28   20   39 1
    29   21   22 1
    30   21   40 1
    31   22   23 ar
    32   22   32 ar
    33   23   24 ar
    34   23   41 1
    35   24   25 ar
    36   24   45 1
    37   25   26 ar
    38   25   32 ar
    39   26   27 2
    40   26   28 ar
    41   28   29 ar
    42   28   42 1
    43   29   30 1
    44   29   31 ar
    45   30   43 1
    46   30   44 1
    47   31   32 ar
@<TRIPOS>SUBSTRUCTURE
     1 GTP         1 GROUP 0 A     ****
@<TRIPOS>MOLECULE
[[[5-(2-amino-6-oxo-7,8-dihydro-1~{H}-purin-8-ylium-9-yl)-3,4-dihydroxy-tetrahydrofuran-2-yl]methoxy-oxido-phosphoryl]oxy-oxido-phosphoryl] phosphate
   45    47     1     0     0
SMALL
USER_CHARGES

@<TRIPOS>ATOM
      1 PG         -2.6045   -1.6213   -2.8895 P.3       1 GTP        -1.1921
      2 O1G        -1.7766   -0.7726   -3.8487 O.co2     1 GTP         0.3195
      3 O2G        -3.9940   -1.9797   -3.4056 O.co2     1 GTP         0.3195
      4 O3G        -2.5795   -1.1367   -1.4436 O.co2     1 GTP         0.3195
      5 O3B        -1.8079   -3.0644   -2.8347 O.3       1 GTP         0.4672
      6 PB         -0.2776   -3.4028   -2.3735 P.3       1 GTP        -1.1062
      7 O1B        -0.0560   -2.8541   -0.9816 O.co2     1 GTP         0.3195
      8 O2B         0.0358   -4.8421   -2.7160 O.co2     1 GTP         0.3195
      9 O3A         0.5298   -2.4844   -3.4552 O.3       1 GTP         0.4672
     10 PA          2.1375   -2.2725   -3.6560 P.3       1 GTP        -1.1062
     11 O1A         2.7815   -3.6336   -3.8061 O.co2     1 GTP         0.3195
     12 O2A         2.3687   -1.1815   -4.6788 O.co2     1 GTP         0.3195
     13 O5'         2.5245   -1.6648   -2.1878 O.3       1 GTP         0.1618
     14 C5'         2.2816   -0.2918   -1.9206 C.3       1 GTP         0.1504
     15 C4'         2.7248    0.0226   -0.4980 C.3       1 GTP         0.1111
     16 O4'         2.4697    1.4219   -0.2462 O.3       1 GTP        -0.1436
     17 C3'         1.9404   -0.7419    0.5596 C.3       1 GTP         0.1111
     18 O3'         2.7418   -0.8086    1.7389 O.3       1 GTP        -0.2728
     19 C2'         0.7477    0.1630    0.7858 C.3       1 GTP         0.1111
     20 O2'         0.1373   -0.0577    2.0407 O.3       1 GTP        -0.2728
     21 C1'         1.3733    1.5427    0.6747 C.3       1 GTP         0.2693
     22 N9          0.4520    2.5240    0.1767 N.pl3     1 GTP        -0.3222
     23 C8          0.2203    2.8205   -1.0970 C.ar      1 GTP         0.1640
     24 N7         -0.6947    3.7752   -1.2304 N.pl3     1 GTP        -0.3688
     25 C5         -1.0607    4.0987    0.0476 C.ar      1 GTP         0.0648
     26 C6         -2.0310    5.0839    0.5029 C.ar      1 GTP         0.3597
     27 O6         -2.6779    5.7867   -0.2609 O.2       1 GTP        -0.2755
     28 N1         -2.1030    5.0975    1.8948 N.pl3     1 GTP        -0.1604
     29 C2         -1.3422    4.2721    2.7403 C.ar      1 GTP         0.4468
     30 N2         -1.5624    4.4419    4.0823 N.pl3     1 GTP        -0.5618
     31 N3         -0.4796    3.3981    2.2792 N.2       1 GTP        -0.4283
     32 C4         -0.3754    3.3496    0.9208 C.ar      1 GTP         0.2226
     33 H5'         2.8432    0.3119   -2.6398 H         1 GTP        -0.0393
     34 H5''        1.2128   -0.0927   -2.0428 H         1 GTP        -0.0393
     35 H4'         3.8044   -0.1397   -0.4040 H         1 GTP        -0.0393
     36 H3'         1.6764   -1.7639    0.2728 H         1 GTP        -0.0393
     37 HO3'        2.2232   -1.2979    2.3953 H         1 GTP         0.2010
     38 H2'        -0.0011    0.0027    0.0003 H         1 GTP        -0.0393
     39 HO2'       -0.6141    0.5574    2.1082 H         1 GTP         0.2010
     40 H1'         1.7826    1.9024    1.6451 H         1 GTP        -0.0393
     41 H8          0.7110    2.3472   -1.9295 H         1 GTP         0.0000
     42 HN1        -2.7504    5.7495    2.3282 H         1 GTP         0.0865
     43 HN21       -1.0467    3.8796    4.7190 H         1 GTP         0.2048
     44 HN22       -2.2294    5.1209    4.3680 H         1 GTP         0.2048
     45 H45        -1.0382    4.1687   -2.0954 H         1 GTP         0.2048
@<TRIPOS>BOND
     1    1    2 2
     2    1    3 1
     3    1    4 1
     4    1    5 1
     5    5    6 1
     6    6    7 2
     7    6    8 1
     8    6    9 1
     9    9   10 1
    10   10   11 2
    11   10   12 1
    12   10   13 1
    13   13   14 1
    14   14   15 1
    15   14   33 1
    16   14   34 1
    17   15   16 1
    18   15   17 1
    19   15   35 1
    20   16   21 1
    21   17   18 1
    22   17   19 1
    23   17   36 1
    24   18   37 1
    25   19   20 1
    26   19   21 1
    27   19   38 1
    28   20   39 1
    29   21   22 1
    30   21   40 1
    31   22   23 ar
    32   22   32 ar
    33   23   24 ar
    34   23   41 1
    35   24   25 ar
    36   24   45 1
    37   25   26 ar
    38   25   32 ar
    39   26   27 2
    40   26   28 ar
    41   28   29 ar
    42   28   42 1
    43   29   30 1
    44   29   31 ar
    45   30   43 1
    46   30   44 1
    47   31   32 ar
@<TRIPOS>SUBSTRUCTURE
     1 GTP         1 GROUP 0 A     ****
@<TRIPOS>MOLECULE
[[[5-(2-amino-6-oxo-7,8-dihydro-1~{H}-purin-8-ylium-9-yl)-3,4-dihydroxy-tetrahydrofuran-2-yl]methoxy-oxido-phosphoryl]oxy-oxido-phosphoryl] phosphate
   45    47     1     0     0
SMALL
USER_CHARGES

@<TRIPOS>ATOM
      1 PG          6.6288   -3.3735   -5.1160 P.3       1 GTP        -1.1921
      2 O1G         7.3175   -3.1132   -3.7804 O.co2     1 GTP         0.3195
      3 O2G         6.3479   -4.8447   -5.4027 O.co2     1 GTP         0.3195
      4 O3G         7.2322   -2.6108   -6.2908 O.co2     1 GTP         0.3195
      5 O3B         5.1328   -2.7026   -4.9378 O.3       1 GTP         0.4672
      6 PB          4.7052   -1.1590   -4.6159 P.3       1 GTP        -1.1062
      7 O1B         5.1837   -0.8009   -3.2265 O.co2     1 GTP         0.3195
      8 O2B         5.0328   -0.2946   -5.8130 O.co2     1 GTP         0.3195
      9 O3A         3.0822   -1.3351   -4.6038 O.3       1 GTP         0.4672
     10 PA          2.1375   -2.2725   -3.6560 P.3       1 GTP        -1.1062
     11 O1A         0.6906   -1.9446   -3.9539 O.co2     1 GTP         0.3195
     12 O2A         2.6428   -3.6980   -3.7095 O.co2     1 GTP         0.3195
     13 O5'         2.5245   -1.6648   -2.1878 O.3       1 GTP         0.1618
     14 C5'         2.2816   -0.2918   -1.9206 C.3       1 GTP         0.1504
     15 C4'         2.7248    0.0226   -0.4980 C.3       1 GTP         0.1111
     16 O4'         2.4697    1.4219   -0.2462 O.3       1 GTP        -0.1436
     17 C3'         1.9404   -0.7419    0.5596 C.3       1 GTP         0.1111
     18 O3'         2.7418   -0.8086    1.7389 O.3       1 GTP        -0.2728
     19 C2'         0.7477    0.1630    0.7858 C.3       1 GTP         0.1111
     20 O2'         0.1373   -0.0577    2.0407 O.3       1 GTP        -0.2728
     21 C1'         1.3733    1.5427    0.6747 C.3       1 GTP         0.2693
     22 N9          0.4520    2.5240    0.1767 N.pl3     1 GTP        -0.3222
     23 C8          0.2203    2.8205   -1.0970 C.ar      1 GTP         0.1640
     24 N7         -0.6947    3.7752   -1.2304 N.pl3     1 GTP        -0.3688
     25 C5         -1.0607    4.0987    0.0476 C.ar      1 GTP         0.0648
     26 C6         -2.0310    5.0839    0.5029 C.ar      1 GTP         0.3597
     27 O6         -2.6779    5.7867   -0.2609 O.2       1 GTP        -0.2755
     28 N1         -2.1030    5.0975    1.8948 N.pl3     1 GTP        -0.1604
     29 C2         -1.3422    4.2721    2.7403 C.ar      1 GTP         0.4468
     30 N2         -1.5624    4.4419    4.0823 N.pl3     1 GTP        -0.5618
     31 N3         -0.4796    3.3981    2.2792 N.2       1 GTP        -0.4283
     32 C4         -0.3754    3.3496    0.9208 C.ar      1 GTP         0.2226
     33 H5'         2.8432    0.3119   -2.6398 H         1 GTP        -0.0393
     34 H5''        1.2128   -0.0927   -2.0428 H         1 GTP        -0.0393
     35 H4'         3.8044   -0.1397   -0.4040 H         1 GTP        -0.0393
     36 H3'         1.6764   -1.7639    0.2728 H         1 GTP        -0.0393
     37 HO3'        2.2232   -1.2979    2.3953 H         1 GTP         0.2010
     38 H2'        -0.0011    0.0027    0.0003 H         1 GTP        -0.0393
     39 HO2'       -0.6141    0.5574    2.1082 H         1 GTP         0.2010
     40 H1'         1.7826    1.9024    1.6451 H         1 GTP        -0.0393
     41 H8          0.7110    2.3472   -1.9295 H         1 GTP         0.0000
     42 HN1        -2.7504    5.7495    2.3282 H         1 GTP         0.0865
     43 HN21       -1.0467    3.8796    4.7190 H         1 GTP         0.2048
     44 HN22       -2.2294    5.1209    4.3680 H         1 GTP         0.2048
     45 H45        -1.0382    4.1687   -2.0954 H         1 GTP         0.2048
@<TRIPOS>BOND
     1    1    2 2
     2    1    3 1
     3    1    4 1
     4    1    5 1
     5    5    6 1
     6    6    7 2
     7    6    8 1
     8    6    9 1
     9    9   10 1
    10   10   11 2
    11   10   12 1
    12   10   13 1
    13   13   14 1
    14   14   15 1
    15   14   33 1
    16   14   34 1
    17   15   16 1
    18   15   17 1
    19   15   35 1
    20   16   21 1
    21   17   18 1
    22   17   19 1
    23   17   36 1
    24   18   37 1
    25   19   20 1
    26   19   21 1
    27   19   38 1
    28   20   39 1
    29   21   22 1
    30   21   40 1
    31   22   23 ar
    32   22   32 ar
    33   23   24 ar
    34   23   41 1
    35   24   25 ar
    36   24   45 1
    37   25   26 ar
    38   25   32 ar
    39   26   27 2
    40   26   28 ar
    41   28   29 ar
    42   28   42 1
    43   29   30 1
    44   29   31 ar
    45   30   43 1
    46   30   44 1
    47   31   32 ar
@<TRIPOS>SUBSTRUCTURE
     1 GTP         1 GROUP 0 A     ****
@<TRIPOS>MOLECULE
[[[5-(2-amino-6-oxo-7,8-dihydro-1~{H}-purin-8-ylium-9-yl)-3,4-dihydroxy-tetrahydrofuran-2-yl]methoxy-oxido-phosphoryl]oxy-oxido-phosphoryl] phosphate
   45    47     1     0     0
SMALL
USER_CHARGES

@<TRIPOS>ATOM
      1 PG         -1.1371   -1.0962   -5.1747 P.3       1 GTP        -1.1921
      2 O1G        -2.1690   -0.0053   -4.9082 O.co2     1 GTP         0.3195
      3 O2G        -1.6789   -2.3027   -5.9337 O.co2     1 GTP         0.3195
      4 O3G        -0.2754   -1.4514   -3.9674 O.co2     1 GTP         0.3195
      5 O3B        -0.0740   -0.4000   -6.2259 O.3       1 GTP         0.4672
      6 PB          0.8574    0.9308   -6.0508 P.3       1 GTP        -1.1062
      7 O1B         1.7570    1.0580   -7.2600 O.co2     1 GTP         0.3195
      8 O2B        -0.0057    2.0809   -5.5821 O.co2     1 GTP         0.3195
      9 O3A         1.7421    0.4621   -4.7613 O.3       1 GTP         0.4672
     10 PA          2.9240    1.2545   -3.9582 P.3       1 GTP        -1.1062
     11 O1A         4.1072    1.4127   -4.8880 O.co2     1 GTP         0.3195
     12 O2A         2.3242    2.4478   -3.2466 O.co2     1 GTP         0.3195
     13 O5'         3.2903    0.1346   -2.8241 O.3       1 GTP         0.1618
     14 C5'         2.2816   -0.2918   -1.9206 C.3       1 GTP         0.1504
     15 C4'         2.7248    0.0226   -0.4980 C.3       1 GTP         0.1111
     16 O4'         2.4697    1.4219   -0.2462 O.3       1 GTP        -0.1436
     17 C3'         1.9404   -0.7419    0.5596 C.3       1 GTP         0.1111
     18 O3'         2.7418   -0.8086    1.7389 O.3       1 GTP        -0.2728
     19 C2'         0.7477    0.1630    0.7858 C.3       1 GTP         0.1111
     20 O2'         0.1373   -0.0577    2.0407 O.3       1 GTP        -0.2728
     21 C1'         1.3733    1.5427    0.6747 C.3       1 GTP         0.2693
     22 N9          0.4520    2.5240    0.1767 N.pl3     1 GTP        -0.3222
     23 C8         -0.2009    2.4849   -0.9792 C.ar      1 GTP         0.1640
     24 N7         -0.9840    3.5454   -1.1481 N.pl3     1 GTP        -0.3688
     25 C5         -0.8090    4.3005   -0.0206 C.ar      1 GTP         0.0648
     26 C6         -1.4206    5.5724    0.3362 C.ar      1 GTP         0.3597
     27 O6         -2.2199    6.1544   -0.3836 O.2       1 GTP        -0.2755
     28 N1         -0.9680    6.0043    1.5817 N.pl3     1 GTP        -0.1604
     29 C2         -0.0474    5.3055    2.3814 C.ar      1 GTP         0.4468
     30 N2          0.2680    5.9024    3.5740 N.pl3     1 GTP        -0.5618
     31 N3          0.4755    4.1601    2.0138 N.2       1 GTP        -0.4283
     32 C4          0.0611    3.6981    0.8001 C.ar      1 GTP         0.2226
     33 H5'         1.3514    0.2330   -2.1577 H         1 GTP        -0.0393
     34 H5''        2.1280   -1.3678   -2.0460 H         1 GTP        -0.0393
     35 H4'         3.8044   -0.1397   -0.4040 H         1 GTP        -0.0393
     36 H3'         1.6764   -1.7639    0.2728 H         1 GTP        -0.0393
     37 HO3'        2.2232   -1.2979    2.3953 H         1 GTP         0.2010
     38 H2'        -0.0011    0.0027    0.0003 H         1 GTP        -0.0393
     39 HO2'       -0.6141    0.5574    2.1082 H         1 GTP         0.2010
     40 H1'         1.7826    1.9024    1.6451 H         1 GTP        -0.0393
     41 H8         -0.1126    1.6906   -1.6997 H         1 GTP         0.0000
     42 HN1        -1.3285    6.8855    1.9361 H         1 GTP         0.0865
     43 HN21        0.9153    5.4446    4.1732 H         1 GTP         0.2048
     44 HN22       -0.1624    6.7706    3.7948 H         1 GTP         0.2048
     45 H45        -1.5768    3.7405   -1.9429 H         1 GTP         0.2048
@<TRIPOS>BOND
     1    1    2 2
     2    1    3 1
     3    1    4 1
     4    1    5 1
     5    5    6 1
     6    6    7 2
     7    6    8 1
     8    6    9 1
     9    9   10 1
    10   10   11 2
    11   10   12 1
    12   10   13 1
    13   13   14 1
    14   14   15 1
    15   14   33 1
    16   14   34 1
    17   15   16 1
    18   15   17 1
    19   15   35 1
    20   16   21 1
    21   17   18 1
    22   17   19 1
    23   17   36 1
    24   18   37 1
    25   19   20 1
    26   19   21 1
    27   19   38 1
    28   20   39 1
    29   21   22 1
    30   21   40 1
    31   22   23 ar
    32   22   32 ar
    33   23   24 ar
    34   23   41 1
    35   24   25 ar
    36   24   45 1
    37   25   26 ar
    38   25   32 ar
    39   26   27 2
    40   26   28 ar
    41   28   29 ar
    42   28   42 1
    43   29   30 1
    44   29   31 ar
    45   30   43 1
    46   30   44 1
    47   31   32 ar
@<TRIPOS>SUBSTRUCTURE
     1 GTP         1 GROUP 0 A     ****
@<TRIPOS>MOLECULE
[[[5-(2-amino-6-oxo-7,8-dihydro-1~{H}-purin-8-ylium-9-yl)-3,4-dihydroxy-tetrahydrofuran-2-yl]methoxy-oxido-phosphoryl]oxy-oxido-phosphoryl] phosphate
   45    47     1     0     0
SMALL
USER_CHARGES

@<TRIPOS>ATOM
      1 PG         -1.2717    0.5992   -5.6887 P.3       1 GTP        -1.1921
      2 O1G        -1.0723    1.5459   -6.8676 O.co2     1 GTP         0.3195
      3 O2G        -2.6806    0.0271   -5.5727 O.co2     1 GTP         0.3195
      4 O3G        -0.6921    1.1072   -4.3727 O.co2     1 GTP         0.3195
      5 O3B        -0.3330   -0.7065   -6.0543 O.3       1 GTP         0.4672
      6 PB          1.2770   -0.8029   -6.3151 P.3       1 GTP        -1.1062
      7 O1B         1.6580   -2.2578   -6.4757 O.co2     1 GTP         0.3195
      8 O2B         1.6759    0.2373   -7.3379 O.co2     1 GTP         0.3195
      9 O3A         1.8081   -0.2577   -4.8708 O.3       1 GTP         0.4672
     10 PA          3.3347   -0.0507   -4.3265 P.3       1 GTP        -1.1062
     11 O1A         3.9865   -1.4112   -4.2092 O.co2     1 GTP         0.3195
     12 O2A         3.9917    1.0658   -5.1088 O.co2     1 GTP         0.3195
     13 O5'         3.0213    0.5153   -2.8245 O.3       1 GTP         0.1618
     14 C5'         2.2816   -0.2918   -1.9206 C.3       1 GTP         0.1504
     15 C4'         2.7248    0.0226   -0.4980 C.3       1 GTP         0.1111
     16 O4'         2.4697    1.4219   -0.2462 O.3       1 GTP        -0.1436
     17 C3'         1.9404   -0.7419    0.5596 C.3       1 GTP         0.1111
     18 O3'         2.7418   -0.8086    1.7389 O.3       1 GTP        -0.2728
     19 C2'         0.7477    0.1630    0.7858 C.3       1 GTP         0.1111
     20 O2'         0.1373   -0.0577    2.0407 O.3       1 GTP        -0.2728
     21 C1'         1.3733    1.5427    0.6747 C.3       1 GTP         0.2693
     22 N9          0.4520    2.5240    0.1767 N.pl3     1 GTP        -0.3222
     23 C8         -0.2009    2.4849   -0.9792 C.ar      1 GTP         0.1640
     24 N7         -0.9840    3.5454   -1.1481 N.pl3     1 GTP        -0.3688
     25 C5         -0.8090    4.3005   -0.0206 C.ar      1 GTP         0.0648
     26 C6         -1.4206    5.5724    0.3362 C.ar      1 GTP         0.3597
     27 O6         -2.2199    6.1544   -0.3836 O.2       1 GTP        -0.2755
     28 N1         -0.9680    6.0043    1.5817 N.pl3     1 GTP        -0.1604
     29 C2         -0.0474    5.3055    2.3814 C.ar      1 GTP         0.4468
     30 N2          0.2680    5.9024    3.5740 N.pl3     1 GTP        -0.5618
     31 N3          0.4755    4.1601    2.0138 N.2       1 GTP        -0.4283
     32 C4          0.0611    3.6981    0.8001 C.ar      1 GTP         0.2226
     33 H5'         1.2163   -0.0770   -2.0471 H         1 GTP        -0.0393
     34 H5''        2.4655   -1.3443   -2.1563 H         1 GTP        -0.0393
     35 H4'         3.8044   -0.1397   -0.4040 H         1 GTP        -0.0393
     36 H3'         1.6764   -1.7639    0.2728 H         1 GTP        -0.0393
     37 HO3'        2.2232   -1.2979    2.3953 H         1 GTP         0.2010
     38 H2'        -0.0011    0.0027    0.0003 H         1 GTP        -0.0393
     39 HO2'       -0.1563   -0.9855    2.0596 H         1 GTP         0.2010
     40 H1'         1.7826    1.9024    1.6451 H         1 GTP        -0.0393
     41 H8         -0.1126    1.6906   -1.6997 H         1 GTP         0.0000
     42 HN1        -1.3285    6.8855    1.9361 H         1 GTP         0.0865
     43 HN21        0.9153    5.4446    4.1732 H         1 GTP         0.2048
     44 HN22       -0.1624    6.7706    3.7948 H         1 GTP         0.2048
     45 H45        -1.5768    3.7405   -1.9429 H         1 GTP         0.2048
@<TRIPOS>BOND
     1    1    2 2
     2    1    3 1
     3    1    4 1
     4    1    5 1
     5    5    6 1
     6    6    7 2
     7    6    8 1
     8    6    9 1
     9    9   10 1
    10   10   11 2
    11   10   12 1
    12   10   13 1
    13   13   14 1
    14   14   15 1
    15   14   33 1
    16   14   34 1
    17   15   16 1
    18   15   17 1
    19   15   35 1
    20   16   21 1
    21   17   18 1
    22   17   19 1
    23   17   36 1
    24   18   37 1
    25   19   20 1
    26   19   21 1
    27   19   38 1
    28   20   39 1
    29   21   22 1
    30   21   40 1
    31   22   23 ar
    32   22   32 ar
    33   23   24 ar
    34   23   41 1
    35   24   25 ar
    36   24   45 1
    37   25   26 ar
    38   25   32 ar
    39   26   27 2
    40   26   28 ar
    41   28   29 ar
    42   28   42 1
    43   29   30 1
    44   29   31 ar
    45   30   43 1
    46   30   44 1
    47   31   32 ar
@<TRIPOS>SUBSTRUCTURE
     1 GTP         1 GROUP 0 A     ****
@<TRIPOS>MOLECULE
[[[5-(2-amino-6-oxo-7,8-dihydro-1~{H}-purin-8-ylium-9-yl)-3,4-dihydroxy-tetrahydrofuran-2-yl]methoxy-oxido-phosphoryl]oxy-oxido-phosphoryl] phosphate
   45    47     1     0     0
SMALL
USER_CHARGES

@<TRIPOS>ATOM
      1 PG          0.2458   -3.6858   -7.0471 P.3       1 GTP        -1.1921
      2 O1G         1.1687   -3.8099   -8.2549 O.co2     1 GTP         0.3195
      3 O2G         0.1247   -4.9578   -6.2147 O.co2     1 GTP         0.3195
      4 O3G        -1.0851   -3.0026   -7.3436 O.co2     1 GTP         0.3195
      5 O3B         1.0210   -2.6229   -6.0525 O.3       1 GTP         0.4672
      6 PB          1.4682   -1.0736   -6.3148 P.3       1 GTP        -1.1062
      7 O1B         2.5262   -1.0485   -7.3954 O.co2     1 GTP         0.3195
      8 O2B         0.2305   -0.2085   -6.3988 O.co2     1 GTP         0.3195
      9 O3A         2.1583   -0.7533   -4.8703 O.3       1 GTP         0.4672
     10 PA          2.8629    0.6171   -4.3271 P.3       1 GTP        -1.1062
     11 O1A         4.1178    0.8599   -5.1370 O.co2     1 GTP         0.3195
     12 O2A         1.8074    1.6915   -4.1805 O.co2     1 GTP         0.3195
     13 O5'         3.2903    0.1346   -2.8241 O.3       1 GTP         0.1618
     14 C5'         2.2816   -0.2918   -1.9206 C.3       1 GTP         0.1504
     15 C4'         2.7248    0.0226   -0.4980 C.3       1 GTP         0.1111
     16 O4'         2.4697    1.4219   -0.2462 O.3       1 GTP        -0.1436
     17 C3'         1.9404   -0.7419    0.5596 C.3       1 GTP         0.1111
     18 O3'         2.7418   -0.8086    1.7389 O.3       1 GTP        -0.2728
     19 C2'         0.7477    0.1630    0.7858 C.3       1 GTP         0.1111
     20 O2'         0.1373   -0.0577    2.0407 O.3       1 GTP        -0.2728
     21 C1'         1.3733    1.5427    0.6747 C.3       1 GTP         0.2693
     22 N9          0.4520    2.5240    0.1767 N.pl3     1 GTP        -0.3222
     23 C8          0.2203    2.8205   -1.0970 C.ar      1 GTP         0.1640
     24 N7         -0.6947    3.7752   -1.2304 N.pl3     1 GTP        -0.3688
     25 C5         -1.0607    4.0987    0.0476 C.ar      1 GTP         0.0648
     26 C6         -2.0310    5.0839    0.5029 C.ar      1 GTP         0.3597
     27 O6         -2.6779    5.7867   -0.2609 O.2       1 GTP        -0.2755
     28 N1         -2.1030    5.0975    1.8948 N.pl3     1 GTP        -0.1604
     29 C2         -1.3422    4.2721    2.7403 C.ar      1 GTP         0.4468
     30 N2         -1.5624    4.4419    4.0823 N.pl3     1 GTP        -0.5618
     31 N3         -0.4796    3.3981    2.2792 N.2       1 GTP        -0.4283
     32 C4         -0.3754    3.3496    0.9208 C.ar      1 GTP         0.2226
     33 H5'         1.3514    0.2330   -2.1577 H         1 GTP        -0.0393
     34 H5''        2.1280   -1.3678   -2.0460 H         1 GTP        -0.0393
     35 H4'         3.8044   -0.1397   -0.4040 H         1 GTP        -0.0393
     36 H3'         1.6764   -1.7639    0.2728 H         1 GTP        -0.0393
     37 HO3'        2.2232   -1.2979    2.3953 H         1 GTP         0.2010
     38 H2'        -0.0011    0.0027    0.0003 H         1 GTP        -0.0393
     39 HO2'       -0.1563   -0.9855    2.0596 H         1 GTP         0.2010
     40 H1'         1.7826    1.9024    1.6451 H         1 GTP        -0.0393
     41 H8          0.7110    2.3472   -1.9295 H         1 GTP         0.0000
     42 HN1        -2.7504    5.7495    2.3282 H         1 GTP         0.0865
     43 HN21       -1.0467    3.8796    4.7190 H         1 GTP         0.2048
     44 HN22       -2.2294    5.1209    4.3680 H         1 GTP         0.2048
     45 H45        -1.0382    4.1687   -2.0954 H         1 GTP         0.2048
@<TRIPOS>BOND
     1    1    2 2
     2    1    3 1
     3    1    4 1
     4    1    5 1
     5    5    6 1
     6    6    7 2
     7    6    8 1
     8    6    9 1
     9    9   10 1
    10   10   11 2
    11   10   12 1
    12   10   13 1
    13   13   14 1
    14   14   15 1
    15   14   33 1
    16   14   34 1
    17   15   16 1
    18   15   17 1
    19   15   35 1
    20   16   21 1
    21   17   18 1
    22   17   19 1
    23   17   36 1
    24   18   37 1
    25   19   20 1
    26   19   21 1
    27   19   38 1
    28   20   39 1
    29   21   22 1
    30   21   40 1
    31   22   23 ar
    32   22   32 ar
    33   23   24 ar
    34   23   41 1
    35   24   25 ar
    36   24   45 1
    37   25   26 ar
    38   25   32 ar
    39   26   27 2
    40   26   28 ar
    41   28   29 ar
    42   28   42 1
    43   29   30 1
    44   29   31 ar
    45   30   43 1
    46   30   44 1
    47   31   32 ar
@<TRIPOS>SUBSTRUCTURE
     1 GTP         1 GROUP 0 A     ****
@<TRIPOS>MOLECULE
[[[5-(2-amino-6-oxo-7,8-dihydro-1~{H}-purin-8-ylium-9-yl)-3,4-dihydroxy-tetrahydrofuran-2-yl]methoxy-oxido-phosphoryl]oxy-oxido-phosphoryl] phosphate
   45    47     1     0     0
SMALL
USER_CHARGES

@<TRIPOS>ATOM
      1 PG          0.7942   -4.3246   -7.5186 P.3       1 GTP        -1.1921
      2 O1G         1.8031   -3.8573   -8.5624 O.co2     1 GTP         0.3195
      3 O2G         1.0167   -5.7493   -7.0223 O.co2     1 GTP         0.3195
      4 O3G        -0.6563   -4.0003   -7.8606 O.co2     1 GTP         0.3195
      5 O3B         1.1081   -3.3829   -6.2016 O.3       1 GTP         0.4672
      6 PB          1.0592   -1.7584   -6.0361 P.3       1 GTP        -1.1062
      7 O1B         2.1381   -1.1480   -6.9027 O.co2     1 GTP         0.3195
      8 O2B        -0.3782   -1.2954   -6.1182 O.co2     1 GTP         0.3195
      9 O3A         1.4924   -1.6431   -4.4662 O.3       1 GTP         0.4672
     10 PA          2.8604   -2.1325   -3.7186 P.3       1 GTP        -1.1062
     11 O1A         2.9139   -3.6439   -3.7665 O.co2     1 GTP         0.3195
     12 O2A         4.0199   -1.2934   -4.2099 O.co2     1 GTP         0.3195
     13 O5'         2.5245   -1.6648   -2.1878 O.3       1 GTP         0.1618
     14 C5'         2.2816   -0.2918   -1.9206 C.3       1 GTP         0.1504
     15 C4'         2.7248    0.0226   -0.4980 C.3       1 GTP         0.1111
     16 O4'         2.4697    1.4219   -0.2462 O.3       1 GTP        -0.1436
     17 C3'         1.9404   -0.7419    0.5596 C.3       1 GTP         0.1111
     18 O3'         2.7418   -0.8086    1.7389 O.3       1 GTP        -0.2728
     19 C2'         0.7477    0.1630    0.7858 C.3       1 GTP         0.1111
     20 O2'         0.1373   -0.0577    2.0407 O.3       1 GTP        -0.2728
     21 C1'         1.3733    1.5427    0.6747 C.3       1 GTP         0.2693
     22 N9          0.4520    2.5240    0.1767 N.pl3     1 GTP        -0.3222
     23 C8          0.2203    2.8205   -1.0970 C.ar      1 GTP         0.1640
     24 N7         -0.6947    3.7752   -1.2304 N.pl3     1 GTP        -0.3688
     25 C5         -1.0607    4.0987    0.0476 C.ar      1 GTP         0.0648
     26 C6         -2.0310    5.0839    0.5029 C.ar      1 GTP         0.3597
     27 O6         -2.6779    5.7867   -0.2609 O.2       1 GTP        -0.2755
     28 N1         -2.1030    5.0975    1.8948 N.pl3     1 GTP        -0.1604
     29 C2         -1.3422    4.2721    2.7403 C.ar      1 GTP         0.4468
     30 N2         -1.5624    4.4419    4.0823 N.pl3     1 GTP        -0.5618
     31 N3         -0.4796    3.3981    2.2792 N.2       1 GTP        -0.4283
     32 C4         -0.3754    3.3496    0.9208 C.ar      1 GTP         0.2226
     33 H5'         2.8432    0.3119   -2.6398 H         1 GTP        -0.0393
     34 H5''        1.2128   -0.0927   -2.0428 H         1 GTP        -0.0393
     35 H4'         3.8044   -0.1397   -0.4040 H         1 GTP        -0.0393
     36 H3'         1.6764   -1.7639    0.2728 H         1 GTP        -0.0393
     37 HO3'        2.2232   -1.2979    2.3953 H         1 GTP         0.2010
     38 H2'        -0.0011    0.0027    0.0003 H         1 GTP        -0.0393
     39 HO2'       -0.1563   -0.9855    2.0596 H         1 GTP         0.2010
     40 H1'         1.7826    1.9024    1.6451 H         1 GTP        -0.0393
     41 H8          0.7110    2.3472   -1.9295 H         1 GTP         0.0000
     42 HN1        -2.7504    5.7495    2.3282 H         1 GTP         0.0865
     43 HN21       -1.0467    3.8796    4.7190 H         1 GTP         0.2048
     44 HN22       -2.2294    5.1209    4.3680 H         1 GTP         0.2048
     45 H45        -1.0382    4.1687   -2.0954 H         1 GTP         0.2048
@<TRIPOS>BOND
     1    1    2 2
     2    1    3 1
     3    1    4 1
     4    1    5 1
     5    5    6 1
     6    6    7 2
     7    6    8 1
     8    6    9 1
     9    9   10 1
    10   10   11 2
    11   10   12 1
    12   10   13 1
    13   13   14 1
    14   14   15 1
    15   14   33 1
    16   14   34 1
    17   15   16 1
    18   15   17 1
    19   15   35 1
    20   16   21 1
    21   17   18 1
    22   17   19 1
    23   17   36 1
    24   18   37 1
    25   19   20 1
    26   19   21 1
    27   19   38 1
    28   20   39 1
    29   21   22 1
    30   21   40 1
    31   22   23 ar
    32   22   32 ar
    33   23   24 ar
    34   23   41 1
    35   24   25 ar
    36   24   45 1
    37   25   26 ar
    38   25   32 ar
    39   26   27 2
    40   26   28 ar
    41   28   29 ar
    42   28   42 1
    43   29   30 1
    44   29   31 ar
    45   30   43 1
    46   30   44 1
    47   31   32 ar
@<TRIPOS>SUBSTRUCTURE
     1 GTP         1 GROUP 0 A     ****
@<TRIPOS>MOLECULE
[[[5-(2-amino-6-oxo-7,8-dihydro-1~{H}-purin-8-ylium-9-yl)-3,4-dihydroxy-tetrahydrofuran-2-yl]methoxy-oxido-phosphoryl]oxy-oxido-phosphoryl] phosphate
   45    47     1     0     0
SMALL
USER_CHARGES

@<TRIPOS>ATOM
      1 PG          0.7755    3.6608   -6.5927 P.3       1 GTP        -1.1921
      2 O1G         1.1316    4.0459   -5.1607 O.co2     1 GTP         0.3195
      3 O2G         1.7745    4.1410   -7.6401 O.co2     1 GTP         0.3195
      4 O3G        -0.6842    3.9040   -6.9619 O.co2     1 GTP         0.3195
      5 O3B         0.9196    2.0182   -6.6183 O.3       1 GTP         0.4672
      6 PB          0.1382    0.8813   -5.7431 P.3       1 GTP        -1.1062
      7 O1B        -1.1867    1.4470   -5.2823 O.co2     1 GTP         0.3195
      8 O2B         0.2243   -0.4450   -6.4649 O.co2     1 GTP         0.3195
      9 O3A         1.1591    0.7827   -4.4728 O.3       1 GTP         0.4672
     10 PA          2.7413    0.3775   -4.4298 P.3       1 GTP        -1.1062
     11 O1A         2.8705   -1.0776   -4.8246 O.co2     1 GTP         0.3195
     12 O2A         3.5462    1.4514   -5.1291 O.co2     1 GTP         0.3195
     13 O5'         3.0213    0.5153   -2.8245 O.3       1 GTP         0.1618
     14 C5'         2.2816   -0.2918   -1.9206 C.3       1 GTP         0.1504
     15 C4'         2.7248    0.0226   -0.4980 C.3       1 GTP         0.1111
     16 O4'         2.4697    1.4219   -0.2462 O.3       1 GTP        -0.1436
     17 C3'         1.9404   -0.7419    0.5596 C.3       1 GTP         0.1111
     18 O3'         2.7418   -0.8086    1.7389 O.3       1 GTP        -0.2728
     19 C2'         0.7477    0.1630    0.7858 C.3       1 GTP         0.1111
     20 O2'         0.1373   -0.0577    2.0407 O.3       1 GTP        -0.2728
     21 C1'         1.3733    1.5427    0.6747 C.3       1 GTP         0.2693
     22 N9          0.4520    2.5240    0.1767 N.pl3     1 GTP        -0.3222
     23 C8         -0.2009    2.4849   -0.9792 C.ar      1 GTP         0.1640
     24 N7         -0.9840    3.5454   -1.1481 N.pl3     1 GTP        -0.3688
     25 C5         -0.8090    4.3005   -0.0206 C.ar      1 GTP         0.0648
     26 C6         -1.4206    5.5724    0.3362 C.ar      1 GTP         0.3597
     27 O6         -2.2199    6.1544   -0.3836 O.2       1 GTP        -0.2755
     28 N1         -0.9680    6.0043    1.5817 N.pl3     1 GTP        -0.1604
     29 C2         -0.0474    5.3055    2.3814 C.ar      1 GTP         0.4468
     30 N2          0.2680    5.9024    3.5740 N.pl3     1 GTP        -0.5618
     31 N3          0.4755    4.1601    2.0138 N.2       1 GTP        -0.4283
     32 C4          0.0611    3.6981    0.8001 C.ar      1 GTP         0.2226
     33 H5'         1.2163   -0.0770   -2.0471 H         1 GTP        -0.0393
     34 H5''        2.4655   -1.3443   -2.1563 H         1 GTP        -0.0393
     35 H4'         3.8044   -0.1397   -0.4040 H         1 GTP        -0.0393
     36 H3'         1.6764   -1.7639    0.2728 H         1 GTP        -0.0393
     37 HO3'        2.2232   -1.2979    2.3953 H         1 GTP         0.2010
     38 H2'        -0.0011    0.0027    0.0003 H         1 GTP        -0.0393
     39 HO2'       -0.1563   -0.9855    2.0596 H         1 GTP         0.2010
     40 H1'         1.7826    1.9024    1.6451 H         1 GTP        -0.0393
     41 H8         -0.1126    1.6906   -1.6997 H         1 GTP         0.0000
     42 HN1        -1.3285    6.8855    1.9361 H         1 GTP         0.0865
     43 HN21        0.9153    5.4446    4.1732 H         1 GTP         0.2048
     44 HN22       -0.1624    6.7706    3.7948 H         1 GTP         0.2048
     45 H45        -1.5768    3.7405   -1.9429 H         1 GTP         0.2048
@<TRIPOS>BOND
     1    1    2 2
     2    1    3 1
     3    1    4 1
     4    1    5 1
     5    5    6 1
     6    6    7 2
     7    6    8 1
     8    6    9 1
     9    9   10 1
    10   10   11 2
    11   10   12 1
    12   10   13 1
    13   13   14 1
    14   14   15 1
    15   14   33 1
    16   14   34 1
    17   15   16 1
    18   15   17 1
    19   15   35 1
    20   16   21 1
    21   17   18 1
    22   17   19 1
    23   17   36 1
    24   18   37 1
    25   19   20 1
    26   19   21 1
    27   19   38 1
    28   20   39 1
    29   21   22 1
    30   21   40 1
    31   22   23 ar
    32   22   32 ar
    33   23   24 ar
    34   23   41 1
    35   24   25 ar
    36   24   45 1
    37   25   26 ar
    38   25   32 ar
    39   26   27 2
    40   26   28 ar
    41   28   29 ar
    42   28   42 1
    43   29   30 1
    44   29   31 ar
    45   30   43 1
    46   30   44 1
    47   31   32 ar
@<TRIPOS>SUBSTRUCTURE
     1 GTP         1 GROUP 0 A     ****
@<TRIPOS>MOLECULE
[[[5-(2-amino-6-oxo-7,8-dihydro-1~{H}-purin-8-ylium-9-yl)-3,4-dihydroxy-tetrahydrofuran-2-yl]methoxy-oxido-phosphoryl]oxy-oxido-phosphoryl] phosphate
   45    47     1     0     0
SMALL
USER_CHARGES

@<TRIPOS>ATOM
      1 PG          2.5707   -0.5329   -8.2872 P.3       1 GTP        -1.1921
      2 O1G         1.3334    0.2390   -8.7335 O.co2     1 GTP         0.3195
      3 O2G         3.8496    0.2969   -8.2479 O.co2     1 GTP         0.3195
      4 O3G         2.7300   -1.8975   -8.9494 O.co2     1 GTP         0.3195
      5 O3B         2.2737   -0.8950   -6.7059 O.3       1 GTP         0.4672
      6 PB          1.0592   -1.7584   -6.0361 P.3       1 GTP        -1.1062
      7 O1B        -0.2421   -1.0194   -6.2554 O.co2     1 GTP         0.3195
      8 O2B         1.2172   -3.2133   -6.4176 O.co2     1 GTP         0.3195
      9 O3A         1.4924   -1.6431   -4.4662 O.3       1 GTP         0.4672
     10 PA          2.8604   -2.1325   -3.7186 P.3       1 GTP        -1.1062
     11 O1A         2.9139   -3.6439   -3.7665 O.co2     1 GTP         0.3195
     12 O2A         4.0199   -1.2934   -4.2099 O.co2     1 GTP         0.3195
     13 O5'         2.5245   -1.6648   -2.1878 O.3       1 GTP         0.1618
     14 C5'         2.2816   -0.2918   -1.9206 C.3       1 GTP         0.1504
     15 C4'         2.7248    0.0226   -0.4980 C.3       1 GTP         0.1111
     16 O4'         2.4697    1.4219   -0.2462 O.3       1 GTP        -0.1436
     17 C3'         1.9404   -0.7419    0.5596 C.3       1 GTP         0.1111
     18 O3'         2.7418   -0.8086    1.7389 O.3       1 GTP        -0.2728
     19 C2'         0.7477    0.1630    0.7858 C.3       1 GTP         0.1111
     20 O2'         0.1373   -0.0577    2.0407 O.3       1 GTP        -0.2728
     21 C1'         1.3733    1.5427    0.6747 C.3       1 GTP         0.2693
     22 N9          0.4520    2.5240    0.1767 N.pl3     1 GTP        -0.3222
     23 C8          0.2203    2.8205   -1.0970 C.ar      1 GTP         0.1640
     24 N7         -0.6947    3.7752   -1.2304 N.pl3     1 GTP        -0.3688
     25 C5         -1.0607    4.0987    0.0476 C.ar      1 GTP         0.0648
     26 C6         -2.0310    5.0839    0.5029 C.ar      1 GTP         0.3597
     27 O6         -2.6779    5.7867   -0.2609 O.2       1 GTP        -0.2755
     28 N1         -2.1030    5.0975    1.8948 N.pl3     1 GTP        -0.1604
     29 C2         -1.3422    4.2721    2.7403 C.ar      1 GTP         0.4468
     30 N2         -1.5624    4.4419    4.0823 N.pl3     1 GTP        -0.5618
     31 N3         -0.4796    3.3981    2.2792 N.2       1 GTP        -0.4283
     32 C4         -0.3754    3.3496    0.9208 C.ar      1 GTP         0.2226
     33 H5'         2.8432    0.3119   -2.6398 H         1 GTP        -0.0393
     34 H5''        1.2128   -0.0927   -2.0428 H         1 GTP        -0.0393
     35 H4'         3.8044   -0.1397   -0.4040 H         1 GTP        -0.0393
     36 H3'         1.6764   -1.7639    0.2728 H         1 GTP        -0.0393
     37 HO3'        2.2232   -1.2979    2.3953 H         1 GTP         0.2010
     38 H2'        -0.0011    0.0027    0.0003 H         1 GTP        -0.0393
     39 HO2'       -0.1563   -0.9855    2.0596 H         1 GTP         0.2010
     40 H1'         1.7826    1.9024    1.6451 H         1 GTP        -0.0393
     41 H8          0.7110    2.3472   -1.9295 H         1 GTP         0.0000
     42 HN1        -2.7504    5.7495    2.3282 H         1 GTP         0.0865
     43 HN21       -1.0467    3.8796    4.7190 H         1 GTP         0.2048
     44 HN22       -2.2294    5.1209    4.3680 H         1 GTP         0.2048
     45 H45        -1.0382    4.1687   -2.0954 H         1 GTP         0.2048
@<TRIPOS>BOND
     1    1    2 2
     2    1    3 1
     3    1    4 1
     4    1    5 1
     5    5    6 1
     6    6    7 2
     7    6    8 1
     8    6    9 1
     9    9   10 1
    10   10   11 2
    11   10   12 1
    12   10   13 1
    13   13   14 1
    14   14   15 1
    15   14   33 1
    16   14   34 1
    17   15   16 1
    18   15   17 1
    19   15   35 1
    20   16   21 1
    21   17   18 1
    22   17   19 1
    23   17   36 1
    24   18   37 1
    25   19   20 1
    26   19   21 1
    27   19   38 1
    28   20   39 1
    29   21   22 1
    30   21   40 1
    31   22   23 ar
    32   22   32 ar
    33   23   24 ar
    34   23   41 1
    35   24   25 ar
    36   24   45 1
    37   25   26 ar
    38   25   32 ar
    39   26   27 2
    40   26   28 ar
    41   28   29 ar
    42   28   42 1
    43   29   30 1
    44   29   31 ar
    45   30   43 1
    46   30   44 1
    47   31   32 ar
@<TRIPOS>SUBSTRUCTURE
     1 GTP         1 GROUP 0 A     ****
@<TRIPOS>MOLECULE
[[[5-(2-amino-6-oxo-7,8-dihydro-1~{H}-purin-8-ylium-9-yl)-3,4-dihydroxy-tetrahydrofuran-2-yl]methoxy-oxido-phosphoryl]oxy-oxido-phosphoryl] phosphate
   45    47     1     0     0
SMALL
USER_CHARGES

@<TRIPOS>ATOM
      1 PG          2.0088    6.0835   -2.8599 P.3       1 GTP        -1.1921
      2 O1G         3.0851    6.7390   -3.7188 O.co2     1 GTP         0.3195
      3 O2G         0.5941    6.5815   -3.1356 O.co2     1 GTP         0.3195
      4 O3G         2.3614    5.9880   -1.3792 O.co2     1 GTP         0.3195
      5 O3B         1.9906    4.5127   -3.3622 O.3       1 GTP         0.4672
      6 PB          3.1800    3.3927   -3.3522 P.3       1 GTP        -1.1062
      7 O1B         4.2690    3.8304   -4.3062 O.co2     1 GTP         0.3195
      8 O2B         3.4877    3.0102   -1.9217 O.co2     1 GTP         0.3195
      9 O3A         2.3614    2.1374   -3.9999 O.3       1 GTP         0.4672
     10 PA          2.8629    0.6171   -4.3271 P.3       1 GTP        -1.1062
     11 O1A         1.6662   -0.1919   -4.7776 O.co2     1 GTP         0.3195
     12 O2A         4.1227    0.6810   -5.1632 O.co2     1 GTP         0.3195
     13 O5'         3.2903    0.1346   -2.8241 O.3       1 GTP         0.1618
     14 C5'         2.2816   -0.2918   -1.9206 C.3       1 GTP         0.1504
     15 C4'         2.7248    0.0226   -0.4980 C.3       1 GTP         0.1111
     16 O4'         2.4697    1.4219   -0.2462 O.3       1 GTP        -0.1436
     17 C3'         1.9404   -0.7419    0.5596 C.3       1 GTP         0.1111
     18 O3'         2.7418   -0.8086    1.7389 O.3       1 GTP        -0.2728
     19 C2'         0.7477    0.1630    0.7858 C.3       1 GTP         0.1111
     20 O2'         0.1373   -0.0577    2.0407 O.3       1 GTP        -0.2728
     21 C1'         1.3733    1.5427    0.6747 C.3       1 GTP         0.2693
     22 N9          0.4520    2.5240    0.1767 N.pl3     1 GTP        -0.3222
     23 C8          0.2203    2.8205   -1.0970 C.ar      1 GTP         0.1640
     24 N7         -0.6947    3.7752   -1.2304 N.pl3     1 GTP        -0.3688
     25 C5         -1.0607    4.0987    0.0476 C.ar      1 GTP         0.0648
     26 C6         -2.0310    5.0839    0.5029 C.ar      1 GTP         0.3597
     27 O6         -2.6779    5.7867   -0.2609 O.2       1 GTP        -0.2755
     28 N1         -2.1030    5.0975    1.8948 N.pl3     1 GTP        -0.1604
     29 C2         -1.3422    4.2721    2.7403 C.ar      1 GTP         0.4468
     30 N2         -1.5624    4.4419    4.0823 N.pl3     1 GTP        -0.5618
     31 N3         -0.4796    3.3981    2.2792 N.2       1 GTP        -0.4283
     32 C4         -0.3754    3.3496    0.9208 C.ar      1 GTP         0.2226
     33 H5'         1.3514    0.2330   -2.1577 H         1 GTP        -0.0393
     34 H5''        2.1280   -1.3678   -2.0460 H         1 GTP        -0.0393
     35 H4'         3.8044   -0.1397   -0.4040 H         1 GTP        -0.0393
     36 H3'         1.6764   -1.7639    0.2728 H         1 GTP        -0.0393
     37 HO3'        2.2232   -1.2979    2.3953 H         1 GTP         0.2010
     38 H2'        -0.0011    0.0027    0.0003 H         1 GTP        -0.0393
     39 HO2'       -0.1563   -0.9855    2.0596 H         1 GTP         0.2010
     40 H1'         1.7826    1.9024    1.6451 H         1 GTP        -0.0393
     41 H8          0.7110    2.3472   -1.9295 H         1 GTP         0.0000
     42 HN1        -2.7504    5.7495    2.3282 H         1 GTP         0.0865
     43 HN21       -1.0467    3.8796    4.7190 H         1 GTP         0.2048
     44 HN22       -2.2294    5.1209    4.3680 H         1 GTP         0.2048
     45 H45        -1.0382    4.1687   -2.0954 H         1 GTP         0.2048
@<TRIPOS>BOND
     1    1    2 2
     2    1    3 1
     3    1    4 1
     4    1    5 1
     5    5    6 1
     6    6    7 2
     7    6    8 1
     8    6    9 1
     9    9   10 1
    10   10   11 2
    11   10   12 1
    12   10   13 1
    13   13   14 1
    14   14   15 1
    15   14   33 1
    16   14   34 1
    17   15   16 1
    18   15   17 1
    19   15   35 1
    20   16   21 1
    21   17   18 1
    22   17   19 1
    23   17   36 1
    24   18   37 1
    25   19   20 1
    26   19   21 1
    27   19   38 1
    28   20   39 1
    29   21   22 1
    30   21   40 1
    31   22   23 ar
    32   22   32 ar
    33   23   24 ar
    34   23   41 1
    35   24   25 ar
    36   24   45 1
    37   25   26 ar
    38   25   32 ar
    39   26   27 2
    40   26   28 ar
    41   28   29 ar
    42   28   42 1
    43   29   30 1
    44   29   31 ar
    45   30   43 1
    46   30   44 1
    47   31   32 ar
@<TRIPOS>SUBSTRUCTURE
     1 GTP         1 GROUP 0 A     ****
@<TRIPOS>MOLECULE
[[[5-(2-amino-6-oxo-7,8-dihydro-1~{H}-purin-8-ylium-9-yl)-3,4-dihydroxy-tetrahydrofuran-2-yl]methoxy-oxido-phosphoryl]oxy-oxido-phosphoryl] phosphate
   45    47     1     0     0
SMALL
USER_CHARGES

@<TRIPOS>ATOM
      1 PG          1.8958   -3.4945   -7.4224 P.3       1 GTP        -1.1921
      2 O1G         2.5009   -2.8700   -8.6752 O.co2     1 GTP         0.3195
      3 O2G         2.7300   -4.6164   -6.8131 O.co2     1 GTP         0.3195
      4 O3G         0.4084   -3.8116   -7.5366 O.co2     1 GTP         0.3195
      5 O3B         1.9561   -2.2887   -6.2989 O.3       1 GTP         0.4672
      6 PB          1.2770   -0.8029   -6.3151 P.3       1 GTP        -1.1062
      7 O1B         1.9086    0.0092   -7.4237 O.co2     1 GTP         0.3195
      8 O2B        -0.2240   -0.9434   -6.1935 O.co2     1 GTP         0.3195
      9 O3A         1.8081   -0.2577   -4.8708 O.3       1 GTP         0.4672
     10 PA          3.3347   -0.0507   -4.3265 P.3       1 GTP        -1.1062
     11 O1A         3.9865   -1.4112   -4.2092 O.co2     1 GTP         0.3195
     12 O2A         3.9917    1.0658   -5.1088 O.co2     1 GTP         0.3195
     13 O5'         3.0213    0.5153   -2.8245 O.3       1 GTP         0.1618
     14 C5'         2.2816   -0.2918   -1.9206 C.3       1 GTP         0.1504
     15 C4'         2.7248    0.0226   -0.4980 C.3       1 GTP         0.1111
     16 O4'         2.4697    1.4219   -0.2462 O.3       1 GTP        -0.1436
     17 C3'         1.9404   -0.7419    0.5596 C.3       1 GTP         0.1111
     18 O3'         2.7418   -0.8086    1.7389 O.3       1 GTP        -0.2728
     19 C2'         0.7477    0.1630    0.7858 C.3       1 GTP         0.1111
     20 O2'         0.1373   -0.0577    2.0407 O.3       1 GTP        -0.2728
     21 C1'         1.3733    1.5427    0.6747 C.3       1 GTP         0.2693
     22 N9          0.4520    2.5240    0.1767 N.pl3     1 GTP        -0.3222
     23 C8         -0.2009    2.4849   -0.9792 C.ar      1 GTP         0.1640
     24 N7         -0.9840    3.5454   -1.1481 N.pl3     1 GTP        -0.3688
     25 C5         -0.8090    4.3005   -0.0206 C.ar      1 GTP         0.0648
     26 C6         -1.4206    5.5724    0.3362 C.ar      1 GTP         0.3597
     27 O6         -2.2199    6.1544   -0.3836 O.2       1 GTP        -0.2755
     28 N1         -0.9680    6.0043    1.5817 N.pl3     1 GTP        -0.1604
     29 C2         -0.0474    5.3055    2.3814 C.ar      1 GTP         0.4468
     30 N2          0.2680    5.9024    3.5740 N.pl3     1 GTP        -0.5618
     31 N3          0.4755    4.1601    2.0138 N.2       1 GTP        -0.4283
     32 C4          0.0611    3.6981    0.8001 C.ar      1 GTP         0.2226
     33 H5'         1.2163   -0.0770   -2.0471 H         1 GTP        -0.0393
     34 H5''        2.4655   -1.3443   -2.1563 H         1 GTP        -0.0393
     35 H4'         3.8044   -0.1397   -0.4040 H         1 GTP        -0.0393
     36 H3'         1.6764   -1.7639    0.2728 H         1 GTP        -0.0393
     37 HO3'        2.2232   -1.2979    2.3953 H         1 GTP         0.2010
     38 H2'        -0.0011    0.0027    0.0003 H         1 GTP        -0.0393
     39 HO2'       -0.6141    0.5574    2.1082 H         1 GTP         0.2010
     40 H1'         1.7826    1.9024    1.6451 H         1 GTP        -0.0393
     41 H8         -0.1126    1.6906   -1.6997 H         1 GTP         0.0000
     42 HN1        -1.3285    6.8855    1.9361 H         1 GTP         0.0865
     43 HN21        0.9153    5.4446    4.1732 H         1 GTP         0.2048
     44 HN22       -0.1624    6.7706    3.7948 H         1 GTP         0.2048
     45 H45        -1.5768    3.7405   -1.9429 H         1 GTP         0.2048
@<TRIPOS>BOND
     1    1    2 2
     2    1    3 1
     3    1    4 1
     4    1    5 1
     5    5    6 1
     6    6    7 2
     7    6    8 1
     8    6    9 1
     9    9   10 1
    10   10   11 2
    11   10   12 1
    12   10   13 1
    13   13   14 1
    14   14   15 1
    15   14   33 1
    16   14   34 1
    17   15   16 1
    18   15   17 1
    19   15   35 1
    20   16   21 1
    21   17   18 1
    22   17   19 1
    23   17   36 1
    24   18   37 1
    25   19   20 1
    26   19   21 1
    27   19   38 1
    28   20   39 1
    29   21   22 1
    30   21   40 1
    31   22   23 ar
    32   22   32 ar
    33   23   24 ar
    34   23   41 1
    35   24   25 ar
    36   24   45 1
    37   25   26 ar
    38   25   32 ar
    39   26   27 2
    40   26   28 ar
    41   28   29 ar
    42   28   42 1
    43   29   30 1
    44   29   31 ar
    45   30   43 1
    46   30   44 1
    47   31   32 ar
@<TRIPOS>SUBSTRUCTURE
     1 GTP         1 GROUP 0 A     ****
@<TRIPOS>MOLECULE
[[[5-(2-amino-6-oxo-7,8-dihydro-1~{H}-purin-8-ylium-9-yl)-3,4-dihydroxy-tetrahydrofuran-2-yl]methoxy-oxido-phosphoryl]oxy-oxido-phosphoryl] phosphate
   45    47     1     0     0
SMALL
USER_CHARGES

@<TRIPOS>ATOM
      1 PG         -3.3069   -3.9478   -0.6131 P.3       1 GTP        -1.1921
      2 O1G        -3.2477   -5.4568   -0.8257 O.co2     1 GTP         0.3195
      3 O2G        -3.3730   -3.5207    0.8493 O.co2     1 GTP         0.3195
      4 O3G        -4.2968   -3.2259   -1.5214 O.co2     1 GTP         0.3195
      5 O3B        -1.8356   -3.4083   -1.1268 O.3       1 GTP         0.4672
      6 PB         -1.1254   -3.5298   -2.5931 P.3       1 GTP        -1.1062
      7 O1B        -0.8454   -4.9884   -2.8791 O.co2     1 GTP         0.3195
      8 O2B        -1.8726   -2.6594   -3.5787 O.co2     1 GTP         0.3195
      9 O3A         0.2772   -2.7601   -2.2681 O.3       1 GTP         0.4672
     10 PA          1.5549   -2.4565   -3.2403 P.3       1 GTP        -1.1062
     11 O1A         2.2014   -3.7759   -3.6019 O.co2     1 GTP         0.3195
     12 O2A         1.1389   -1.4707   -4.3104 O.co2     1 GTP         0.3195
     13 O5'         2.5245   -1.6648   -2.1878 O.3       1 GTP         0.1618
     14 C5'         2.2816   -0.2918   -1.9206 C.3       1 GTP         0.1504
     15 C4'         2.7248    0.0226   -0.4980 C.3       1 GTP         0.1111
     16 O4'         2.4697    1.4219   -0.2462 O.3       1 GTP        -0.1436
     17 C3'         1.9404   -0.7419    0.5596 C.3       1 GTP         0.1111
     18 O3'         2.7418   -0.8086    1.7389 O.3       1 GTP        -0.2728
     19 C2'         0.7477    0.1630    0.7858 C.3       1 GTP         0.1111
     20 O2'         0.1373   -0.0577    2.0407 O.3       1 GTP        -0.2728
     21 C1'         1.3733    1.5427    0.6747 C.3       1 GTP         0.2693
     22 N9          0.4520    2.5240    0.1767 N.pl3     1 GTP        -0.3222
     23 C8         -0.2009    2.4849   -0.9792 C.ar      1 GTP         0.1640
     24 N7         -0.9840    3.5454   -1.1481 N.pl3     1 GTP        -0.3688
     25 C5         -0.8090    4.3005   -0.0206 C.ar      1 GTP         0.0648
     26 C6         -1.4206    5.5724    0.3362 C.ar      1 GTP         0.3597
     27 O6         -2.2199    6.1544   -0.3836 O.2       1 GTP        -0.2755
     28 N1         -0.9680    6.0043    1.5817 N.pl3     1 GTP        -0.1604
     29 C2         -0.0474    5.3055    2.3814 C.ar      1 GTP         0.4468
     30 N2          0.2680    5.9024    3.5740 N.pl3     1 GTP        -0.5618
     31 N3          0.4755    4.1601    2.0138 N.2       1 GTP        -0.4283
     32 C4          0.0611    3.6981    0.8001 C.ar      1 GTP         0.2226
     33 H5'         2.8432    0.3119   -2.6398 H         1 GTP        -0.0393
     34 H5''        1.2128   -0.0927   -2.0428 H         1 GTP        -0.0393
     35 H4'         3.8044   -0.1397   -0.4040 H         1 GTP        -0.0393
     36 H3'         1.6764   -1.7639    0.2728 H         1 GTP        -0.0393
     37 HO3'        2.2232   -1.2979    2.3953 H         1 GTP         0.2010
     38 H2'        -0.0011    0.0027    0.0003 H         1 GTP        -0.0393
     39 HO2'       -0.1563   -0.9855    2.0596 H         1 GTP         0.2010
     40 H1'         1.7826    1.9024    1.6451 H         1 GTP        -0.0393
     41 H8         -0.1126    1.6906   -1.6997 H         1 GTP         0.0000
     42 HN1        -1.3285    6.8855    1.9361 H         1 GTP         0.0865
     43 HN21        0.9153    5.4446    4.1732 H         1 GTP         0.2048
     44 HN22       -0.1624    6.7706    3.7948 H         1 GTP         0.2048
     45 H45        -1.5768    3.7405   -1.9429 H         1 GTP         0.2048
@<TRIPOS>BOND
     1    1    2 2
     2    1    3 1
     3    1    4 1
     4    1    5 1
     5    5    6 1
     6    6    7 2
     7    6    8 1
     8    6    9 1
     9    9   10 1
    10   10   11 2
    11   10   12 1
    12   10   13 1
    13   13   14 1
    14   14   15 1
    15   14   33 1
    16   14   34 1
    17   15   16 1
    18   15   17 1
    19   15   35 1
    20   16   21 1
    21   17   18 1
    22   17   19 1
    23   17   36 1
    24   18   37 1
    25   19   20 1
    26   19   21 1
    27   19   38 1
    28   20   39 1
    29   21   22 1
    30   21   40 1
    31   22   23 ar
    32   22   32 ar
    33   23   24 ar
    34   23   41 1
    35   24   25 ar
    36   24   45 1
    37   25   26 ar
    38   25   32 ar
    39   26   27 2
    40   26   28 ar
    41   28   29 ar
    42   28   42 1
    43   29   30 1
    44   29   31 ar
    45   30   43 1
    46   30   44 1
    47   31   32 ar
@<TRIPOS>SUBSTRUCTURE
     1 GTP         1 GROUP 0 A     ****
@<TRIPOS>MOLECULE
[[[5-(2-amino-6-oxo-7,8-dihydro-1~{H}-purin-8-ylium-9-yl)-3,4-dihydroxy-tetrahydrofuran-2-yl]methoxy-oxido-phosphoryl]oxy-oxido-phosphoryl] phosphate
   45    47     1     0     0
SMALL
USER_CHARGES

@<TRIPOS>ATOM
      1 PG         -1.4369    1.6883   -4.1953 P.3       1 GTP        -1.1921
      2 O1G        -0.5888    1.3647   -2.9699 O.co2     1 GTP         0.3195
      3 O2G        -2.2473    2.9748   -4.0776 O.co2     1 GTP         0.3195
      4 O3G        -2.2223    0.5018   -4.7443 O.co2     1 GTP         0.3195
      5 O3B        -0.3336    2.0111   -5.3779 O.3       1 GTP         0.4672
      6 PB          0.8428    1.0657   -6.0034 P.3       1 GTP        -1.1062
      7 O1B         0.2250   -0.2307   -6.4780 O.co2     1 GTP         0.3195
      8 O2B         1.7211    1.9014   -6.9075 O.co2     1 GTP         0.3195
      9 O3A         1.7067    0.7916   -4.6454 O.3       1 GTP         0.4672
     10 PA          3.0683   -0.0853   -4.4294 P.3       1 GTP        -1.1062
     11 O1A         2.7416   -1.5410   -4.6820 O.co2     1 GTP         0.3195
     12 O2A         4.2137    0.5946   -5.1476 O.co2     1 GTP         0.3195
     13 O5'         3.2903    0.1346   -2.8241 O.3       1 GTP         0.1618
     14 C5'         2.2816   -0.2918   -1.9206 C.3       1 GTP         0.1504
     15 C4'         2.7248    0.0226   -0.4980 C.3       1 GTP         0.1111
     16 O4'         2.4697    1.4219   -0.2462 O.3       1 GTP        -0.1436
     17 C3'         1.9404   -0.7419    0.5596 C.3       1 GTP         0.1111
     18 O3'         2.7418   -0.8086    1.7389 O.3       1 GTP        -0.2728
     19 C2'         0.7477    0.1630    0.7858 C.3       1 GTP         0.1111
     20 O2'         0.1373   -0.0577    2.0407 O.3       1 GTP        -0.2728
     21 C1'         1.3733    1.5427    0.6747 C.3       1 GTP         0.2693
     22 N9          0.4520    2.5240    0.1767 N.pl3     1 GTP        -0.3222
     23 C8          0.5671    3.2221   -0.9473 C.ar      1 GTP         0.1640
     24 N7         -0.4560    4.0508   -1.1290 N.pl3     1 GTP        -0.3688
     25 C5         -1.2671    3.8585   -0.0441 C.ar      1 GTP         0.0648
     26 C6         -2.5318    4.5014    0.2817 C.ar      1 GTP         0.3597
     27 O6         -3.0527    5.3493   -0.4293 O.2       1 GTP        -0.2755
     28 N1         -3.0357    4.0149    1.4868 N.pl3     1 GTP        -0.1604
     29 C2         -2.4069    3.0373    2.2768 C.ar      1 GTP         0.4468
     30 N2         -3.0679    2.6964    3.4278 N.pl3     1 GTP        -0.5618
     31 N3         -1.2653    2.4872    1.9379 N.2       1 GTP        -0.4283
     32 C4         -0.7342    2.9334    0.7643 C.ar      1 GTP         0.2226
     33 H5'         1.3514    0.2330   -2.1577 H         1 GTP        -0.0393
     34 H5''        2.1280   -1.3678   -2.0460 H         1 GTP        -0.0393
     35 H4'         3.8044   -0.1397   -0.4040 H         1 GTP        -0.0393
     36 H3'         1.6764   -1.7639    0.2728 H         1 GTP        -0.0393
     37 HO3'        2.2232   -1.2979    2.3953 H         1 GTP         0.2010
     38 H2'        -0.0011    0.0027    0.0003 H         1 GTP        -0.0393
     39 HO2'       -0.1563   -0.9855    2.0596 H         1 GTP         0.2010
     40 H1'         1.7826    1.9024    1.6451 H         1 GTP        -0.0393
     41 H8          1.3888    3.1325   -1.6361 H         1 GTP         0.0000
     42 HN1        -3.9188    4.3932    1.8170 H         1 GTP         0.0865
     43 HN21       -2.6609    2.0087    4.0186 H         1 GTP         0.2048
     44 HN22       -3.9293    3.1496    3.6283 H         1 GTP         0.2048
     45 H45        -0.5938    4.6820   -1.9060 H         1 GTP         0.2048
@<TRIPOS>BOND
     1    1    2 2
     2    1    3 1
     3    1    4 1
     4    1    5 1
     5    5    6 1
     6    6    7 2
     7    6    8 1
     8    6    9 1
     9    9   10 1
    10   10   11 2
    11   10   12 1
    12   10   13 1
    13   13   14 1
    14   14   15 1
    15   14   33 1
    16   14   34 1
    17   15   16 1
    18   15   17 1
    19   15   35 1
    20   16   21 1
    21   17   18 1
    22   17   19 1
    23   17   36 1
    24   18   37 1
    25   19   20 1
    26   19   21 1
    27   19   38 1
    28   20   39 1
    29   21   22 1
    30   21   40 1
    31   22   23 ar
    32   22   32 ar
    33   23   24 ar
    34   23   41 1
    35   24   25 ar
    36   24   45 1
    37   25   26 ar
    38   25   32 ar
    39   26   27 2
    40   26   28 ar
    41   28   29 ar
    42   28   42 1
    43   29   30 1
    44   29   31 ar
    45   30   43 1
    46   30   44 1
    47   31   32 ar
@<TRIPOS>SUBSTRUCTURE
     1 GTP         1 GROUP 0 A     ****
@<TRIPOS>MOLECULE
[[[5-(2-amino-6-oxo-7,8-dihydro-1~{H}-purin-8-ylium-9-yl)-3,4-dihydroxy-tetrahydrofuran-2-yl]methoxy-oxido-phosphoryl]oxy-oxido-phosphoryl] phosphate
   45    47     1     0     0
SMALL
USER_CHARGES

@<TRIPOS>ATOM
      1 PG          4.3718   -4.1803   -6.6473 P.3       1 GTP        -1.1921
      2 O1G         5.3334   -5.1771   -6.0089 O.co2     1 GTP         0.3195
      3 O2G         2.9320   -4.6724   -6.7498 O.co2     1 GTP         0.3195
      4 O3G         4.9016   -3.5255   -7.9188 O.co2     1 GTP         0.3195
      5 O3B         4.2993   -2.9376   -5.5655 O.3       1 GTP         0.4672
      6 PB          5.4856   -1.9685   -4.9977 P.3       1 GTP        -1.1062
      7 O1B         6.4492   -2.8037   -4.1844 O.co2     1 GTP         0.3195
      8 O2B         5.9660   -1.0680   -6.1138 O.co2     1 GTP         0.3195
      9 O3A         4.5998   -1.0308   -3.9969 O.3       1 GTP         0.4672
     10 PA          3.3347   -0.0507   -4.3265 P.3       1 GTP        -1.1062
     11 O1A         3.8300    1.0925   -5.1853 O.co2     1 GTP         0.3195
     12 O2A         2.1534   -0.8944   -4.7538 O.co2     1 GTP         0.3195
     13 O5'         3.0213    0.5153   -2.8245 O.3       1 GTP         0.1618
     14 C5'         2.2816   -0.2918   -1.9206 C.3       1 GTP         0.1504
     15 C4'         2.7248    0.0226   -0.4980 C.3       1 GTP         0.1111
     16 O4'         2.4697    1.4219   -0.2462 O.3       1 GTP        -0.1436
     17 C3'         1.9404   -0.7419    0.5596 C.3       1 GTP         0.1111
     18 O3'         2.7418   -0.8086    1.7389 O.3       1 GTP        -0.2728
     19 C2'         0.7477    0.1630    0.7858 C.3       1 GTP         0.1111
     20 O2'         0.1373   -0.0577    2.0407 O.3       1 GTP        -0.2728
     21 C1'         1.3733    1.5427    0.6747 C.3       1 GTP         0.2693
     22 N9          0.4520    2.5240    0.1767 N.pl3     1 GTP        -0.3222
     23 C8          0.2203    2.8205   -1.0970 C.ar      1 GTP         0.1640
     24 N7         -0.6947    3.7752   -1.2304 N.pl3     1 GTP        -0.3688
     25 C5         -1.0607    4.0987    0.0476 C.ar      1 GTP         0.0648
     26 C6         -2.0310    5.0839    0.5029 C.ar      1 GTP         0.3597
     27 O6         -2.6779    5.7867   -0.2609 O.2       1 GTP        -0.2755
     28 N1         -2.1030    5.0975    1.8948 N.pl3     1 GTP        -0.1604
     29 C2         -1.3422    4.2721    2.7403 C.ar      1 GTP         0.4468
     30 N2         -1.5624    4.4419    4.0823 N.pl3     1 GTP        -0.5618
     31 N3         -0.4796    3.3981    2.2792 N.2       1 GTP        -0.4283
     32 C4         -0.3754    3.3496    0.9208 C.ar      1 GTP         0.2226
     33 H5'         1.2163   -0.0770   -2.0471 H         1 GTP        -0.0393
     34 H5''        2.4655   -1.3443   -2.1563 H         1 GTP        -0.0393
     35 H4'         3.8044   -0.1397   -0.4040 H         1 GTP        -0.0393
     36 H3'         1.6764   -1.7639    0.2728 H         1 GTP        -0.0393
     37 HO3'        3.5554   -1.2733    1.4914 H         1 GTP         0.2010
     38 H2'        -0.0011    0.0027    0.0003 H         1 GTP        -0.0393
     39 HO2'       -0.1563   -0.9855    2.0596 H         1 GTP         0.2010
     40 H1'         1.7826    1.9024    1.6451 H         1 GTP        -0.0393
     41 H8          0.7110    2.3472   -1.9295 H         1 GTP         0.0000
     42 HN1        -2.7504    5.7495    2.3282 H         1 GTP         0.0865
     43 HN21       -1.0467    3.8796    4.7190 H         1 GTP         0.2048
     44 HN22       -2.2294    5.1209    4.3680 H         1 GTP         0.2048
     45 H45        -1.0382    4.1687   -2.0954 H         1 GTP         0.2048
@<TRIPOS>BOND
     1    1    2 2
     2    1    3 1
     3    1    4 1
     4    1    5 1
     5    5    6 1
     6    6    7 2
     7    6    8 1
     8    6    9 1
     9    9   10 1
    10   10   11 2
    11   10   12 1
    12   10   13 1
    13   13   14 1
    14   14   15 1
    15   14   33 1
    16   14   34 1
    17   15   16 1
    18   15   17 1
    19   15   35 1
    20   16   21 1
    21   17   18 1
    22   17   19 1
    23   17   36 1
    24   18   37 1
    25   19   20 1
    26   19   21 1
    27   19   38 1
    28   20   39 1
    29   21   22 1
    30   21   40 1
    31   22   23 ar
    32   22   32 ar
    33   23   24 ar
    34   23   41 1
    35   24   25 ar
    36   24   45 1
    37   25   26 ar
    38   25   32 ar
    39   26   27 2
    40   26   28 ar
    41   28   29 ar
    42   28   42 1
    43   29   30 1
    44   29   31 ar
    45   30   43 1
    46   30   44 1
    47   31   32 ar
@<TRIPOS>SUBSTRUCTURE
     1 GTP         1 GROUP 0 A     ****
@<TRIPOS>MOLECULE
[[[5-(2-amino-6-oxo-7,8-dihydro-1~{H}-purin-8-ylium-9-yl)-3,4-dihydroxy-tetrahydrofuran-2-yl]methoxy-oxido-phosphoryl]oxy-oxido-phosphoryl] phosphate
   45    47     1     0     0
SMALL
USER_CHARGES

@<TRIPOS>ATOM
      1 PG         -3.8454   -2.3109   -1.3484 P.3       1 GTP        -1.1921
      2 O1G        -4.1164   -3.8094   -1.2646 O.co2     1 GTP         0.3195
      3 O2G        -4.0159   -1.5661   -0.0286 O.co2     1 GTP         0.3195
      4 O3G        -4.4956   -1.6228   -2.5441 O.co2     1 GTP         0.3195
      5 O3B        -2.2302   -2.2085   -1.6657 O.3       1 GTP         0.4672
      6 PB         -1.3677   -2.7934   -2.9239 P.3       1 GTP        -1.1062
      7 O1B        -1.4041   -4.3047   -2.8786 O.co2     1 GTP         0.3195
      8 O2B        -1.7385   -2.0300   -4.1758 O.co2     1 GTP         0.3195
      9 O3A         0.1165   -2.2716   -2.4876 O.3       1 GTP         0.4672
     10 PA          1.5549   -2.4565   -3.2403 P.3       1 GTP        -1.1062
     11 O1A         1.9145   -3.9262   -3.2244 O.co2     1 GTP         0.3195
     12 O2A         1.5418   -1.6690   -4.5324 O.co2     1 GTP         0.3195
     13 O5'         2.5245   -1.6648   -2.1878 O.3       1 GTP         0.1618
     14 C5'         2.2816   -0.2918   -1.9206 C.3       1 GTP         0.1504
     15 C4'         2.7248    0.0226   -0.4980 C.3       1 GTP         0.1111
     16 O4'         2.4697    1.4219   -0.2462 O.3       1 GTP        -0.1436
     17 C3'         1.9404   -0.7419    0.5596 C.3       1 GTP         0.1111
     18 O3'         2.7418   -0.8086    1.7389 O.3       1 GTP        -0.2728
     19 C2'         0.7477    0.1630    0.7858 C.3       1 GTP         0.1111
     20 O2'         0.1373   -0.0577    2.0407 O.3       1 GTP        -0.2728
     21 C1'         1.3733    1.5427    0.6747 C.3       1 GTP         0.2693
     22 N9          0.4520    2.5240    0.1767 N.pl3     1 GTP        -0.3222
     23 C8          0.5671    3.2221   -0.9473 C.ar      1 GTP         0.1640
     24 N7         -0.4560    4.0508   -1.1290 N.pl3     1 GTP        -0.3688
     25 C5         -1.2671    3.8585   -0.0441 C.ar      1 GTP         0.0648
     26 C6         -2.5318    4.5014    0.2817 C.ar      1 GTP         0.3597
     27 O6         -3.0527    5.3493   -0.4293 O.2       1 GTP        -0.2755
     28 N1         -3.0357    4.0149    1.4868 N.pl3     1 GTP        -0.1604
     29 C2         -2.4069    3.0373    2.2768 C.ar      1 GTP         0.4468
     30 N2         -3.0679    2.6964    3.4278 N.pl3     1 GTP        -0.5618
     31 N3         -1.2653    2.4872    1.9379 N.2       1 GTP        -0.4283
     32 C4         -0.7342    2.9334    0.7643 C.ar      1 GTP         0.2226
     33 H5'         2.8432    0.3119   -2.6398 H         1 GTP        -0.0393
     34 H5''        1.2128   -0.0927   -2.0428 H         1 GTP        -0.0393
     35 H4'         3.8044   -0.1397   -0.4040 H         1 GTP        -0.0393
     36 H3'         1.6764   -1.7639    0.2728 H         1 GTP        -0.0393
     37 HO3'        2.2232   -1.2979    2.3953 H         1 GTP         0.2010
     38 H2'        -0.0011    0.0027    0.0003 H         1 GTP        -0.0393
     39 HO2'       -0.1563   -0.9855    2.0596 H         1 GTP         0.2010
     40 H1'         1.7826    1.9024    1.6451 H         1 GTP        -0.0393
     41 H8          1.3888    3.1325   -1.6361 H         1 GTP         0.0000
     42 HN1        -3.9188    4.3932    1.8170 H         1 GTP         0.0865
     43 HN21       -2.6609    2.0087    4.0186 H         1 GTP         0.2048
     44 HN22       -3.9293    3.1496    3.6283 H         1 GTP         0.2048
     45 H45        -0.5938    4.6820   -1.9060 H         1 GTP         0.2048
@<TRIPOS>BOND
     1    1    2 2
     2    1    3 1
     3    1    4 1
     4    1    5 1
     5    5    6 1
     6    6    7 2
     7    6    8 1
     8    6    9 1
     9    9   10 1
    10   10   11 2
    11   10   12 1
    12   10   13 1
    13   13   14 1
    14   14   15 1
    15   14   33 1
    16   14   34 1
    17   15   16 1
    18   15   17 1
    19   15   35 1
    20   16   21 1
    21   17   18 1
    22   17   19 1
    23   17   36 1
    24   18   37 1
    25   19   20 1
    26   19   21 1
    27   19   38 1
    28   20   39 1
    29   21   22 1
    30   21   40 1
    31   22   23 ar
    32   22   32 ar
    33   23   24 ar
    34   23   41 1
    35   24   25 ar
    36   24   45 1
    37   25   26 ar
    38   25   32 ar
    39   26   27 2
    40   26   28 ar
    41   28   29 ar
    42   28   42 1
    43   29   30 1
    44   29   31 ar
    45   30   43 1
    46   30   44 1
    47   31   32 ar
@<TRIPOS>SUBSTRUCTURE
     1 GTP         1 GROUP 0 A     ****
@<TRIPOS>MOLECULE
[[[5-(2-amino-6-oxo-7,8-dihydro-1~{H}-purin-8-ylium-9-yl)-3,4-dihydroxy-tetrahydrofuran-2-yl]methoxy-oxido-phosphoryl]oxy-oxido-phosphoryl] phosphate
   45    47     1     0     0
SMALL
USER_CHARGES

@<TRIPOS>ATOM
      1 PG         -1.3827    1.1921   -5.3106 P.3       1 GTP        -1.1921
      2 O1G        -2.2749    2.4288   -5.2934 O.co2     1 GTP         0.3195
      3 O2G        -1.7006    0.2025   -6.4265 O.co2     1 GTP         0.3195
      4 O3G        -1.1778    0.5487   -3.9430 O.co2     1 GTP         0.3195
      5 O3B         0.1103    1.7751   -5.6990 O.3       1 GTP         0.4672
      6 PB          1.0433    2.8718   -4.9272 P.3       1 GTP        -1.1062
      7 O1B         1.9881    3.4981   -5.9285 O.co2     1 GTP         0.3195
      8 O2B         0.1710    3.7172   -4.0262 O.co2     1 GTP         0.3195
      9 O3A         1.8764    1.8638   -3.9499 O.3       1 GTP         0.4672
     10 PA          2.8629    0.6171   -4.3271 P.3       1 GTP        -1.1062
     11 O1A         2.0304   -0.4703   -4.9706 O.co2     1 GTP         0.3195
     12 O2A         4.1038    1.1560   -5.0054 O.co2     1 GTP         0.3195
     13 O5'         3.2903    0.1346   -2.8241 O.3       1 GTP         0.1618
     14 C5'         2.2816   -0.2918   -1.9206 C.3       1 GTP         0.1504
     15 C4'         2.7248    0.0226   -0.4980 C.3       1 GTP         0.1111
     16 O4'         2.4697    1.4219   -0.2462 O.3       1 GTP        -0.1436
     17 C3'         1.9404   -0.7419    0.5596 C.3       1 GTP         0.1111
     18 O3'         2.7418   -0.8086    1.7389 O.3       1 GTP        -0.2728
     19 C2'         0.7477    0.1630    0.7858 C.3       1 GTP         0.1111
     20 O2'         0.1373   -0.0577    2.0407 O.3       1 GTP        -0.2728
     21 C1'         1.3733    1.5427    0.6747 C.3       1 GTP         0.2693
     22 N9          0.4520    2.5240    0.1767 N.pl3     1 GTP        -0.3222
     23 C8         -0.2009    2.4849   -0.9792 C.ar      1 GTP         0.1640
     24 N7         -0.9840    3.5454   -1.1481 N.pl3     1 GTP        -0.3688
     25 C5         -0.8090    4.3005   -0.0206 C.ar      1 GTP         0.0648
     26 C6         -1.4206    5.5724    0.3362 C.ar      1 GTP         0.3597
     27 O6         -2.2199    6.1544   -0.3836 O.2       1 GTP        -0.2755
     28 N1         -0.9680    6.0043    1.5817 N.pl3     1 GTP        -0.1604
     29 C2         -0.0474    5.3055    2.3814 C.ar      1 GTP         0.4468
     30 N2          0.2680    5.9024    3.5740 N.pl3     1 GTP        -0.5618
     31 N3          0.4755    4.1601    2.0138 N.2       1 GTP        -0.4283
     32 C4          0.0611    3.6981    0.8001 C.ar      1 GTP         0.2226
     33 H5'         1.3514    0.2330   -2.1577 H         1 GTP        -0.0393
     34 H5''        2.1280   -1.3678   -2.0460 H         1 GTP        -0.0393
     35 H4'         3.8044   -0.1397   -0.4040 H         1 GTP        -0.0393
     36 H3'         1.6764   -1.7639    0.2728 H         1 GTP        -0.0393
     37 HO3'        3.5554   -1.2733    1.4914 H         1 GTP         0.2010
     38 H2'        -0.0011    0.0027    0.0003 H         1 GTP        -0.0393
     39 HO2'       -0.1563   -0.9855    2.0596 H         1 GTP         0.2010
     40 H1'         1.7826    1.9024    1.6451 H         1 GTP        -0.0393
     41 H8         -0.1126    1.6906   -1.6997 H         1 GTP         0.0000
     42 HN1        -1.3285    6.8855    1.9361 H         1 GTP         0.0865
     43 HN21        0.9153    5.4446    4.1732 H         1 GTP         0.2048
     44 HN22       -0.1624    6.7706    3.7948 H         1 GTP         0.2048
     45 H45        -1.5768    3.7405   -1.9429 H         1 GTP         0.2048
@<TRIPOS>BOND
     1    1    2 2
     2    1    3 1
     3    1    4 1
     4    1    5 1
     5    5    6 1
     6    6    7 2
     7    6    8 1
     8    6    9 1
     9    9   10 1
    10   10   11 2
    11   10   12 1
    12   10   13 1
    13   13   14 1
    14   14   15 1
    15   14   33 1
    16   14   34 1
    17   15   16 1
    18   15   17 1
    19   15   35 1
    20   16   21 1
    21   17   18 1
    22   17   19 1
    23   17   36 1
    24   18   37 1
    25   19   20 1
    26   19   21 1
    27   19   38 1
    28   20   39 1
    29   21   22 1
    30   21   40 1
    31   22   23 ar
    32   22   32 ar
    33   23   24 ar
    34   23   41 1
    35   24   25 ar
    36   24   45 1
    37   25   26 ar
    38   25   32 ar
    39   26   27 2
    40   26   28 ar
    41   28   29 ar
    42   28   42 1
    43   29   30 1
    44   29   31 ar
    45   30   43 1
    46   30   44 1
    47   31   32 ar
@<TRIPOS>SUBSTRUCTURE
     1 GTP         1 GROUP 0 A     ****
@<TRIPOS>MOLECULE
[[[5-(2-amino-6-oxo-7,8-dihydro-1~{H}-purin-8-ylium-9-yl)-3,4-dihydroxy-tetrahydrofuran-2-yl]methoxy-oxido-phosphoryl]oxy-oxido-phosphoryl] phosphate
   45    47     1     0     0
SMALL
USER_CHARGES

@<TRIPOS>ATOM
      1 PG          4.2178    1.4508   -5.9597 P.3       1 GTP        -1.1921
      2 O1G         4.8108    2.2033   -4.7732 O.co2     1 GTP         0.3195
      3 O2G         4.7049    1.9375   -7.3203 O.co2     1 GTP         0.3195
      4 O3G         2.7103    1.2357   -5.8746 O.co2     1 GTP         0.3195
      5 O3B         4.8406   -0.0705   -5.8267 O.3       1 GTP         0.4672
      6 PB          4.7052   -1.1590   -4.6159 P.3       1 GTP        -1.1062
      7 O1B         5.3497   -2.4557   -5.0526 O.co2     1 GTP         0.3195
      8 O2B         5.0730   -0.4934   -3.3085 O.co2     1 GTP         0.3195
      9 O3A         3.0822   -1.3351   -4.6038 O.3       1 GTP         0.4672
     10 PA          2.1375   -2.2725   -3.6560 P.3       1 GTP        -1.1062
     11 O1A         0.6906   -1.9446   -3.9539 O.co2     1 GTP         0.3195
     12 O2A         2.6428   -3.6980   -3.7095 O.co2     1 GTP         0.3195
     13 O5'         2.5245   -1.6648   -2.1878 O.3       1 GTP         0.1618
     14 C5'         2.2816   -0.2918   -1.9206 C.3       1 GTP         0.1504
     15 C4'         2.7248    0.0226   -0.4980 C.3       1 GTP         0.1111
     16 O4'         2.4697    1.4219   -0.2462 O.3       1 GTP        -0.1436
     17 C3'         1.9404   -0.7419    0.5596 C.3       1 GTP         0.1111
     18 O3'         2.7418   -0.8086    1.7389 O.3       1 GTP        -0.2728
     19 C2'         0.7477    0.1630    0.7858 C.3       1 GTP         0.1111
     20 O2'         0.1373   -0.0577    2.0407 O.3       1 GTP        -0.2728
     21 C1'         1.3733    1.5427    0.6747 C.3       1 GTP         0.2693
     22 N9          0.4520    2.5240    0.1767 N.pl3     1 GTP        -0.3222
     23 C8          0.2203    2.8205   -1.0970 C.ar      1 GTP         0.1640
     24 N7         -0.6947    3.7752   -1.2304 N.pl3     1 GTP        -0.3688
     25 C5         -1.0607    4.0987    0.0476 C.ar      1 GTP         0.0648
     26 C6         -2.0310    5.0839    0.5029 C.ar      1 GTP         0.3597
     27 O6         -2.6779    5.7867   -0.2609 O.2       1 GTP        -0.2755
     28 N1         -2.1030    5.0975    1.8948 N.pl3     1 GTP        -0.1604
     29 C2         -1.3422    4.2721    2.7403 C.ar      1 GTP         0.4468
     30 N2         -1.5624    4.4419    4.0823 N.pl3     1 GTP        -0.5618
     31 N3         -0.4796    3.3981    2.2792 N.2       1 GTP        -0.4283
     32 C4         -0.3754    3.3496    0.9208 C.ar      1 GTP         0.2226
     33 H5'         2.8432    0.3119   -2.6398 H         1 GTP        -0.0393
     34 H5''        1.2128   -0.0927   -2.0428 H         1 GTP        -0.0393
     35 H4'         3.8044   -0.1397   -0.4040 H         1 GTP        -0.0393
     36 H3'         1.6764   -1.7639    0.2728 H         1 GTP        -0.0393
     37 HO3'        2.2232   -1.2979    2.3953 H         1 GTP         0.2010
     38 H2'        -0.0011    0.0027    0.0003 H         1 GTP        -0.0393
     39 HO2'       -0.6141    0.5574    2.1082 H         1 GTP         0.2010
     40 H1'         1.7826    1.9024    1.6451 H         1 GTP        -0.0393
     41 H8          0.7110    2.3472   -1.9295 H         1 GTP         0.0000
     42 HN1        -2.7504    5.7495    2.3282 H         1 GTP         0.0865
     43 HN21       -1.0467    3.8796    4.7190 H         1 GTP         0.2048
     44 HN22       -2.2294    5.1209    4.3680 H         1 GTP         0.2048
     45 H45        -1.0382    4.1687   -2.0954 H         1 GTP         0.2048
@<TRIPOS>BOND
     1    1    2 2
     2    1    3 1
     3    1    4 1
     4    1    5 1
     5    5    6 1
     6    6    7 2
     7    6    8 1
     8    6    9 1
     9    9   10 1
    10   10   11 2
    11   10   12 1
    12   10   13 1
    13   13   14 1
    14   14   15 1
    15   14   33 1
    16   14   34 1
    17   15   16 1
    18   15   17 1
    19   15   35 1
    20   16   21 1
    21   17   18 1
    22   17   19 1
    23   17   36 1
    24   18   37 1
    25   19   20 1
    26   19   21 1
    27   19   38 1
    28   20   39 1
    29   21   22 1
    30   21   40 1
    31   22   23 ar
    32   22   32 ar
    33   23   24 ar
    34   23   41 1
    35   24   25 ar
    36   24   45 1
    37   25   26 ar
    38   25   32 ar
    39   26   27 2
    40   26   28 ar
    41   28   29 ar
    42   28   42 1
    43   29   30 1
    44   29   31 ar
    45   30   43 1
    46   30   44 1
    47   31   32 ar
@<TRIPOS>SUBSTRUCTURE
     1 GTP         1 GROUP 0 A     ****
@<TRIPOS>MOLECULE
[[[5-(2-amino-6-oxo-7,8-dihydro-1~{H}-purin-8-ylium-9-yl)-3,4-dihydroxy-tetrahydrofuran-2-yl]methoxy-oxido-phosphoryl]oxy-oxido-phosphoryl] phosphate
   45    47     1     0     0
SMALL
USER_CHARGES

@<TRIPOS>ATOM
      1 PG          3.3447   -4.9595   -1.9943 P.3       1 GTP        -1.1921
      2 O1G         2.1619   -5.5997   -2.7132 O.co2     1 GTP         0.3195
      3 O2G         4.1528   -5.9230   -1.1316 O.co2     1 GTP         0.3195
      4 O3G         3.0215   -3.6324   -1.3159 O.co2     1 GTP         0.3195
      5 O3B         4.3779   -4.5393   -3.2091 O.3       1 GTP         0.4672
      6 PB          4.1534   -3.5369   -4.4795 P.3       1 GTP        -1.1062
      7 O1B         5.4636   -3.3889   -5.2204 O.co2     1 GTP         0.3195
      8 O2B         2.8785   -3.9232   -5.1956 O.co2     1 GTP         0.3195
      9 O3A         3.8279   -2.1576   -3.6689 O.3       1 GTP         0.4672
     10 PA          3.4850   -0.6647   -4.2376 P.3       1 GTP        -1.1062
     11 O1A         4.7151   -0.1278   -4.9364 O.co2     1 GTP         0.3195
     12 O2A         2.1420   -0.6972   -4.9342 O.co2     1 GTP         0.3195
     13 O5'         3.2903    0.1346   -2.8241 O.3       1 GTP         0.1618
     14 C5'         2.2816   -0.2918   -1.9206 C.3       1 GTP         0.1504
     15 C4'         2.7248    0.0226   -0.4980 C.3       1 GTP         0.1111
     16 O4'         2.4697    1.4219   -0.2462 O.3       1 GTP        -0.1436
     17 C3'         1.9404   -0.7419    0.5596 C.3       1 GTP         0.1111
     18 O3'         2.7418   -0.8086    1.7389 O.3       1 GTP        -0.2728
     19 C2'         0.7477    0.1630    0.7858 C.3       1 GTP         0.1111
     20 O2'         0.1373   -0.0577    2.0407 O.3       1 GTP        -0.2728
     21 C1'         1.3733    1.5427    0.6747 C.3       1 GTP         0.2693
     22 N9          0.4520    2.5240    0.1767 N.pl3     1 GTP        -0.3222
     23 C8          0.2203    2.8205   -1.0970 C.ar      1 GTP         0.1640
     24 N7         -0.6947    3.7752   -1.2304 N.pl3     1 GTP        -0.3688
     25 C5         -1.0607    4.0987    0.0476 C.ar      1 GTP         0.0648
     26 C6         -2.0310    5.0839    0.5029 C.ar      1 GTP         0.3597
     27 O6         -2.6779    5.7867   -0.2609 O.2       1 GTP        -0.2755
     28 N1         -2.1030    5.0975    1.8948 N.pl3     1 GTP        -0.1604
     29 C2         -1.3422    4.2721    2.7403 C.ar      1 GTP         0.4468
     30 N2         -1.5624    4.4419    4.0823 N.pl3     1 GTP        -0.5618
     31 N3         -0.4796    3.3981    2.2792 N.2       1 GTP        -0.4283
     32 C4         -0.3754    3.3496    0.9208 C.ar      1 GTP         0.2226
     33 H5'         1.3514    0.2330   -2.1577 H         1 GTP        -0.0393
     34 H5''        2.1280   -1.3678   -2.0460 H         1 GTP        -0.0393
     35 H4'         3.8044   -0.1397   -0.4040 H         1 GTP        -0.0393
     36 H3'         1.6764   -1.7639    0.2728 H         1 GTP        -0.0393
     37 HO3'        2.2232   -1.2979    2.3953 H         1 GTP         0.2010
     38 H2'        -0.0011    0.0027    0.0003 H         1 GTP        -0.0393
     39 HO2'       -0.6141    0.5574    2.1082 H         1 GTP         0.2010
     40 H1'         1.7826    1.9024    1.6451 H         1 GTP        -0.0393
     41 H8          0.7110    2.3472   -1.9295 H         1 GTP         0.0000
     42 HN1        -2.7504    5.7495    2.3282 H         1 GTP         0.0865
     43 HN21       -1.0467    3.8796    4.7190 H         1 GTP         0.2048
     44 HN22       -2.2294    5.1209    4.3680 H         1 GTP         0.2048
     45 H45        -1.0382    4.1687   -2.0954 H         1 GTP         0.2048
@<TRIPOS>BOND
     1    1    2 2
     2    1    3 1
     3    1    4 1
     4    1    5 1
     5    5    6 1
     6    6    7 2
     7    6    8 1
     8    6    9 1
     9    9   10 1
    10   10   11 2
    11   10   12 1
    12   10   13 1
    13   13   14 1
    14   14   15 1
    15   14   33 1
    16   14   34 1
    17   15   16 1
    18   15   17 1
    19   15   35 1
    20   16   21 1
    21   17   18 1
    22   17   19 1
    23   17   36 1
    24   18   37 1
    25   19   20 1
    26   19   21 1
    27   19   38 1
    28   20   39 1
    29   21   22 1
    30   21   40 1
    31   22   23 ar
    32   22   32 ar
    33   23   24 ar
    34   23   41 1
    35   24   25 ar
    36   24   45 1
    37   25   26 ar
    38   25   32 ar
    39   26   27 2
    40   26   28 ar
    41   28   29 ar
    42   28   42 1
    43   29   30 1
    44   29   31 ar
    45   30   43 1
    46   30   44 1
    47   31   32 ar
@<TRIPOS>SUBSTRUCTURE
     1 GTP         1 GROUP 0 A     ****
@<TRIPOS>MOLECULE
[[[5-(2-amino-6-oxo-7,8-dihydro-1~{H}-purin-8-ylium-9-yl)-3,4-dihydroxy-tetrahydrofuran-2-yl]methoxy-oxido-phosphoryl]oxy-oxido-phosphoryl] phosphate
   45    47     1     0     0
SMALL
USER_CHARGES

@<TRIPOS>ATOM
      1 PG          2.0042    1.6377   -8.7039 P.3       1 GTP        -1.1921
      2 O1G         1.3552    3.0167   -8.6474 O.co2     1 GTP         0.3195
      3 O2G         3.4626    1.6467   -9.1496 O.co2     1 GTP         0.3195
      4 O3G         1.1495    0.5707   -9.3800 O.co2     1 GTP         0.3195
      5 O3B         2.0648    1.1536   -7.1286 O.3       1 GTP         0.4672
      6 PB          0.8574    0.9308   -6.0508 P.3       1 GTP        -1.1062
      7 O1B         0.2115    2.2671   -5.7600 O.co2     1 GTP         0.3195
      8 O2B         0.0380   -0.2705   -6.4667 O.co2     1 GTP         0.3195
      9 O3A         1.7421    0.4621   -4.7613 O.3       1 GTP         0.4672
     10 PA          2.9240    1.2545   -3.9582 P.3       1 GTP        -1.1062
     11 O1A         4.1072    1.4127   -4.8880 O.co2     1 GTP         0.3195
     12 O2A         2.3242    2.4478   -3.2466 O.co2     1 GTP         0.3195
     13 O5'         3.2903    0.1346   -2.8241 O.3       1 GTP         0.1618
     14 C5'         2.2816   -0.2918   -1.9206 C.3       1 GTP         0.1504
     15 C4'         2.7248    0.0226   -0.4980 C.3       1 GTP         0.1111
     16 O4'         2.4697    1.4219   -0.2462 O.3       1 GTP        -0.1436
     17 C3'         1.9404   -0.7419    0.5596 C.3       1 GTP         0.1111
     18 O3'         2.7418   -0.8086    1.7389 O.3       1 GTP        -0.2728
     19 C2'         0.7477    0.1630    0.7858 C.3       1 GTP         0.1111
     20 O2'         0.1373   -0.0577    2.0407 O.3       1 GTP        -0.2728
     21 C1'         1.3733    1.5427    0.6747 C.3       1 GTP         0.2693
     22 N9          0.4520    2.5240    0.1767 N.pl3     1 GTP        -0.3222
     23 C8         -0.2009    2.4849   -0.9792 C.ar      1 GTP         0.1640
     24 N7         -0.9840    3.5454   -1.1481 N.pl3     1 GTP        -0.3688
     25 C5         -0.8090    4.3005   -0.0206 C.ar      1 GTP         0.0648
     26 C6         -1.4206    5.5724    0.3362 C.ar      1 GTP         0.3597
     27 O6         -2.2199    6.1544   -0.3836 O.2       1 GTP        -0.2755
     28 N1         -0.9680    6.0043    1.5817 N.pl3     1 GTP        -0.1604
     29 C2         -0.0474    5.3055    2.3814 C.ar      1 GTP         0.4468
     30 N2          0.2680    5.9024    3.5740 N.pl3     1 GTP        -0.5618
     31 N3          0.4755    4.1601    2.0138 N.2       1 GTP        -0.4283
     32 C4          0.0611    3.6981    0.8001 C.ar      1 GTP         0.2226
     33 H5'         1.3514    0.2330   -2.1577 H         1 GTP        -0.0393
     34 H5''        2.1280   -1.3678   -2.0460 H         1 GTP        -0.0393
     35 H4'         3.8044   -0.1397   -0.4040 H         1 GTP        -0.0393
     36 H3'         1.6764   -1.7639    0.2728 H         1 GTP        -0.0393
     37 HO3'        2.2232   -1.2979    2.3953 H         1 GTP         0.2010
     38 H2'        -0.0011    0.0027    0.0003 H         1 GTP        -0.0393
     39 HO2'       -0.6141    0.5574    2.1082 H         1 GTP         0.2010
     40 H1'         1.7826    1.9024    1.6451 H         1 GTP        -0.0393
     41 H8         -0.1126    1.6906   -1.6997 H         1 GTP         0.0000
     42 HN1        -1.3285    6.8855    1.9361 H         1 GTP         0.0865
     43 HN21        0.9153    5.4446    4.1732 H         1 GTP         0.2048
     44 HN22       -0.1624    6.7706    3.7948 H         1 GTP         0.2048
     45 H45        -1.5768    3.7405   -1.9429 H         1 GTP         0.2048
@<TRIPOS>BOND
     1    1    2 2
     2    1    3 1
     3    1    4 1
     4    1    5 1
     5    5    6 1
     6    6    7 2
     7    6    8 1
     8    6    9 1
     9    9   10 1
    10   10   11 2
    11   10   12 1
    12   10   13 1
    13   13   14 1
    14   14   15 1
    15   14   33 1
    16   14   34 1
    17   15   16 1
    18   15   17 1
    19   15   35 1
    20   16   21 1
    21   17   18 1
    22   17   19 1
    23   17   36 1
    24   18   37 1
    25   19   20 1
    26   19   21 1
    27   19   38 1
    28   20   39 1
    29   21   22 1
    30   21   40 1
    31   22   23 ar
    32   22   32 ar
    33   23   24 ar
    34   23   41 1
    35   24   25 ar
    36   24   45 1
    37   25   26 ar
    38   25   32 ar
    39   26   27 2
    40   26   28 ar
    41   28   29 ar
    42   28   42 1
    43   29   30 1
    44   29   31 ar
    45   30   43 1
    46   30   44 1
    47   31   32 ar
@<TRIPOS>SUBSTRUCTURE
     1 GTP         1 GROUP 0 A     ****
@<TRIPOS>MOLECULE
[[[5-(2-amino-6-oxo-7,8-dihydro-1~{H}-purin-8-ylium-9-yl)-3,4-dihydroxy-tetrahydrofuran-2-yl]methoxy-oxido-phosphoryl]oxy-oxido-phosphoryl] phosphate
   45    47     1     0     0
SMALL
USER_CHARGES

@<TRIPOS>ATOM
      1 PG         -0.3399    4.0346   -6.4722 P.3       1 GTP        -1.1921
      2 O1G        -1.4552    3.1678   -7.0471 O.co2     1 GTP         0.3195
      3 O2G        -0.8005    5.0333   -5.4158 O.co2     1 GTP         0.3195
      4 O3G         0.6007    4.6208   -7.5200 O.co2     1 GTP         0.3195
      5 O3B         0.6098    2.9737   -5.6402 O.3       1 GTP         0.4672
      6 PB          1.4220    1.6566   -6.1644 P.3       1 GTP        -1.1062
      7 O1B         0.4221    0.6180   -6.6215 O.co2     1 GTP         0.3195
      8 O2B         2.5641    2.0998   -7.0513 O.co2     1 GTP         0.3195
      9 O3A         2.0908    1.1835   -4.7522 O.3       1 GTP         0.4672
     10 PA          3.0683   -0.0853   -4.4294 P.3       1 GTP        -1.1062
     11 O1A         2.2802   -1.3592   -4.6431 O.co2     1 GTP         0.3195
     12 O2A         4.4021    0.1320   -5.1103 O.co2     1 GTP         0.3195
     13 O5'         3.2903    0.1346   -2.8241 O.3       1 GTP         0.1618
     14 C5'         2.2816   -0.2918   -1.9206 C.3       1 GTP         0.1504
     15 C4'         2.7248    0.0226   -0.4980 C.3       1 GTP         0.1111
     16 O4'         2.4697    1.4219   -0.2462 O.3       1 GTP        -0.1436
     17 C3'         1.9404   -0.7419    0.5596 C.3       1 GTP         0.1111
     18 O3'         2.7418   -0.8086    1.7389 O.3       1 GTP        -0.2728
     19 C2'         0.7477    0.1630    0.7858 C.3       1 GTP         0.1111
     20 O2'         0.1373   -0.0577    2.0407 O.3       1 GTP        -0.2728
     21 C1'         1.3733    1.5427    0.6747 C.3       1 GTP         0.2693
     22 N9          0.4520    2.5240    0.1767 N.pl3     1 GTP        -0.3222
     23 C8          0.5671    3.2221   -0.9473 C.ar      1 GTP         0.1640
     24 N7         -0.4560    4.0508   -1.1290 N.pl3     1 GTP        -0.3688
     25 C5         -1.2671    3.8585   -0.0441 C.ar      1 GTP         0.0648
     26 C6         -2.5318    4.5014    0.2817 C.ar      1 GTP         0.3597
     27 O6         -3.0527    5.3493   -0.4293 O.2       1 GTP        -0.2755
     28 N1         -3.0357    4.0149    1.4868 N.pl3     1 GTP        -0.1604
     29 C2         -2.4069    3.0373    2.2768 C.ar      1 GTP         0.4468
     30 N2         -3.0679    2.6964    3.4278 N.pl3     1 GTP        -0.5618
     31 N3         -1.2653    2.4872    1.9379 N.2       1 GTP        -0.4283
     32 C4         -0.7342    2.9334    0.7643 C.ar      1 GTP         0.2226
     33 H5'         1.3514    0.2330   -2.1577 H         1 GTP        -0.0393
     34 H5''        2.1280   -1.3678   -2.0460 H         1 GTP        -0.0393
     35 H4'         3.8044   -0.1397   -0.4040 H         1 GTP        -0.0393
     36 H3'         1.6764   -1.7639    0.2728 H         1 GTP        -0.0393
     37 HO3'        2.2232   -1.2979    2.3953 H         1 GTP         0.2010
     38 H2'        -0.0011    0.0027    0.0003 H         1 GTP        -0.0393
     39 HO2'       -0.1563   -0.9855    2.0596 H         1 GTP         0.2010
     40 H1'         1.7826    1.9024    1.6451 H         1 GTP        -0.0393
     41 H8          1.3888    3.1325   -1.6361 H         1 GTP         0.0000
     42 HN1        -3.9188    4.3932    1.8170 H         1 GTP         0.0865
     43 HN21       -2.6609    2.0087    4.0186 H         1 GTP         0.2048
     44 HN22       -3.9293    3.1496    3.6283 H         1 GTP         0.2048
     45 H45        -0.5938    4.6820   -1.9060 H         1 GTP         0.2048
@<TRIPOS>BOND
     1    1    2 2
     2    1    3 1
     3    1    4 1
     4    1    5 1
     5    5    6 1
     6    6    7 2
     7    6    8 1
     8    6    9 1
     9    9   10 1
    10   10   11 2
    11   10   12 1
    12   10   13 1
    13   13   14 1
    14   14   15 1
    15   14   33 1
    16   14   34 1
    17   15   16 1
    18   15   17 1
    19   15   35 1
    20   16   21 1
    21   17   18 1
    22   17   19 1
    23   17   36 1
    24   18   37 1
    25   19   20 1
    26   19   21 1
    27   19   38 1
    28   20   39 1
    29   21   22 1
    30   21   40 1
    31   22   23 ar
    32   22   32 ar
    33   23   24 ar
    34   23   41 1
    35   24   25 ar
    36   24   45 1
    37   25   26 ar
    38   25   32 ar
    39   26   27 2
    40   26   28 ar
    41   28   29 ar
    42   28   42 1
    43   29   30 1
    44   29   31 ar
    45   30   43 1
    46   30   44 1
    47   31   32 ar
@<TRIPOS>SUBSTRUCTURE
     1 GTP         1 GROUP 0 A     ****
@<TRIPOS>MOLECULE
[[[5-(2-amino-6-oxo-7,8-dihydro-1~{H}-purin-8-ylium-9-yl)-3,4-dihydroxy-tetrahydrofuran-2-yl]methoxy-oxido-phosphoryl]oxy-oxido-phosphoryl] phosphate
   45    47     1     0     0
SMALL
USER_CHARGES

@<TRIPOS>ATOM
      1 PG         -0.8610    0.4075   -7.4261 P.3       1 GTP        -1.1921
      2 O1G        -1.6580   -0.8865   -7.5529 O.co2     1 GTP         0.3195
      3 O2G        -1.6403    1.5693   -6.8190 O.co2     1 GTP         0.3195
      4 O3G        -0.0596    0.7739   -8.6709 O.co2     1 GTP         0.3195
      5 O3B         0.2947    0.0630   -6.3012 O.3       1 GTP         0.4672
      6 PB          1.4682   -1.0736   -6.3148 P.3       1 GTP        -1.1062
      7 O1B         0.8225   -2.4407   -6.2729 O.co2     1 GTP         0.3195
      8 O2B         2.4931   -0.7144   -7.3674 O.co2     1 GTP         0.3195
      9 O3A         2.1583   -0.7533   -4.8703 O.3       1 GTP         0.4672
     10 PA          2.8629    0.6171   -4.3271 P.3       1 GTP        -1.1062
     11 O1A         4.1178    0.8599   -5.1370 O.co2     1 GTP         0.3195
     12 O2A         1.8074    1.6915   -4.1805 O.co2     1 GTP         0.3195
     13 O5'         3.2903    0.1346   -2.8241 O.3       1 GTP         0.1618
     14 C5'         2.2816   -0.2918   -1.9206 C.3       1 GTP         0.1504
     15 C4'         2.7248    0.0226   -0.4980 C.3       1 GTP         0.1111
     16 O4'         2.4697    1.4219   -0.2462 O.3       1 GTP        -0.1436
     17 C3'         1.9404   -0.7419    0.5596 C.3       1 GTP         0.1111
     18 O3'         2.7418   -0.8086    1.7389 O.3       1 GTP        -0.2728
     19 C2'         0.7477    0.1630    0.7858 C.3       1 GTP         0.1111
     20 O2'         0.1373   -0.0577    2.0407 O.3       1 GTP        -0.2728
     21 C1'         1.3733    1.5427    0.6747 C.3       1 GTP         0.2693
     22 N9          0.4520    2.5240    0.1767 N.pl3     1 GTP        -0.3222
     23 C8          0.2203    2.8205   -1.0970 C.ar      1 GTP         0.1640
     24 N7         -0.6947    3.7752   -1.2304 N.pl3     1 GTP        -0.3688
     25 C5         -1.0607    4.0987    0.0476 C.ar      1 GTP         0.0648
     26 C6         -2.0310    5.0839    0.5029 C.ar      1 GTP         0.3597
     27 O6         -2.6779    5.7867   -0.2609 O.2       1 GTP        -0.2755
     28 N1         -2.1030    5.0975    1.8948 N.pl3     1 GTP        -0.1604
     29 C2         -1.3422    4.2721    2.7403 C.ar      1 GTP         0.4468
     30 N2         -1.5624    4.4419    4.0823 N.pl3     1 GTP        -0.5618
     31 N3         -0.4796    3.3981    2.2792 N.2       1 GTP        -0.4283
     32 C4         -0.3754    3.3496    0.9208 C.ar      1 GTP         0.2226
     33 H5'         1.3514    0.2330   -2.1577 H         1 GTP        -0.0393
     34 H5''        2.1280   -1.3678   -2.0460 H         1 GTP        -0.0393
     35 H4'         3.8044   -0.1397   -0.4040 H         1 GTP        -0.0393
     36 H3'         1.6764   -1.7639    0.2728 H         1 GTP        -0.0393
     37 HO3'        3.5554   -1.2733    1.4914 H         1 GTP         0.2010
     38 H2'        -0.0011    0.0027    0.0003 H         1 GTP        -0.0393
     39 HO2'       -0.1563   -0.9855    2.0596 H         1 GTP         0.2010
     40 H1'         1.7826    1.9024    1.6451 H         1 GTP        -0.0393
     41 H8          0.7110    2.3472   -1.9295 H         1 GTP         0.0000
     42 HN1        -2.7504    5.7495    2.3282 H         1 GTP         0.0865
     43 HN21       -1.0467    3.8796    4.7190 H         1 GTP         0.2048
     44 HN22       -2.2294    5.1209    4.3680 H         1 GTP         0.2048
     45 H45        -1.0382    4.1687   -2.0954 H         1 GTP         0.2048
@<TRIPOS>BOND
     1    1    2 2
     2    1    3 1
     3    1    4 1
     4    1    5 1
     5    5    6 1
     6    6    7 2
     7    6    8 1
     8    6    9 1
     9    9   10 1
    10   10   11 2
    11   10   12 1
    12   10   13 1
    13   13   14 1
    14   14   15 1
    15   14   33 1
    16   14   34 1
    17   15   16 1
    18   15   17 1
    19   15   35 1
    20   16   21 1
    21   17   18 1
    22   17   19 1
    23   17   36 1
    24   18   37 1
    25   19   20 1
    26   19   21 1
    27   19   38 1
    28   20   39 1
    29   21   22 1
    30   21   40 1
    31   22   23 ar
    32   22   32 ar
    33   23   24 ar
    34   23   41 1
    35   24   25 ar
    36   24   45 1
    37   25   26 ar
    38   25   32 ar
    39   26   27 2
    40   26   28 ar
    41   28   29 ar
    42   28   42 1
    43   29   30 1
    44   29   31 ar
    45   30   43 1
    46   30   44 1
    47   31   32 ar
@<TRIPOS>SUBSTRUCTURE
     1 GTP         1 GROUP 0 A     ****
@<TRIPOS>MOLECULE
[[[5-(2-amino-6-oxo-7,8-dihydro-1~{H}-purin-8-ylium-9-yl)-3,4-dihydroxy-tetrahydrofuran-2-yl]methoxy-oxido-phosphoryl]oxy-oxido-phosphoryl] phosphate
   45    47     1     0     0
SMALL
USER_CHARGES

@<TRIPOS>ATOM
      1 PG          1.3634   -3.7196   -5.7323 P.3       1 GTP        -1.1921
      2 O1G         0.0935   -3.9473   -6.5454 O.co2     1 GTP         0.3195
      3 O2G         2.4773   -4.7232   -6.0109 O.co2     1 GTP         0.3195
      4 O3G         1.1187   -3.4511   -4.2510 O.co2     1 GTP         0.3195
      5 O3B         1.9561   -2.2887   -6.2989 O.3       1 GTP         0.4672
      6 PB          1.2770   -0.8029   -6.3151 P.3       1 GTP        -1.1062
      7 O1B         1.9086    0.0092   -7.4237 O.co2     1 GTP         0.3195
      8 O2B        -0.2240   -0.9434   -6.1935 O.co2     1 GTP         0.3195
      9 O3A         1.8081   -0.2577   -4.8708 O.3       1 GTP         0.4672
     10 PA          3.3347   -0.0507   -4.3265 P.3       1 GTP        -1.1062
     11 O1A         3.9865   -1.4112   -4.2092 O.co2     1 GTP         0.3195
     12 O2A         3.9917    1.0658   -5.1088 O.co2     1 GTP         0.3195
     13 O5'         3.0213    0.5153   -2.8245 O.3       1 GTP         0.1618
     14 C5'         2.2816   -0.2918   -1.9206 C.3       1 GTP         0.1504
     15 C4'         2.7248    0.0226   -0.4980 C.3       1 GTP         0.1111
     16 O4'         2.4697    1.4219   -0.2462 O.3       1 GTP        -0.1436
     17 C3'         1.9404   -0.7419    0.5596 C.3       1 GTP         0.1111
     18 O3'         2.7418   -0.8086    1.7389 O.3       1 GTP        -0.2728
     19 C2'         0.7477    0.1630    0.7858 C.3       1 GTP         0.1111
     20 O2'         0.1373   -0.0577    2.0407 O.3       1 GTP        -0.2728
     21 C1'         1.3733    1.5427    0.6747 C.3       1 GTP         0.2693
     22 N9          0.4520    2.5240    0.1767 N.pl3     1 GTP        -0.3222
     23 C8          0.2203    2.8205   -1.0970 C.ar      1 GTP         0.1640
     24 N7         -0.6947    3.7752   -1.2304 N.pl3     1 GTP        -0.3688
     25 C5         -1.0607    4.0987    0.0476 C.ar      1 GTP         0.0648
     26 C6         -2.0310    5.0839    0.5029 C.ar      1 GTP         0.3597
     27 O6         -2.6779    5.7867   -0.2609 O.2       1 GTP        -0.2755
     28 N1         -2.1030    5.0975    1.8948 N.pl3     1 GTP        -0.1604
     29 C2         -1.3422    4.2721    2.7403 C.ar      1 GTP         0.4468
     30 N2         -1.5624    4.4419    4.0823 N.pl3     1 GTP        -0.5618
     31 N3         -0.4796    3.3981    2.2792 N.2       1 GTP        -0.4283
     32 C4         -0.3754    3.3496    0.9208 C.ar      1 GTP         0.2226
     33 H5'         1.2163   -0.0770   -2.0471 H         1 GTP        -0.0393
     34 H5''        2.4655   -1.3443   -2.1563 H         1 GTP        -0.0393
     35 H4'         3.8044   -0.1397   -0.4040 H         1 GTP        -0.0393
     36 H3'         1.6764   -1.7639    0.2728 H         1 GTP        -0.0393
     37 HO3'        3.5554   -1.2733    1.4914 H         1 GTP         0.2010
     38 H2'        -0.0011    0.0027    0.0003 H         1 GTP        -0.0393
     39 HO2'       -0.6141    0.5574    2.1082 H         1 GTP         0.2010
     40 H1'         1.7826    1.9024    1.6451 H         1 GTP        -0.0393
     41 H8          0.7110    2.3472   -1.9295 H         1 GTP         0.0000
     42 HN1        -2.7504    5.7495    2.3282 H         1 GTP         0.0865
     43 HN21       -1.0467    3.8796    4.7190 H         1 GTP         0.2048
     44 HN22       -2.2294    5.1209    4.3680 H         1 GTP         0.2048
     45 H45        -1.0382    4.1687   -2.0954 H         1 GTP         0.2048
@<TRIPOS>BOND
     1    1    2 2
     2    1    3 1
     3    1    4 1
     4    1    5 1
     5    5    6 1
     6    6    7 2
     7    6    8 1
     8    6    9 1
     9    9   10 1
    10   10   11 2
    11   10   12 1
    12   10   13 1
    13   13   14 1
    14   14   15 1
    15   14   33 1
    16   14   34 1
    17   15   16 1
    18   15   17 1
    19   15   35 1
    20   16   21 1
    21   17   18 1
    22   17   19 1
    23   17   36 1
    24   18   37 1
    25   19   20 1
    26   19   21 1
    27   19   38 1
    28   20   39 1
    29   21   22 1
    30   21   40 1
    31   22   23 ar
    32   22   32 ar
    33   23   24 ar
    34   23   41 1
    35   24   25 ar
    36   24   45 1
    37   25   26 ar
    38   25   32 ar
    39   26   27 2
    40   26   28 ar
    41   28   29 ar
    42   28   42 1
    43   29   30 1
    44   29   31 ar
    45   30   43 1
    46   30   44 1
    47   31   32 ar
@<TRIPOS>SUBSTRUCTURE
     1 GTP         1 GROUP 0 A     ****
@<TRIPOS>MOLECULE
[[[5-(2-amino-6-oxo-7,8-dihydro-1~{H}-purin-8-ylium-9-yl)-3,4-dihydroxy-tetrahydrofuran-2-yl]methoxy-oxido-phosphoryl]oxy-oxido-phosphoryl] phosphate
   45    47     1     0     0
SMALL
USER_CHARGES

@<TRIPOS>ATOM
      1 PG          4.5276   -4.1283   -4.5006 P.3       1 GTP        -1.1921
      2 O1G         3.3174   -4.8888   -5.0325 O.co2     1 GTP         0.3195
      3 O2G         5.8185   -4.9397   -4.4742 O.co2     1 GTP         0.3195
      4 O3G         4.2589   -3.3377   -3.2244 O.co2     1 GTP         0.3195
      5 O3B         4.8043   -2.9632   -5.6346 O.3       1 GTP         0.4672
      6 PB          3.8347   -1.7584   -6.1612 P.3       1 GTP        -1.1062
      7 O1B         4.6198   -0.8815   -7.1110 O.co2     1 GTP         0.3195
      8 O2B         2.4910   -2.3364   -6.5453 O.co2     1 GTP         0.3195
      9 O3A         3.6110   -0.9682   -4.7501 O.3       1 GTP         0.4672
     10 PA          2.7413    0.3775   -4.4298 P.3       1 GTP        -1.1062
     11 O1A         3.3915    1.5444   -5.1406 O.co2     1 GTP         0.3195
     12 O2A         1.2708    0.0714   -4.6137 O.co2     1 GTP         0.3195
     13 O5'         3.0213    0.5153   -2.8245 O.3       1 GTP         0.1618
     14 C5'         2.2816   -0.2918   -1.9206 C.3       1 GTP         0.1504
     15 C4'         2.7248    0.0226   -0.4980 C.3       1 GTP         0.1111
     16 O4'         2.4697    1.4219   -0.2462 O.3       1 GTP        -0.1436
     17 C3'         1.9404   -0.7419    0.5596 C.3       1 GTP         0.1111
     18 O3'         2.7418   -0.8086    1.7389 O.3       1 GTP        -0.2728
     19 C2'         0.7477    0.1630    0.7858 C.3       1 GTP         0.1111
     20 O2'         0.1373   -0.0577    2.0407 O.3       1 GTP        -0.2728
     21 C1'         1.3733    1.5427    0.6747 C.3       1 GTP         0.2693
     22 N9          0.4520    2.5240    0.1767 N.pl3     1 GTP        -0.3222
     23 C8         -0.2009    2.4849   -0.9792 C.ar      1 GTP         0.1640
     24 N7         -0.9840    3.5454   -1.1481 N.pl3     1 GTP        -0.3688
     25 C5         -0.8090    4.3005   -0.0206 C.ar      1 GTP         0.0648
     26 C6         -1.4206    5.5724    0.3362 C.ar      1 GTP         0.3597
     27 O6         -2.2199    6.1544   -0.3836 O.2       1 GTP        -0.2755
     28 N1         -0.9680    6.0043    1.5817 N.pl3     1 GTP        -0.1604
     29 C2         -0.0474    5.3055    2.3814 C.ar      1 GTP         0.4468
     30 N2          0.2680    5.9024    3.5740 N.pl3     1 GTP        -0.5618
     31 N3          0.4755    4.1601    2.0138 N.2       1 GTP        -0.4283
     32 C4          0.0611    3.6981    0.8001 C.ar      1 GTP         0.2226
     33 H5'         1.2163   -0.0770   -2.0471 H         1 GTP        -0.0393
     34 H5''        2.4655   -1.3443   -2.1563 H         1 GTP        -0.0393
     35 H4'         3.8044   -0.1397   -0.4040 H         1 GTP        -0.0393
     36 H3'         1.6764   -1.7639    0.2728 H         1 GTP        -0.0393
     37 HO3'        2.2232   -1.2979    2.3953 H         1 GTP         0.2010
     38 H2'        -0.0011    0.0027    0.0003 H         1 GTP        -0.0393
     39 HO2'       -0.1563   -0.9855    2.0596 H         1 GTP         0.2010
     40 H1'         1.7826    1.9024    1.6451 H         1 GTP        -0.0393
     41 H8         -0.1126    1.6906   -1.6997 H         1 GTP         0.0000
     42 HN1        -1.3285    6.8855    1.9361 H         1 GTP         0.0865
     43 HN21        0.9153    5.4446    4.1732 H         1 GTP         0.2048
     44 HN22       -0.1624    6.7706    3.7948 H         1 GTP         0.2048
     45 H45        -1.5768    3.7405   -1.9429 H         1 GTP         0.2048
@<TRIPOS>BOND
     1    1    2 2
     2    1    3 1
     3    1    4 1
     4    1    5 1
     5    5    6 1
     6    6    7 2
     7    6    8 1
     8    6    9 1
     9    9   10 1
    10   10   11 2
    11   10   12 1
    12   10   13 1
    13   13   14 1
    14   14   15 1
    15   14   33 1
    16   14   34 1
    17   15   16 1
    18   15   17 1
    19   15   35 1
    20   16   21 1
    21   17   18 1
    22   17   19 1
    23   17   36 1
    24   18   37 1
    25   19   20 1
    26   19   21 1
    27   19   38 1
    28   20   39 1
    29   21   22 1
    30   21   40 1
    31   22   23 ar
    32   22   32 ar
    33   23   24 ar
    34   23   41 1
    35   24   25 ar
    36   24   45 1
    37   25   26 ar
    38   25   32 ar
    39   26   27 2
    40   26   28 ar
    41   28   29 ar
    42   28   42 1
    43   29   30 1
    44   29   31 ar
    45   30   43 1
    46   30   44 1
    47   31   32 ar
@<TRIPOS>SUBSTRUCTURE
     1 GTP         1 GROUP 0 A     ****
@<TRIPOS>MOLECULE
[[[5-(2-amino-6-oxo-7,8-dihydro-1~{H}-purin-8-ylium-9-yl)-3,4-dihydroxy-tetrahydrofuran-2-yl]methoxy-oxido-phosphoryl]oxy-oxido-phosphoryl] phosphate
   45    47     1     0     0
SMALL
USER_CHARGES

@<TRIPOS>ATOM
      1 PG         -0.6882   -1.9751   -5.8535 P.3       1 GTP        -1.1921
      2 O1G        -2.1107   -1.5771   -6.2328 O.co2     1 GTP         0.3195
      3 O2G        -0.1092   -3.1120   -6.6889 O.co2     1 GTP         0.3195
      4 O3G        -0.4577   -2.1206   -4.3530 O.co2     1 GTP         0.3195
      5 O3B         0.2230   -0.6640   -6.2665 O.3       1 GTP         0.4672
      6 PB          0.1382    0.8813   -5.7431 P.3       1 GTP        -1.1062
      7 O1B         0.7331    1.7863   -6.7988 O.co2     1 GTP         0.3195
      8 O2B        -1.2374    1.1342   -5.1676 O.co2     1 GTP         0.3195
      9 O3A         1.1591    0.7827   -4.4728 O.3       1 GTP         0.4672
     10 PA          2.7413    0.3775   -4.4298 P.3       1 GTP        -1.1062
     11 O1A         2.8705   -1.0776   -4.8246 O.co2     1 GTP         0.3195
     12 O2A         3.5462    1.4514   -5.1291 O.co2     1 GTP         0.3195
     13 O5'         3.0213    0.5153   -2.8245 O.3       1 GTP         0.1618
     14 C5'         2.2816   -0.2918   -1.9206 C.3       1 GTP         0.1504
     15 C4'         2.7248    0.0226   -0.4980 C.3       1 GTP         0.1111
     16 O4'         2.4697    1.4219   -0.2462 O.3       1 GTP        -0.1436
     17 C3'         1.9404   -0.7419    0.5596 C.3       1 GTP         0.1111
     18 O3'         2.7418   -0.8086    1.7389 O.3       1 GTP        -0.2728
     19 C2'         0.7477    0.1630    0.7858 C.3       1 GTP         0.1111
     20 O2'         0.1373   -0.0577    2.0407 O.3       1 GTP        -0.2728
     21 C1'         1.3733    1.5427    0.6747 C.3       1 GTP         0.2693
     22 N9          0.4520    2.5240    0.1767 N.pl3     1 GTP        -0.3222
     23 C8         -0.6818    2.9109    0.7501 C.ar      1 GTP         0.1640
     24 N7         -1.3103    3.8415    0.0391 N.pl3     1 GTP        -0.3688
     25 C5         -0.5155    4.0512   -1.0547 C.ar      1 GTP         0.0648
     26 C6         -0.7125    4.9651   -2.1705 C.ar      1 GTP         0.3597
     27 O6         -1.6819    5.7047   -2.2651 O.2       1 GTP        -0.2755
     28 N1          0.3401    4.8672   -3.0790 N.pl3     1 GTP        -0.1604
     29 C2          1.4396    4.0039   -2.9348 C.ar      1 GTP         0.4468
     30 N2          2.3679    4.0602   -3.9414 N.pl3     1 GTP        -0.5618
     31 N3          1.5708    3.1983   -1.9080 N.2       1 GTP        -0.4283
     32 C4          0.5630    3.2599   -0.9921 C.ar      1 GTP         0.2226
     33 H5'         1.2163   -0.0770   -2.0471 H         1 GTP        -0.0393
     34 H5''        2.4655   -1.3443   -2.1563 H         1 GTP        -0.0393
     35 H4'         3.8044   -0.1397   -0.4040 H         1 GTP        -0.0393
     36 H3'         1.6764   -1.7639    0.2728 H         1 GTP        -0.0393
     37 HO3'        2.2232   -1.2979    2.3953 H         1 GTP         0.2010
     38 H2'        -0.0011    0.0027    0.0003 H         1 GTP        -0.0393
     39 HO2'       -0.1563   -0.9855    2.0596 H         1 GTP         0.2010
     40 H1'         1.7826    1.9024    1.6451 H         1 GTP        -0.0393
     41 H8         -1.0545    2.5222    1.6816 H         1 GTP         0.0000
     42 HN1         0.3104    5.4612   -3.9026 H         1 GTP         0.0865
     43 HN21        3.1632    3.4672   -3.8824 H         1 GTP         0.2048
     44 HN22        2.2108    4.6918   -4.6924 H         1 GTP         0.2048
     45 H45        -2.1863    4.2902    0.2681 H         1 GTP         0.2048
@<TRIPOS>BOND
     1    1    2 2
     2    1    3 1
     3    1    4 1
     4    1    5 1
     5    5    6 1
     6    6    7 2
     7    6    8 1
     8    6    9 1
     9    9   10 1
    10   10   11 2
    11   10   12 1
    12   10   13 1
    13   13   14 1
    14   14   15 1
    15   14   33 1
    16   14   34 1
    17   15   16 1
    18   15   17 1
    19   15   35 1
    20   16   21 1
    21   17   18 1
    22   17   19 1
    23   17   36 1
    24   18   37 1
    25   19   20 1
    26   19   21 1
    27   19   38 1
    28   20   39 1
    29   21   22 1
    30   21   40 1
    31   22   23 ar
    32   22   32 ar
    33   23   24 ar
    34   23   41 1
    35   24   25 ar
    36   24   45 1
    37   25   26 ar
    38   25   32 ar
    39   26   27 2
    40   26   28 ar
    41   28   29 ar
    42   28   42 1
    43   29   30 1
    44   29   31 ar
    45   30   43 1
    46   30   44 1
    47   31   32 ar
@<TRIPOS>SUBSTRUCTURE
     1 GTP         1 GROUP 0 A     ****
@<TRIPOS>MOLECULE
[[[5-(2-amino-6-oxo-7,8-dihydro-1~{H}-purin-8-ylium-9-yl)-3,4-dihydroxy-tetrahydrofuran-2-yl]methoxy-oxido-phosphoryl]oxy-oxido-phosphoryl] phosphate
   45    47     1     0     0
SMALL
USER_CHARGES

@<TRIPOS>ATOM
      1 PG          1.4120    1.0504   -6.4529 P.3       1 GTP        -1.1921
      2 O1G         2.7979    1.2600   -5.8518 O.co2     1 GTP         0.3195
      3 O2G         1.2954    1.4509   -7.9197 O.co2     1 GTP         0.3195
      4 O3G         0.2674    1.5465   -5.5756 O.co2     1 GTP         0.3195
      5 O3B         1.2186   -0.5874   -6.4635 O.3       1 GTP         0.4672
      6 PB          1.2312   -1.6547   -5.2266 P.3       1 GTP        -1.1062
      7 O1B         0.2205   -1.2129   -4.1918 O.co2     1 GTP         0.3195
      8 O2B         1.2291   -3.0601   -5.7854 O.co2     1 GTP         0.3195
      9 O3A         2.7398   -1.3839   -4.6640 O.3       1 GTP         0.4672
     10 PA          3.5298   -2.0738   -3.4112 P.3       1 GTP        -1.1062
     11 O1A         3.4911   -3.5755   -3.5934 O.co2     1 GTP         0.3195
     12 O2A         4.8387   -1.3468   -3.1911 O.co2     1 GTP         0.3195
     13 O5'         2.5245   -1.6648   -2.1878 O.3       1 GTP         0.1618
     14 C5'         2.2816   -0.2918   -1.9206 C.3       1 GTP         0.1504
     15 C4'         2.7248    0.0226   -0.4980 C.3       1 GTP         0.1111
     16 O4'         2.4697    1.4219   -0.2462 O.3       1 GTP        -0.1436
     17 C3'         1.9404   -0.7419    0.5596 C.3       1 GTP         0.1111
     18 O3'         2.7418   -0.8086    1.7389 O.3       1 GTP        -0.2728
     19 C2'         0.7477    0.1630    0.7858 C.3       1 GTP         0.1111
     20 O2'         0.1373   -0.0577    2.0407 O.3       1 GTP        -0.2728
     21 C1'         1.3733    1.5427    0.6747 C.3       1 GTP         0.2693
     22 N9          0.4520    2.5240    0.1767 N.pl3     1 GTP        -0.3222
     23 C8          0.2203    2.8205   -1.0970 C.ar      1 GTP         0.1640
     24 N7         -0.6947    3.7752   -1.2304 N.pl3     1 GTP        -0.3688
     25 C5         -1.0607    4.0987    0.0476 C.ar      1 GTP         0.0648
     26 C6         -2.0310    5.0839    0.5029 C.ar      1 GTP         0.3597
     27 O6         -2.6779    5.7867   -0.2609 O.2       1 GTP        -0.2755
     28 N1         -2.1030    5.0975    1.8948 N.pl3     1 GTP        -0.1604
     29 C2         -1.3422    4.2721    2.7403 C.ar      1 GTP         0.4468
     30 N2         -1.5624    4.4419    4.0823 N.pl3     1 GTP        -0.5618
     31 N3         -0.4796    3.3981    2.2792 N.2       1 GTP        -0.4283
     32 C4         -0.3754    3.3496    0.9208 C.ar      1 GTP         0.2226
     33 H5'         2.8432    0.3119   -2.6398 H         1 GTP        -0.0393
     34 H5''        1.2128   -0.0927   -2.0428 H         1 GTP        -0.0393
     35 H4'         3.8044   -0.1397   -0.4040 H         1 GTP        -0.0393
     36 H3'         1.6764   -1.7639    0.2728 H         1 GTP        -0.0393
     37 HO3'        2.2232   -1.2979    2.3953 H         1 GTP         0.2010
     38 H2'        -0.0011    0.0027    0.0003 H         1 GTP        -0.0393
     39 HO2'       -0.1563   -0.9855    2.0596 H         1 GTP         0.2010
     40 H1'         1.7826    1.9024    1.6451 H         1 GTP        -0.0393
     41 H8          0.7110    2.3472   -1.9295 H         1 GTP         0.0000
     42 HN1        -2.7504    5.7495    2.3282 H         1 GTP         0.0865
     43 HN21       -1.0467    3.8796    4.7190 H         1 GTP         0.2048
     44 HN22       -2.2294    5.1209    4.3680 H         1 GTP         0.2048
     45 H45        -1.0382    4.1687   -2.0954 H         1 GTP         0.2048
@<TRIPOS>BOND
     1    1    2 2
     2    1    3 1
     3    1    4 1
     4    1    5 1
     5    5    6 1
     6    6    7 2
     7    6    8 1
     8    6    9 1
     9    9   10 1
    10   10   11 2
    11   10   12 1
    12   10   13 1
    13   13   14 1
    14   14   15 1
    15   14   33 1
    16   14   34 1
    17   15   16 1
    18   15   17 1
    19   15   35 1
    20   16   21 1
    21   17   18 1
    22   17   19 1
    23   17   36 1
    24   18   37 1
    25   19   20 1
    26   19   21 1
    27   19   38 1
    28   20   39 1
    29   21   22 1
    30   21   40 1
    31   22   23 ar
    32   22   32 ar
    33   23   24 ar
    34   23   41 1
    35   24   25 ar
    36   24   45 1
    37   25   26 ar
    38   25   32 ar
    39   26   27 2
    40   26   28 ar
    41   28   29 ar
    42   28   42 1
    43   29   30 1
    44   29   31 ar
    45   30   43 1
    46   30   44 1
    47   31   32 ar
@<TRIPOS>SUBSTRUCTURE
     1 GTP         1 GROUP 0 A     ****
@<TRIPOS>MOLECULE
[[[5-(2-amino-6-oxo-7,8-dihydro-1~{H}-purin-8-ylium-9-yl)-3,4-dihydroxy-tetrahydrofuran-2-yl]methoxy-oxido-phosphoryl]oxy-oxido-phosphoryl] phosphate
   45    47     1     0     0
SMALL
USER_CHARGES

@<TRIPOS>ATOM
      1 PG          7.9085   -3.4545   -1.3912 P.3       1 GTP        -1.1921
      2 O1G         9.1659   -2.8105   -1.9658 O.co2     1 GTP         0.3195
      3 O2G         7.8302   -3.4326    0.1316 O.co2     1 GTP         0.3195
      4 O3G         7.5515   -4.7986   -2.0172 O.co2     1 GTP         0.3195
      5 O3B         6.6862   -2.4582   -1.8742 O.3       1 GTP         0.4672
      6 PB          6.2089   -2.0337   -3.3779 P.3       1 GTP        -1.1062
      7 O1B         7.3103   -1.2268   -4.0287 O.co2     1 GTP         0.3195
      8 O2B         5.5995   -3.2370   -4.0621 O.co2     1 GTP         0.3195
      9 O3A         4.9683   -1.0464   -2.9888 O.3       1 GTP         0.4672
     10 PA          3.9556   -0.2056   -3.9568 P.3       1 GTP        -1.1062
     11 O1A         4.7578    0.8568   -4.6761 O.co2     1 GTP         0.3195
     12 O2A         3.0820   -1.1766   -4.7210 O.co2     1 GTP         0.3195
     13 O5'         3.0213    0.5153   -2.8245 O.3       1 GTP         0.1618
     14 C5'         2.2816   -0.2918   -1.9206 C.3       1 GTP         0.1504
     15 C4'         2.7248    0.0226   -0.4980 C.3       1 GTP         0.1111
     16 O4'         2.4697    1.4219   -0.2462 O.3       1 GTP        -0.1436
     17 C3'         1.9404   -0.7419    0.5596 C.3       1 GTP         0.1111
     18 O3'         2.7418   -0.8086    1.7389 O.3       1 GTP        -0.2728
     19 C2'         0.7477    0.1630    0.7858 C.3       1 GTP         0.1111
     20 O2'         0.1373   -0.0577    2.0407 O.3       1 GTP        -0.2728
     21 C1'         1.3733    1.5427    0.6747 C.3       1 GTP         0.2693
     22 N9          0.4520    2.5240    0.1767 N.pl3     1 GTP        -0.3222
     23 C8         -0.2009    2.4849   -0.9792 C.ar      1 GTP         0.1640
     24 N7         -0.9840    3.5454   -1.1481 N.pl3     1 GTP        -0.3688
     25 C5         -0.8090    4.3005   -0.0206 C.ar      1 GTP         0.0648
     26 C6         -1.4206    5.5724    0.3362 C.ar      1 GTP         0.3597
     27 O6         -2.2199    6.1544   -0.3836 O.2       1 GTP        -0.2755
     28 N1         -0.9680    6.0043    1.5817 N.pl3     1 GTP        -0.1604
     29 C2         -0.0474    5.3055    2.3814 C.ar      1 GTP         0.4468
     30 N2          0.2680    5.9024    3.5740 N.pl3     1 GTP        -0.5618
     31 N3          0.4755    4.1601    2.0138 N.2       1 GTP        -0.4283
     32 C4          0.0611    3.6981    0.8001 C.ar      1 GTP         0.2226
     33 H5'         1.2163   -0.0770   -2.0471 H         1 GTP        -0.0393
     34 H5''        2.4655   -1.3443   -2.1563 H         1 GTP        -0.0393
     35 H4'         3.8044   -0.1397   -0.4040 H         1 GTP        -0.0393
     36 H3'         1.6764   -1.7639    0.2728 H         1 GTP        -0.0393
     37 HO3'        2.2232   -1.2979    2.3953 H         1 GTP         0.2010
     38 H2'        -0.0011    0.0027    0.0003 H         1 GTP        -0.0393
     39 HO2'       -0.6141    0.5574    2.1082 H         1 GTP         0.2010
     40 H1'         1.7826    1.9024    1.6451 H         1 GTP        -0.0393
     41 H8         -0.1126    1.6906   -1.6997 H         1 GTP         0.0000
     42 HN1        -1.3285    6.8855    1.9361 H         1 GTP         0.0865
     43 HN21        0.9153    5.4446    4.1732 H         1 GTP         0.2048
     44 HN22       -0.1624    6.7706    3.7948 H         1 GTP         0.2048
     45 H45        -1.5768    3.7405   -1.9429 H         1 GTP         0.2048
@<TRIPOS>BOND
     1    1    2 2
     2    1    3 1
     3    1    4 1
     4    1    5 1
     5    5    6 1
     6    6    7 2
     7    6    8 1
     8    6    9 1
     9    9   10 1
    10   10   11 2
    11   10   12 1
    12   10   13 1
    13   13   14 1
    14   14   15 1
    15   14   33 1
    16   14   34 1
    17   15   16 1
    18   15   17 1
    19   15   35 1
    20   16   21 1
    21   17   18 1
    22   17   19 1
    23   17   36 1
    24   18   37 1
    25   19   20 1
    26   19   21 1
    27   19   38 1
    28   20   39 1
    29   21   22 1
    30   21   40 1
    31   22   23 ar
    32   22   32 ar
    33   23   24 ar
    34   23   41 1
    35   24   25 ar
    36   24   45 1
    37   25   26 ar
    38   25   32 ar
    39   26   27 2
    40   26   28 ar
    41   28   29 ar
    42   28   42 1
    43   29   30 1
    44   29   31 ar
    45   30   43 1
    46   30   44 1
    47   31   32 ar
@<TRIPOS>SUBSTRUCTURE
     1 GTP         1 GROUP 0 A     ****
@<TRIPOS>MOLECULE
[[[5-(2-amino-6-oxo-7,8-dihydro-1~{H}-purin-8-ylium-9-yl)-3,4-dihydroxy-tetrahydrofuran-2-yl]methoxy-oxido-phosphoryl]oxy-oxido-phosphoryl] phosphate
   45    47     1     0     0
SMALL
USER_CHARGES

@<TRIPOS>ATOM
      1 PG         -6.5442   -5.3287    4.5485 P.3       1 GTP        -1.1921
      2 O1G        -7.1414   -6.6954    4.2300 O.co2     1 GTP         0.3195
      3 O2G        -5.9900   -5.1987    5.9633 O.co2     1 GTP         0.3195
      4 O3G        -7.4035   -4.1505    4.1020 O.co2     1 GTP         0.3195
      5 O3B        -5.2120   -5.2334    3.5810 O.3       1 GTP         0.4672
      6 PB         -5.0888   -5.3010    1.9533 P.3       1 GTP        -1.1062
      7 O1B        -5.4967   -6.6822    1.4911 O.co2     1 GTP         0.3195
      8 O2B        -5.7030   -4.0538    1.3581 O.co2     1 GTP         0.3195
      9 O3A        -3.4713   -5.1341    1.8072 O.3       1 GTP         0.4672
     10 PA         -2.2649   -6.0688    2.3909 P.3       1 GTP        -1.1062
     11 O1A        -2.2781   -5.9742    3.9010 O.co2     1 GTP         0.3195
     12 O2A        -2.2962   -7.4104    1.6916 O.co2     1 GTP         0.3195
     13 O5'        -0.9724   -5.2440    1.8220 O.3       1 GTP         0.1618
     14 C5'        -0.7840   -3.8935    2.2172 C.3       1 GTP         0.1504
     15 C4'        -0.0724   -3.1466    1.1027 C.3       1 GTP         0.1111
     16 O4'        -0.8674   -3.1929   -0.0945 O.3       1 GTP        -0.1436
     17 C3'         0.1338   -1.6715    1.4027 C.3       1 GTP         0.1111
     18 O3'         1.2893   -1.4445    2.1808 O.3       1 GTP        -0.2728
     19 C2'         0.2158   -1.0724    0.0128 C.3       1 GTP         0.1111
     20 O2'         1.5141   -1.2448   -0.5513 O.3       1 GTP        -0.2728
     21 C1'        -0.7897   -1.9176   -0.7583 C.3       1 GTP         0.2693
     22 N9         -2.1040   -1.3333   -0.7704 N.pl3     1 GTP        -0.3222
     23 C8         -3.0597   -1.5109    0.1345 C.ar      1 GTP         0.1640
     24 N7         -4.1618   -0.8291   -0.1607 N.pl3     1 GTP        -0.3688
     25 C5         -3.8764   -0.1805   -1.3310 C.ar      1 GTP         0.0648
     26 C6         -4.7187    0.7111   -2.1152 C.ar      1 GTP         0.3597
     27 O6         -5.8617    1.0043   -1.7939 O.2       1 GTP        -0.2755
     28 N1         -4.0405    1.1608   -3.2468 N.pl3     1 GTP        -0.1604
     29 C2         -2.7239    0.8013   -3.5822 C.ar      1 GTP         0.4468
     30 N2         -2.2399    1.3534   -4.7394 N.pl3     1 GTP        -0.5618
     31 N3         -2.0053   -0.0071   -2.8402 N.2       1 GTP        -0.4283
     32 C4         -2.6290   -0.4727   -1.7210 C.ar      1 GTP         0.2226
     33 H5'        -1.7618   -3.4448    2.4164 H         1 GTP        -0.0393
     34 H5''       -0.1874   -3.8744    3.1341 H         1 GTP        -0.0393
     35 H4'         0.8874   -3.6466    0.8805 H         1 GTP        -0.0393
     36 H3'        -0.7376   -1.2333    1.9867 H         1 GTP        -0.0393
     37 HO3'        1.3408   -0.4870    2.3219 H         1 GTP         0.2010
     38 H2'        -0.0384   -0.0310    0.0096 H         1 GTP        -0.0393
     39 HO2'        2.1463   -0.7958    0.0370 H         1 GTP         0.2010
     40 H1'        -0.4769   -2.1002   -1.8093 H         1 GTP        -0.0393
     41 H8         -2.9610   -2.1316    1.0079 H         1 GTP         0.0000
     42 HN1        -4.5320    1.7923   -3.8726 H         1 GTP         0.0865
     43 HN21       -1.3128    1.1277   -5.0171 H         1 GTP         0.2048
     44 HN22       -2.8342    1.9586   -5.2572 H         1 GTP         0.2048
     45 H45        -5.0195   -0.8034    0.3729 H         1 GTP         0.2048
@<TRIPOS>BOND
     1    1    2 2
     2    1    3 1
     3    1    4 1
     4    1    5 1
     5    5    6 1
     6    6    7 2
     7    6    8 1
     8    6    9 1
     9    9   10 1
    10   10   11 2
    11   10   12 1
    12   10   13 1
    13   13   14 1
    14   14   15 1
    15   14   33 1
    16   14   34 1
    17   15   16 1
    18   15   17 1
    19   15   35 1
    20   16   21 1
    21   17   18 1
    22   17   19 1
    23   17   36 1
    24   18   37 1
    25   19   20 1
    26   19   21 1
    27   19   38 1
    28   20   39 1
    29   21   22 1
    30   21   40 1
    31   22   23 ar
    32   22   32 ar
    33   23   24 ar
    34   23   41 1
    35   24   25 ar
    36   24   45 1
    37   25   26 ar
    38   25   32 ar
    39   26   27 2
    40   26   28 ar
    41   28   29 ar
    42   28   42 1
    43   29   30 1
    44   29   31 ar
    45   30   43 1
    46   30   44 1
    47   31   32 ar
@<TRIPOS>SUBSTRUCTURE
     1 GTP         1 GROUP 0 A     ****
@<TRIPOS>MOLECULE
[[[5-(2-amino-6-oxo-7,8-dihydro-1~{H}-purin-8-ylium-9-yl)-3,4-dihydroxy-tetrahydrofuran-2-yl]methoxy-oxido-phosphoryl]oxy-oxido-phosphoryl] phosphate
   45    47     1     0     0
SMALL
USER_CHARGES

@<TRIPOS>ATOM
      1 PG         -2.7281    1.6529   -5.5352 P.3       1 GTP        -1.1921
      2 O1G        -3.1558    0.3468   -6.1962 O.co2     1 GTP         0.3195
      3 O2G        -3.5362    2.0253   -4.2967 O.co2     1 GTP         0.3195
      4 O3G        -2.5091    2.8055   -6.5097 O.co2     1 GTP         0.3195
      5 O3B        -1.2176    1.3369   -4.9535 O.3       1 GTP         0.4672
      6 PB          0.1382    0.8813   -5.7431 P.3       1 GTP        -1.1062
      7 O1B        -0.0774   -0.4982   -6.3246 O.co2     1 GTP         0.3195
      8 O2B         0.6253    2.0320   -6.5950 O.co2     1 GTP         0.3195
      9 O3A         1.1591    0.7827   -4.4728 O.3       1 GTP         0.4672
     10 PA          2.7413    0.3775   -4.4298 P.3       1 GTP        -1.1062
     11 O1A         2.8705   -1.0776   -4.8246 O.co2     1 GTP         0.3195
     12 O2A         3.5462    1.4514   -5.1291 O.co2     1 GTP         0.3195
     13 O5'         3.0213    0.5153   -2.8245 O.3       1 GTP         0.1618
     14 C5'         2.2816   -0.2918   -1.9206 C.3       1 GTP         0.1504
     15 C4'         2.7248    0.0226   -0.4980 C.3       1 GTP         0.1111
     16 O4'         2.4697    1.4219   -0.2462 O.3       1 GTP        -0.1436
     17 C3'         1.9404   -0.7419    0.5596 C.3       1 GTP         0.1111
     18 O3'         2.7418   -0.8086    1.7389 O.3       1 GTP        -0.2728
     19 C2'         0.7477    0.1630    0.7858 C.3       1 GTP         0.1111
     20 O2'         0.1373   -0.0577    2.0407 O.3       1 GTP        -0.2728
     21 C1'         1.3733    1.5427    0.6747 C.3       1 GTP         0.2693
     22 N9          0.4520    2.5240    0.1767 N.pl3     1 GTP        -0.3222
     23 C8         -0.8613    2.5511    0.3730 C.ar      1 GTP         0.1640
     24 N7         -1.4346    3.5939   -0.2188 N.pl3     1 GTP        -0.3688
     25 C5         -0.4099    4.2657   -0.8276 C.ar      1 GTP         0.0648
     26 C6         -0.4554    5.4854   -1.6209 C.ar      1 GTP         0.3597
     27 O6         -1.4907    6.0944   -1.8508 O.2       1 GTP        -0.2755
     28 N1          0.8205    5.8357   -2.0593 N.pl3     1 GTP        -0.1604
     29 C2          1.9890    5.1091   -1.7730 C.ar      1 GTP         0.4468
     30 N2          3.1452    5.6230   -2.2997 N.pl3     1 GTP        -0.5618
     31 N3          1.9765    4.0139   -1.0514 N.2       1 GTP        -0.4283
     32 C4          0.7480    3.6324   -0.6003 C.ar      1 GTP         0.2226
     33 H5'         1.2163   -0.0770   -2.0471 H         1 GTP        -0.0393
     34 H5''        2.4655   -1.3443   -2.1563 H         1 GTP        -0.0393
     35 H4'         3.8044   -0.1397   -0.4040 H         1 GTP        -0.0393
     36 H3'         1.6764   -1.7639    0.2728 H         1 GTP        -0.0393
     37 HO3'        2.2232   -1.2979    2.3953 H         1 GTP         0.2010
     38 H2'        -0.0011    0.0027    0.0003 H         1 GTP        -0.0393
     39 HO2'       -0.1563   -0.9855    2.0596 H         1 GTP         0.2010
     40 H1'         1.7826    1.9024    1.6451 H         1 GTP        -0.0393
     41 H8         -1.4050    1.8187    0.9438 H         1 GTP         0.0000
     42 HN1         0.9121    6.6744   -2.6251 H         1 GTP         0.0865
     43 HN21        3.9971    5.1427   -2.1235 H         1 GTP         0.2048
     44 HN22        3.0881    6.4564   -2.8380 H         1 GTP         0.2048
     45 H45        -2.4173    3.8294   -0.2127 H         1 GTP         0.2048
@<TRIPOS>BOND
     1    1    2 2
     2    1    3 1
     3    1    4 1
     4    1    5 1
     5    5    6 1
     6    6    7 2
     7    6    8 1
     8    6    9 1
     9    9   10 1
    10   10   11 2
    11   10   12 1
    12   10   13 1
    13   13   14 1
    14   14   15 1
    15   14   33 1
    16   14   34 1
    17   15   16 1
    18   15   17 1
    19   15   35 1
    20   16   21 1
    21   17   18 1
    22   17   19 1
    23   17   36 1
    24   18   37 1
    25   19   20 1
    26   19   21 1
    27   19   38 1
    28   20   39 1
    29   21   22 1
    30   21   40 1
    31   22   23 ar
    32   22   32 ar
    33   23   24 ar
    34   23   41 1
    35   24   25 ar
    36   24   45 1
    37   25   26 ar
    38   25   32 ar
    39   26   27 2
    40   26   28 ar
    41   28   29 ar
    42   28   42 1
    43   29   30 1
    44   29   31 ar
    45   30   43 1
    46   30   44 1
    47   31   32 ar
@<TRIPOS>SUBSTRUCTURE
     1 GTP         1 GROUP 0 A     ****
@<TRIPOS>MOLECULE
[[[5-(2-amino-6-oxo-7,8-dihydro-1~{H}-purin-8-ylium-9-yl)-3,4-dihydroxy-tetrahydrofuran-2-yl]methoxy-oxido-phosphoryl]oxy-oxido-phosphoryl] phosphate
   45    47     1     0     0
SMALL
USER_CHARGES

@<TRIPOS>ATOM
      1 PG          2.4517   -0.0797   -8.9733 P.3       1 GTP        -1.1921
      2 O1G         1.1272    0.5847   -9.3337 O.co2     1 GTP         0.3195
      3 O2G         3.6841    0.7601   -9.2920 O.co2     1 GTP         0.3195
      4 O3G         2.5590   -1.5381   -9.4065 O.co2     1 GTP         0.3195
      5 O3B         2.4303   -0.1590   -7.3261 O.3       1 GTP         0.4672
      6 PB          1.3777   -0.9051   -6.3239 P.3       1 GTP        -1.1062
      7 O1B         0.0281   -0.2335   -6.4476 O.co2     1 GTP         0.3195
      8 O2B         1.5328   -2.4025   -6.4688 O.co2     1 GTP         0.3195
      9 O3A         2.0542   -0.5072   -4.8922 O.3       1 GTP         0.4672
     10 PA          2.3343    0.9640   -4.2391 P.3       1 GTP        -1.1062
     11 O1A         3.3728    1.6695   -5.0839 O.co2     1 GTP         0.3195
     12 O2A         1.0104    1.6224   -3.9169 O.co2     1 GTP         0.3195
     13 O5'         3.0213    0.5153   -2.8245 O.3       1 GTP         0.1618
     14 C5'         2.2816   -0.2918   -1.9206 C.3       1 GTP         0.1504
     15 C4'         2.7248    0.0226   -0.4980 C.3       1 GTP         0.1111
     16 O4'         2.4697    1.4219   -0.2462 O.3       1 GTP        -0.1436
     17 C3'         1.9404   -0.7419    0.5596 C.3       1 GTP         0.1111
     18 O3'         2.7418   -0.8086    1.7389 O.3       1 GTP        -0.2728
     19 C2'         0.7477    0.1630    0.7858 C.3       1 GTP         0.1111
     20 O2'         0.1373   -0.0577    2.0407 O.3       1 GTP        -0.2728
     21 C1'         1.3733    1.5427    0.6747 C.3       1 GTP         0.2693
     22 N9          0.4520    2.5240    0.1767 N.pl3     1 GTP        -0.3222
     23 C8          0.5671    3.2221   -0.9473 C.ar      1 GTP         0.1640
     24 N7         -0.4560    4.0508   -1.1290 N.pl3     1 GTP        -0.3688
     25 C5         -1.2671    3.8585   -0.0441 C.ar      1 GTP         0.0648
     26 C6         -2.5318    4.5014    0.2817 C.ar      1 GTP         0.3597
     27 O6         -3.0527    5.3493   -0.4293 O.2       1 GTP        -0.2755
     28 N1         -3.0357    4.0149    1.4868 N.pl3     1 GTP        -0.1604
     29 C2         -2.4069    3.0373    2.2768 C.ar      1 GTP         0.4468
     30 N2         -3.0679    2.6964    3.4278 N.pl3     1 GTP        -0.5618
     31 N3         -1.2653    2.4872    1.9379 N.2       1 GTP        -0.4283
     32 C4         -0.7342    2.9334    0.7643 C.ar      1 GTP         0.2226
     33 H5'         1.2163   -0.0770   -2.0471 H         1 GTP        -0.0393
     34 H5''        2.4655   -1.3443   -2.1563 H         1 GTP        -0.0393
     35 H4'         3.8044   -0.1397   -0.4040 H         1 GTP        -0.0393
     36 H3'         1.6764   -1.7639    0.2728 H         1 GTP        -0.0393
     37 HO3'        2.2232   -1.2979    2.3953 H         1 GTP         0.2010
     38 H2'        -0.0011    0.0027    0.0003 H         1 GTP        -0.0393
     39 HO2'       -0.1563   -0.9855    2.0596 H         1 GTP         0.2010
     40 H1'         1.7826    1.9024    1.6451 H         1 GTP        -0.0393
     41 H8          1.3888    3.1325   -1.6361 H         1 GTP         0.0000
     42 HN1        -3.9188    4.3932    1.8170 H         1 GTP         0.0865
     43 HN21       -2.6609    2.0087    4.0186 H         1 GTP         0.2048
     44 HN22       -3.9293    3.1496    3.6283 H         1 GTP         0.2048
     45 H45        -0.5938    4.6820   -1.9060 H         1 GTP         0.2048
@<TRIPOS>BOND
     1    1    2 2
     2    1    3 1
     3    1    4 1
     4    1    5 1
     5    5    6 1
     6    6    7 2
     7    6    8 1
     8    6    9 1
     9    9   10 1
    10   10   11 2
    11   10   12 1
    12   10   13 1
    13   13   14 1
    14   14   15 1
    15   14   33 1
    16   14   34 1
    17   15   16 1
    18   15   17 1
    19   15   35 1
    20   16   21 1
    21   17   18 1
    22   17   19 1
    23   17   36 1
    24   18   37 1
    25   19   20 1
    26   19   21 1
    27   19   38 1
    28   20   39 1
    29   21   22 1
    30   21   40 1
    31   22   23 ar
    32   22   32 ar
    33   23   24 ar
    34   23   41 1
    35   24   25 ar
    36   24   45 1
    37   25   26 ar
    38   25   32 ar
    39   26   27 2
    40   26   28 ar
    41   28   29 ar
    42   28   42 1
    43   29   30 1
    44   29   31 ar
    45   30   43 1
    46   30   44 1
    47   31   32 ar
@<TRIPOS>SUBSTRUCTURE
     1 GTP         1 GROUP 0 A     ****
@<TRIPOS>MOLECULE
[[[5-(2-amino-6-oxo-7,8-dihydro-1~{H}-purin-8-ylium-9-yl)-3,4-dihydroxy-tetrahydrofuran-2-yl]methoxy-oxido-phosphoryl]oxy-oxido-phosphoryl] phosphate
   45    47     1     0     0
SMALL
USER_CHARGES

@<TRIPOS>ATOM
      1 PG          3.8113   -4.8583   -4.0245 P.3       1 GTP        -1.1921
      2 O1G         4.0645   -3.8626   -2.8974 O.co2     1 GTP         0.3195
      3 O2G         3.1729   -6.1683   -3.5748 O.co2     1 GTP         0.3195
      4 O3G         4.9847   -5.0306   -4.9833 O.co2     1 GTP         0.3195
      5 O3B         2.6505   -4.1380   -4.9483 O.3       1 GTP         0.4672
      6 PB          2.6747   -2.7089   -5.7397 P.3       1 GTP        -1.1062
      7 O1B         3.8829   -2.6762   -6.6489 O.co2     1 GTP         0.3195
      8 O2B         1.2862   -2.4061   -6.2573 O.co2     1 GTP         0.3195
      9 O3A         2.9217   -1.7121   -4.4705 O.3       1 GTP         0.4672
     10 PA          3.0683   -0.0853   -4.4294 P.3       1 GTP        -1.1062
     11 O1A         4.3403    0.2960   -5.1548 O.co2     1 GTP         0.3195
     12 O2A         1.7407    0.5404   -4.7982 O.co2     1 GTP         0.3195
     13 O5'         3.2903    0.1346   -2.8241 O.3       1 GTP         0.1618
     14 C5'         2.2816   -0.2918   -1.9206 C.3       1 GTP         0.1504
     15 C4'         2.7248    0.0226   -0.4980 C.3       1 GTP         0.1111
     16 O4'         2.4697    1.4219   -0.2462 O.3       1 GTP        -0.1436
     17 C3'         1.9404   -0.7419    0.5596 C.3       1 GTP         0.1111
     18 O3'         2.7418   -0.8086    1.7389 O.3       1 GTP        -0.2728
     19 C2'         0.7477    0.1630    0.7858 C.3       1 GTP         0.1111
     20 O2'         0.1373   -0.0577    2.0407 O.3       1 GTP        -0.2728
     21 C1'         1.3733    1.5427    0.6747 C.3       1 GTP         0.2693
     22 N9          0.4520    2.5240    0.1767 N.pl3     1 GTP        -0.3222
     23 C8          0.5671    3.2221   -0.9473 C.ar      1 GTP         0.1640
     24 N7         -0.4560    4.0508   -1.1290 N.pl3     1 GTP        -0.3688
     25 C5         -1.2671    3.8585   -0.0441 C.ar      1 GTP         0.0648
     26 C6         -2.5318    4.5014    0.2817 C.ar      1 GTP         0.3597
     27 O6         -3.0527    5.3493   -0.4293 O.2       1 GTP        -0.2755
     28 N1         -3.0357    4.0149    1.4868 N.pl3     1 GTP        -0.1604
     29 C2         -2.4069    3.0373    2.2768 C.ar      1 GTP         0.4468
     30 N2         -3.0679    2.6964    3.4278 N.pl3     1 GTP        -0.5618
     31 N3         -1.2653    2.4872    1.9379 N.2       1 GTP        -0.4283
     32 C4         -0.7342    2.9334    0.7643 C.ar      1 GTP         0.2226
     33 H5'         1.3514    0.2330   -2.1577 H         1 GTP        -0.0393
     34 H5''        2.1280   -1.3678   -2.0460 H         1 GTP        -0.0393
     35 H4'         3.8044   -0.1397   -0.4040 H         1 GTP        -0.0393
     36 H3'         1.6764   -1.7639    0.2728 H         1 GTP        -0.0393
     37 HO3'        2.2232   -1.2979    2.3953 H         1 GTP         0.2010
     38 H2'        -0.0011    0.0027    0.0003 H         1 GTP        -0.0393
     39 HO2'       -0.1563   -0.9855    2.0596 H         1 GTP         0.2010
     40 H1'         1.7826    1.9024    1.6451 H         1 GTP        -0.0393
     41 H8          1.3888    3.1325   -1.6361 H         1 GTP         0.0000
     42 HN1        -3.9188    4.3932    1.8170 H         1 GTP         0.0865
     43 HN21       -2.6609    2.0087    4.0186 H         1 GTP         0.2048
     44 HN22       -3.9293    3.1496    3.6283 H         1 GTP         0.2048
     45 H45        -0.5938    4.6820   -1.9060 H         1 GTP         0.2048
@<TRIPOS>BOND
     1    1    2 2
     2    1    3 1
     3    1    4 1
     4    1    5 1
     5    5    6 1
     6    6    7 2
     7    6    8 1
     8    6    9 1
     9    9   10 1
    10   10   11 2
    11   10   12 1
    12   10   13 1
    13   13   14 1
    14   14   15 1
    15   14   33 1
    16   14   34 1
    17   15   16 1
    18   15   17 1
    19   15   35 1
    20   16   21 1
    21   17   18 1
    22   17   19 1
    23   17   36 1
    24   18   37 1
    25   19   20 1
    26   19   21 1
    27   19   38 1
    28   20   39 1
    29   21   22 1
    30   21   40 1
    31   22   23 ar
    32   22   32 ar
    33   23   24 ar
    34   23   41 1
    35   24   25 ar
    36   24   45 1
    37   25   26 ar
    38   25   32 ar
    39   26   27 2
    40   26   28 ar
    41   28   29 ar
    42   28   42 1
    43   29   30 1
    44   29   31 ar
    45   30   43 1
    46   30   44 1
    47   31   32 ar
@<TRIPOS>SUBSTRUCTURE
     1 GTP         1 GROUP 0 A     ****
@<TRIPOS>MOLECULE
[[[5-(2-amino-6-oxo-7,8-dihydro-1~{H}-purin-8-ylium-9-yl)-3,4-dihydroxy-tetrahydrofuran-2-yl]methoxy-oxido-phosphoryl]oxy-oxido-phosphoryl] phosphate
   45    47     1     0     0
SMALL
USER_CHARGES

@<TRIPOS>ATOM
      1 PG         -5.7334   -5.2406    1.6990 P.3       1 GTP        -1.1921
      2 O1G        -5.4281   -4.2936    0.5432 O.co2     1 GTP         0.3195
      3 O2G        -7.1899   -5.6852    1.7799 O.co2     1 GTP         0.3195
      4 O3G        -5.1346   -4.8121    3.0346 O.co2     1 GTP         0.3195
      5 O3B        -4.9095   -6.6186    1.3221 O.3       1 GTP         0.4672
      6 PB         -3.3103   -6.8551    1.0860 P.3       1 GTP        -1.1062
      7 O1B        -3.0589   -8.3351    0.9018 O.co2     1 GTP         0.3195
      8 O2B        -2.8006   -5.8360    0.0916 O.co2     1 GTP         0.3195
      9 O3A        -2.7587   -6.3876    2.5499 O.3       1 GTP         0.4672
     10 PA         -1.2298   -6.3297    3.1234 P.3       1 GTP        -1.1062
     11 O1A        -1.2579   -5.6749    4.4872 O.co2     1 GTP         0.3195
     12 O2A        -0.5727   -7.6772    2.9167 O.co2     1 GTP         0.3195
     13 O5'        -0.5687   -5.2869    2.0510 O.3       1 GTP         0.1618
     14 C5'        -0.7840   -3.8935    2.2172 C.3       1 GTP         0.1504
     15 C4'        -0.0724   -3.1466    1.1027 C.3       1 GTP         0.1111
     16 O4'        -0.8674   -3.1929   -0.0945 O.3       1 GTP        -0.1436
     17 C3'         0.1338   -1.6715    1.4027 C.3       1 GTP         0.1111
     18 O3'         1.2893   -1.4445    2.1808 O.3       1 GTP        -0.2728
     19 C2'         0.2158   -1.0724    0.0128 C.3       1 GTP         0.1111
     20 O2'         1.5141   -1.2448   -0.5513 O.3       1 GTP        -0.2728
     21 C1'        -0.7897   -1.9176   -0.7583 C.3       1 GTP         0.2693
     22 N9         -2.1040   -1.3333   -0.7704 N.pl3     1 GTP        -0.3222
     23 C8         -3.0597   -1.5109    0.1345 C.ar      1 GTP         0.1640
     24 N7         -4.1618   -0.8291   -0.1607 N.pl3     1 GTP        -0.3688
     25 C5         -3.8764   -0.1805   -1.3310 C.ar      1 GTP         0.0648
     26 C6         -4.7187    0.7111   -2.1152 C.ar      1 GTP         0.3597
     27 O6         -5.8617    1.0043   -1.7939 O.2       1 GTP        -0.2755
     28 N1         -4.0405    1.1608   -3.2468 N.pl3     1 GTP        -0.1604
     29 C2         -2.7239    0.8013   -3.5822 C.ar      1 GTP         0.4468
     30 N2         -2.2399    1.3534   -4.7394 N.pl3     1 GTP        -0.5618
     31 N3         -2.0053   -0.0071   -2.8402 N.2       1 GTP        -0.4283
     32 C4         -2.6290   -0.4727   -1.7210 C.ar      1 GTP         0.2226
     33 H5'        -1.8598   -3.6968    2.1850 H         1 GTP        -0.0393
     34 H5''       -0.3933   -3.5903    3.1931 H         1 GTP        -0.0393
     35 H4'         0.8874   -3.6466    0.8805 H         1 GTP        -0.0393
     36 H3'        -0.7376   -1.2333    1.9867 H         1 GTP        -0.0393
     37 HO3'        1.3408   -0.4870    2.3219 H         1 GTP         0.2010
     38 H2'        -0.0384   -0.0310    0.0096 H         1 GTP        -0.0393
     39 HO2'        2.1463   -0.7958    0.0370 H         1 GTP         0.2010
     40 H1'        -0.4769   -2.1002   -1.8093 H         1 GTP        -0.0393
     41 H8         -2.9610   -2.1316    1.0079 H         1 GTP         0.0000
     42 HN1        -4.5320    1.7923   -3.8726 H         1 GTP         0.0865
     43 HN21       -1.3128    1.1277   -5.0171 H         1 GTP         0.2048
     44 HN22       -2.8342    1.9586   -5.2572 H         1 GTP         0.2048
     45 H45        -5.0195   -0.8034    0.3729 H         1 GTP         0.2048
@<TRIPOS>BOND
     1    1    2 2
     2    1    3 1
     3    1    4 1
     4    1    5 1
     5    5    6 1
     6    6    7 2
     7    6    8 1
     8    6    9 1
     9    9   10 1
    10   10   11 2
    11   10   12 1
    12   10   13 1
    13   13   14 1
    14   14   15 1
    15   14   33 1
    16   14   34 1
    17   15   16 1
    18   15   17 1
    19   15   35 1
    20   16   21 1
    21   17   18 1
    22   17   19 1
    23   17   36 1
    24   18   37 1
    25   19   20 1
    26   19   21 1
    27   19   38 1
    28   20   39 1
    29   21   22 1
    30   21   40 1
    31   22   23 ar
    32   22   32 ar
    33   23   24 ar
    34   23   41 1
    35   24   25 ar
    36   24   45 1
    37   25   26 ar
    38   25   32 ar
    39   26   27 2
    40   26   28 ar
    41   28   29 ar
    42   28   42 1
    43   29   30 1
    44   29   31 ar
    45   30   43 1
    46   30   44 1
    47   31   32 ar
@<TRIPOS>SUBSTRUCTURE
     1 GTP         1 GROUP 0 A     ****
@<TRIPOS>MOLECULE
[[[5-(2-amino-6-oxo-7,8-dihydro-1~{H}-purin-8-ylium-9-yl)-3,4-dihydroxy-tetrahydrofuran-2-yl]methoxy-oxido-phosphoryl]oxy-oxido-phosphoryl] phosphate
   45    47     1     0     0
SMALL
USER_CHARGES

@<TRIPOS>ATOM
      1 PG          3.8195   -4.9880   -6.1070 P.3       1 GTP        -1.1921
      2 O1G         4.8818   -4.7057   -7.1643 O.co2     1 GTP         0.3195
      3 O2G         4.2822   -5.9046   -4.9795 O.co2     1 GTP         0.3195
      4 O3G         2.4480   -5.3376   -6.6751 O.co2     1 GTP         0.3195
      5 O3B         3.5816   -3.5306   -5.3726 O.3       1 GTP         0.4672
      6 PB          3.0841   -2.1067   -6.0004 P.3       1 GTP        -1.1062
      7 O1B         4.1362   -1.6055   -6.9645 O.co2     1 GTP         0.3195
      8 O2B         1.6317   -2.2245   -6.4051 O.co2     1 GTP         0.3195
      9 O3A         3.1131   -1.1992   -4.6435 O.3       1 GTP         0.4672
     10 PA          2.7413    0.3775   -4.4298 P.3       1 GTP        -1.1062
     11 O1A         3.7595    1.2116   -5.1762 O.co2     1 GTP         0.3195
     12 O2A         1.2573    0.5705   -4.6542 O.co2     1 GTP         0.3195
     13 O5'         3.0213    0.5153   -2.8245 O.3       1 GTP         0.1618
     14 C5'         2.2816   -0.2918   -1.9206 C.3       1 GTP         0.1504
     15 C4'         2.7248    0.0226   -0.4980 C.3       1 GTP         0.1111
     16 O4'         2.4697    1.4219   -0.2462 O.3       1 GTP        -0.1436
     17 C3'         1.9404   -0.7419    0.5596 C.3       1 GTP         0.1111
     18 O3'         2.7418   -0.8086    1.7389 O.3       1 GTP        -0.2728
     19 C2'         0.7477    0.1630    0.7858 C.3       1 GTP         0.1111
     20 O2'         0.1373   -0.0577    2.0407 O.3       1 GTP        -0.2728
     21 C1'         1.3733    1.5427    0.6747 C.3       1 GTP         0.2693
     22 N9          0.4520    2.5240    0.1767 N.pl3     1 GTP        -0.3222
     23 C8         -0.6818    2.9109    0.7501 C.ar      1 GTP         0.1640
     24 N7         -1.3103    3.8415    0.0391 N.pl3     1 GTP        -0.3688
     25 C5         -0.5155    4.0512   -1.0547 C.ar      1 GTP         0.0648
     26 C6         -0.7125    4.9651   -2.1705 C.ar      1 GTP         0.3597
     27 O6         -1.6819    5.7047   -2.2651 O.2       1 GTP        -0.2755
     28 N1          0.3401    4.8672   -3.0790 N.pl3     1 GTP        -0.1604
     29 C2          1.4396    4.0039   -2.9348 C.ar      1 GTP         0.4468
     30 N2          2.3679    4.0602   -3.9414 N.pl3     1 GTP        -0.5618
     31 N3          1.5708    3.1983   -1.9080 N.2       1 GTP        -0.4283
     32 C4          0.5630    3.2599   -0.9921 C.ar      1 GTP         0.2226
     33 H5'         1.2163   -0.0770   -2.0471 H         1 GTP        -0.0393
     34 H5''        2.4655   -1.3443   -2.1563 H         1 GTP        -0.0393
     35 H4'         3.8044   -0.1397   -0.4040 H         1 GTP        -0.0393
     36 H3'         1.6764   -1.7639    0.2728 H         1 GTP        -0.0393
     37 HO3'        2.2232   -1.2979    2.3953 H         1 GTP         0.2010
     38 H2'        -0.0011    0.0027    0.0003 H         1 GTP        -0.0393
     39 HO2'       -0.1563   -0.9855    2.0596 H         1 GTP         0.2010
     40 H1'         1.7826    1.9024    1.6451 H         1 GTP        -0.0393
     41 H8         -1.0545    2.5222    1.6816 H         1 GTP         0.0000
     42 HN1         0.3104    5.4612   -3.9026 H         1 GTP         0.0865
     43 HN21        3.1632    3.4672   -3.8824 H         1 GTP         0.2048
     44 HN22        2.2108    4.6918   -4.6924 H         1 GTP         0.2048
     45 H45        -2.1863    4.2902    0.2681 H         1 GTP         0.2048
@<TRIPOS>BOND
     1    1    2 2
     2    1    3 1
     3    1    4 1
     4    1    5 1
     5    5    6 1
     6    6    7 2
     7    6    8 1
     8    6    9 1
     9    9   10 1
    10   10   11 2
    11   10   12 1
    12   10   13 1
    13   13   14 1
    14   14   15 1
    15   14   33 1
    16   14   34 1
    17   15   16 1
    18   15   17 1
    19   15   35 1
    20   16   21 1
    21   17   18 1
    22   17   19 1
    23   17   36 1
    24   18   37 1
    25   19   20 1
    26   19   21 1
    27   19   38 1
    28   20   39 1
    29   21   22 1
    30   21   40 1
    31   22   23 ar
    32   22   32 ar
    33   23   24 ar
    34   23   41 1
    35   24   25 ar
    36   24   45 1
    37   25   26 ar
    38   25   32 ar
    39   26   27 2
    40   26   28 ar
    41   28   29 ar
    42   28   42 1
    43   29   30 1
    44   29   31 ar
    45   30   43 1
    46   30   44 1
    47   31   32 ar
@<TRIPOS>SUBSTRUCTURE
     1 GTP         1 GROUP 0 A     ****
@<TRIPOS>MOLECULE
[[[5-(2-amino-6-oxo-7,8-dihydro-1~{H}-purin-8-ylium-9-yl)-3,4-dihydroxy-tetrahydrofuran-2-yl]methoxy-oxido-phosphoryl]oxy-oxido-phosphoryl] phosphate
   45    47     1     0     0
SMALL
USER_CHARGES

@<TRIPOS>ATOM
      1 PG          4.6942   -1.5334   -8.4361 P.3       1 GTP        -1.1921
      2 O1G         3.4323   -1.4798   -9.2908 O.co2     1 GTP         0.3195
      3 O2G         5.6770   -0.3960   -8.6934 O.co2     1 GTP         0.3195
      4 O3G         5.3398   -2.9130   -8.3585 O.co2     1 GTP         0.3195
      5 O3B         4.1555   -1.2639   -6.9009 O.3       1 GTP         0.4672
      6 PB          3.0841   -2.1067   -6.0004 P.3       1 GTP        -1.1062
      7 O1B         1.7199   -2.0054   -6.6454 O.co2     1 GTP         0.3195
      8 O2B         3.6890   -3.4435   -5.6338 O.co2     1 GTP         0.3195
      9 O3A         3.1131   -1.1992   -4.6435 O.3       1 GTP         0.4672
     10 PA          2.7413    0.3775   -4.4298 P.3       1 GTP        -1.1062
     11 O1A         3.7595    1.2116   -5.1762 O.co2     1 GTP         0.3195
     12 O2A         1.2573    0.5705   -4.6542 O.co2     1 GTP         0.3195
     13 O5'         3.0213    0.5153   -2.8245 O.3       1 GTP         0.1618
     14 C5'         2.2816   -0.2918   -1.9206 C.3       1 GTP         0.1504
     15 C4'         2.7248    0.0226   -0.4980 C.3       1 GTP         0.1111
     16 O4'         2.4697    1.4219   -0.2462 O.3       1 GTP        -0.1436
     17 C3'         1.9404   -0.7419    0.5596 C.3       1 GTP         0.1111
     18 O3'         2.7418   -0.8086    1.7389 O.3       1 GTP        -0.2728
     19 C2'         0.7477    0.1630    0.7858 C.3       1 GTP         0.1111
     20 O2'         0.1373   -0.0577    2.0407 O.3       1 GTP        -0.2728
     21 C1'         1.3733    1.5427    0.6747 C.3       1 GTP         0.2693
     22 N9          0.4520    2.5240    0.1767 N.pl3     1 GTP        -0.3222
     23 C8         -0.6818    2.9109    0.7501 C.ar      1 GTP         0.1640
     24 N7         -1.3103    3.8415    0.0391 N.pl3     1 GTP        -0.3688
     25 C5         -0.5155    4.0512   -1.0547 C.ar      1 GTP         0.0648
     26 C6         -0.7125    4.9651   -2.1705 C.ar      1 GTP         0.3597
     27 O6         -1.6819    5.7047   -2.2651 O.2       1 GTP        -0.2755
     28 N1          0.3401    4.8672   -3.0790 N.pl3     1 GTP        -0.1604
     29 C2          1.4396    4.0039   -2.9348 C.ar      1 GTP         0.4468
     30 N2          2.3679    4.0602   -3.9414 N.pl3     1 GTP        -0.5618
     31 N3          1.5708    3.1983   -1.9080 N.2       1 GTP        -0.4283
     32 C4          0.5630    3.2599   -0.9921 C.ar      1 GTP         0.2226
     33 H5'         1.2163   -0.0770   -2.0471 H         1 GTP        -0.0393
     34 H5''        2.4655   -1.3443   -2.1563 H         1 GTP        -0.0393
     35 H4'         3.8044   -0.1397   -0.4040 H         1 GTP        -0.0393
     36 H3'         1.6764   -1.7639    0.2728 H         1 GTP        -0.0393
     37 HO3'        2.2232   -1.2979    2.3953 H         1 GTP         0.2010
     38 H2'        -0.0011    0.0027    0.0003 H         1 GTP        -0.0393
     39 HO2'       -0.1563   -0.9855    2.0596 H         1 GTP         0.2010
     40 H1'         1.7826    1.9024    1.6451 H         1 GTP        -0.0393
     41 H8         -1.0545    2.5222    1.6816 H         1 GTP         0.0000
     42 HN1         0.3104    5.4612   -3.9026 H         1 GTP         0.0865
     43 HN21        3.1632    3.4672   -3.8824 H         1 GTP         0.2048
     44 HN22        2.2108    4.6918   -4.6924 H         1 GTP         0.2048
     45 H45        -2.1863    4.2902    0.2681 H         1 GTP         0.2048
@<TRIPOS>BOND
     1    1    2 2
     2    1    3 1
     3    1    4 1
     4    1    5 1
     5    5    6 1
     6    6    7 2
     7    6    8 1
     8    6    9 1
     9    9   10 1
    10   10   11 2
    11   10   12 1
    12   10   13 1
    13   13   14 1
    14   14   15 1
    15   14   33 1
    16   14   34 1
    17   15   16 1
    18   15   17 1
    19   15   35 1
    20   16   21 1
    21   17   18 1
    22   17   19 1
    23   17   36 1
    24   18   37 1
    25   19   20 1
    26   19   21 1
    27   19   38 1
    28   20   39 1
    29   21   22 1
    30   21   40 1
    31   22   23 ar
    32   22   32 ar
    33   23   24 ar
    34   23   41 1
    35   24   25 ar
    36   24   45 1
    37   25   26 ar
    38   25   32 ar
    39   26   27 2
    40   26   28 ar
    41   28   29 ar
    42   28   42 1
    43   29   30 1
    44   29   31 ar
    45   30   43 1
    46   30   44 1
    47   31   32 ar
@<TRIPOS>SUBSTRUCTURE
     1 GTP         1 GROUP 0 A     ****
@<TRIPOS>MOLECULE
[[[5-(2-amino-6-oxo-7,8-dihydro-1~{H}-purin-8-ylium-9-yl)-3,4-dihydroxy-tetrahydrofuran-2-yl]methoxy-oxido-phosphoryl]oxy-oxido-phosphoryl] phosphate
   45    47     1     0     0
SMALL
USER_CHARGES

@<TRIPOS>ATOM
      1 PG         -6.6256   -7.6583    0.9861 P.3       1 GTP        -1.1921
      2 O1G        -7.5058   -6.7632    0.1200 O.co2     1 GTP         0.3195
      3 O2G        -6.1197   -8.9133    0.2827 O.co2     1 GTP         0.3195
      4 O3G        -7.1708   -7.9037    2.3891 O.co2     1 GTP         0.3195
      5 O3B        -5.2654   -6.7619    1.2435 O.3       1 GTP         0.4672
      6 PB         -5.0888   -5.3010    1.9533 P.3       1 GTP        -1.1062
      7 O1B        -5.7818   -4.2596    1.1032 O.co2     1 GTP         0.3195
      8 O2B        -5.3733   -5.4319    3.4330 O.co2     1 GTP         0.3195
      9 O3A        -3.4713   -5.1341    1.8072 O.3       1 GTP         0.4672
     10 PA         -2.2649   -6.0688    2.3909 P.3       1 GTP        -1.1062
     11 O1A        -2.2781   -5.9742    3.9010 O.co2     1 GTP         0.3195
     12 O2A        -2.2962   -7.4104    1.6916 O.co2     1 GTP         0.3195
     13 O5'        -0.9724   -5.2440    1.8220 O.3       1 GTP         0.1618
     14 C5'        -0.7840   -3.8935    2.2172 C.3       1 GTP         0.1504
     15 C4'        -0.0724   -3.1466    1.1027 C.3       1 GTP         0.1111
     16 O4'        -0.8674   -3.1929   -0.0945 O.3       1 GTP        -0.1436
     17 C3'         0.1338   -1.6715    1.4027 C.3       1 GTP         0.1111
     18 O3'         1.2893   -1.4445    2.1808 O.3       1 GTP        -0.2728
     19 C2'         0.2158   -1.0724    0.0128 C.3       1 GTP         0.1111
     20 O2'         1.5141   -1.2448   -0.5513 O.3       1 GTP        -0.2728
     21 C1'        -0.7897   -1.9176   -0.7583 C.3       1 GTP         0.2693
     22 N9         -2.1040   -1.3333   -0.7704 N.pl3     1 GTP        -0.3222
     23 C8         -3.0597   -1.5109    0.1345 C.ar      1 GTP         0.1640
     24 N7         -4.1618   -0.8291   -0.1607 N.pl3     1 GTP        -0.3688
     25 C5         -3.8764   -0.1805   -1.3310 C.ar      1 GTP         0.0648
     26 C6         -4.7187    0.7111   -2.1152 C.ar      1 GTP         0.3597
     27 O6         -5.8617    1.0043   -1.7939 O.2       1 GTP        -0.2755
     28 N1         -4.0405    1.1608   -3.2468 N.pl3     1 GTP        -0.1604
     29 C2         -2.7239    0.8013   -3.5822 C.ar      1 GTP         0.4468
     30 N2         -2.2399    1.3534   -4.7394 N.pl3     1 GTP        -0.5618
     31 N3         -2.0053   -0.0071   -2.8402 N.2       1 GTP        -0.4283
     32 C4         -2.6290   -0.4727   -1.7210 C.ar      1 GTP         0.2226
     33 H5'        -1.7618   -3.4448    2.4164 H         1 GTP        -0.0393
     34 H5''       -0.1874   -3.8744    3.1341 H         1 GTP        -0.0393
     35 H4'         0.8874   -3.6466    0.8805 H         1 GTP        -0.0393
     36 H3'        -0.7376   -1.2333    1.9867 H         1 GTP        -0.0393
     37 HO3'        1.3408   -0.4870    2.3219 H         1 GTP         0.2010
     38 H2'        -0.0384   -0.0310    0.0096 H         1 GTP        -0.0393
     39 HO2'        2.1463   -0.7958    0.0370 H         1 GTP         0.2010
     40 H1'        -0.4769   -2.1002   -1.8093 H         1 GTP        -0.0393
     41 H8         -2.9610   -2.1316    1.0079 H         1 GTP         0.0000
     42 HN1        -4.5320    1.7923   -3.8726 H         1 GTP         0.0865
     43 HN21       -1.3128    1.1277   -5.0171 H         1 GTP         0.2048
     44 HN22       -2.8342    1.9586   -5.2572 H         1 GTP         0.2048
     45 H45        -5.0195   -0.8034    0.3729 H         1 GTP         0.2048
@<TRIPOS>BOND
     1    1    2 2
     2    1    3 1
     3    1    4 1
     4    1    5 1
     5    5    6 1
     6    6    7 2
     7    6    8 1
     8    6    9 1
     9    9   10 1
    10   10   11 2
    11   10   12 1
    12   10   13 1
    13   13   14 1
    14   14   15 1
    15   14   33 1
    16   14   34 1
    17   15   16 1
    18   15   17 1
    19   15   35 1
    20   16   21 1
    21   17   18 1
    22   17   19 1
    23   17   36 1
    24   18   37 1
    25   19   20 1
    26   19   21 1
    27   19   38 1
    28   20   39 1
    29   21   22 1
    30   21   40 1
    31   22   23 ar
    32   22   32 ar
    33   23   24 ar
    34   23   41 1
    35   24   25 ar
    36   24   45 1
    37   25   26 ar
    38   25   32 ar
    39   26   27 2
    40   26   28 ar
    41   28   29 ar
    42   28   42 1
    43   29   30 1
    44   29   31 ar
    45   30   43 1
    46   30   44 1
    47   31   32 ar
@<TRIPOS>SUBSTRUCTURE
     1 GTP         1 GROUP 0 A     ****
@<TRIPOS>MOLECULE
[[[5-(2-amino-6-oxo-7,8-dihydro-1~{H}-purin-8-ylium-9-yl)-3,4-dihydroxy-tetrahydrofuran-2-yl]methoxy-oxido-phosphoryl]oxy-oxido-phosphoryl] phosphate
   45    47     1     0     0
SMALL
USER_CHARGES

@<TRIPOS>ATOM
      1 PG          0.6917   -3.4861   -7.3256 P.3       1 GTP        -1.1921
      2 O1G         1.3816   -4.8280   -7.1040 O.co2     1 GTP         0.3195
      3 O2G        -0.7874   -3.4703   -6.9546 O.co2     1 GTP         0.3195
      4 O3G         1.0075   -2.8337   -8.6675 O.co2     1 GTP         0.3195
      5 O3B         1.3965   -2.4814   -6.2239 O.3       1 GTP         0.4672
      6 PB          2.9619   -2.0480   -6.0480 P.3       1 GTP        -1.1062
      7 O1B         3.7639   -3.2686   -5.6549 O.co2     1 GTP         0.3195
      8 O2B         3.3683   -1.1761   -7.2151 O.co2     1 GTP         0.3195
      9 O3A         2.8145   -1.0558   -4.7598 O.3       1 GTP         0.4672
     10 PA          3.9556   -0.2056   -3.9568 P.3       1 GTP        -1.1062
     11 O1A         4.8843   -1.1846   -3.2722 O.co2     1 GTP         0.3195
     12 O2A         4.4944    0.8789   -4.8642 O.co2     1 GTP         0.3195
     13 O5'         3.0213    0.5153   -2.8245 O.3       1 GTP         0.1618
     14 C5'         2.2816   -0.2918   -1.9206 C.3       1 GTP         0.1504
     15 C4'         2.7248    0.0226   -0.4980 C.3       1 GTP         0.1111
     16 O4'         2.4697    1.4219   -0.2462 O.3       1 GTP        -0.1436
     17 C3'         1.9404   -0.7419    0.5596 C.3       1 GTP         0.1111
     18 O3'         2.7418   -0.8086    1.7389 O.3       1 GTP        -0.2728
     19 C2'         0.7477    0.1630    0.7858 C.3       1 GTP         0.1111
     20 O2'         0.1373   -0.0577    2.0407 O.3       1 GTP        -0.2728
     21 C1'         1.3733    1.5427    0.6747 C.3       1 GTP         0.2693
     22 N9          0.4520    2.5240    0.1767 N.pl3     1 GTP        -0.3222
     23 C8         -0.2009    2.4849   -0.9792 C.ar      1 GTP         0.1640
     24 N7         -0.9840    3.5454   -1.1481 N.pl3     1 GTP        -0.3688
     25 C5         -0.8090    4.3005   -0.0206 C.ar      1 GTP         0.0648
     26 C6         -1.4206    5.5724    0.3362 C.ar      1 GTP         0.3597
     27 O6         -2.2199    6.1544   -0.3836 O.2       1 GTP        -0.2755
     28 N1         -0.9680    6.0043    1.5817 N.pl3     1 GTP        -0.1604
     29 C2         -0.0474    5.3055    2.3814 C.ar      1 GTP         0.4468
     30 N2          0.2680    5.9024    3.5740 N.pl3     1 GTP        -0.5618
     31 N3          0.4755    4.1601    2.0138 N.2       1 GTP        -0.4283
     32 C4          0.0611    3.6981    0.8001 C.ar      1 GTP         0.2226
     33 H5'         1.2163   -0.0770   -2.0471 H         1 GTP        -0.0393
     34 H5''        2.4655   -1.3443   -2.1563 H         1 GTP        -0.0393
     35 H4'         3.8044   -0.1397   -0.4040 H         1 GTP        -0.0393
     36 H3'         1.6764   -1.7639    0.2728 H         1 GTP        -0.0393
     37 HO3'        2.2232   -1.2979    2.3953 H         1 GTP         0.2010
     38 H2'        -0.0011    0.0027    0.0003 H         1 GTP        -0.0393
     39 HO2'       -0.1563   -0.9855    2.0596 H         1 GTP         0.2010
     40 H1'         1.7826    1.9024    1.6451 H         1 GTP        -0.0393
     41 H8         -0.1126    1.6906   -1.6997 H         1 GTP         0.0000
     42 HN1        -1.3285    6.8855    1.9361 H         1 GTP         0.0865
     43 HN21        0.9153    5.4446    4.1732 H         1 GTP         0.2048
     44 HN22       -0.1624    6.7706    3.7948 H         1 GTP         0.2048
     45 H45        -1.5768    3.7405   -1.9429 H         1 GTP         0.2048
@<TRIPOS>BOND
     1    1    2 2
     2    1    3 1
     3    1    4 1
     4    1    5 1
     5    5    6 1
     6    6    7 2
     7    6    8 1
     8    6    9 1
     9    9   10 1
    10   10   11 2
    11   10   12 1
    12   10   13 1
    13   13   14 1
    14   14   15 1
    15   14   33 1
    16   14   34 1
    17   15   16 1
    18   15   17 1
    19   15   35 1
    20   16   21 1
    21   17   18 1
    22   17   19 1
    23   17   36 1
    24   18   37 1
    25   19   20 1
    26   19   21 1
    27   19   38 1
    28   20   39 1
    29   21   22 1
    30   21   40 1
    31   22   23 ar
    32   22   32 ar
    33   23   24 ar
    34   23   41 1
    35   24   25 ar
    36   24   45 1
    37   25   26 ar
    38   25   32 ar
    39   26   27 2
    40   26   28 ar
    41   28   29 ar
    42   28   42 1
    43   29   30 1
    44   29   31 ar
    45   30   43 1
    46   30   44 1
    47   31   32 ar
@<TRIPOS>SUBSTRUCTURE
     1 GTP         1 GROUP 0 A     ****
@<TRIPOS>MOLECULE
[[[5-(2-amino-6-oxo-7,8-dihydro-1~{H}-purin-8-ylium-9-yl)-3,4-dihydroxy-tetrahydrofuran-2-yl]methoxy-oxido-phosphoryl]oxy-oxido-phosphoryl] phosphate
   45    47     1     0     0
SMALL
USER_CHARGES

@<TRIPOS>ATOM
      1 PG         -1.6144   -1.5153   -6.9474 P.3       1 GTP        -1.1921
      2 O1G        -1.5357   -2.8831   -7.6173 O.co2     1 GTP         0.3195
      3 O2G        -2.8596   -1.3043   -6.0926 O.co2     1 GTP         0.3195
      4 O3G        -1.2825   -0.3465   -7.8692 O.co2     1 GTP         0.3195
      5 O3B        -0.3738   -1.5243   -5.8609 O.3       1 GTP         0.4672
      6 PB          1.2318   -1.7069   -6.1012 P.3       1 GTP        -1.1062
      7 O1B         1.4909   -3.1044   -6.6185 O.co2     1 GTP         0.3195
      8 O2B         1.7674   -0.4865   -6.8161 O.co2     1 GTP         0.3195
      9 O3A         1.7413   -1.5963   -4.5541 O.3       1 GTP         0.4672
     10 PA          3.2534   -1.6812   -3.9408 P.3       1 GTP        -1.1062
     11 O1A         3.7773   -3.0838   -4.1592 O.co2     1 GTP         0.3195
     12 O2A         4.0411   -0.4726   -4.3979 O.co2     1 GTP         0.3195
     13 O5'         2.9216   -1.4836   -2.3516 O.3       1 GTP         0.1618
     14 C5'         2.2816   -0.2918   -1.9206 C.3       1 GTP         0.1504
     15 C4'         2.7248    0.0226   -0.4980 C.3       1 GTP         0.1111
     16 O4'         2.4697    1.4219   -0.2462 O.3       1 GTP        -0.1436
     17 C3'         1.9404   -0.7419    0.5596 C.3       1 GTP         0.1111
     18 O3'         2.7418   -0.8086    1.7389 O.3       1 GTP        -0.2728
     19 C2'         0.7477    0.1630    0.7858 C.3       1 GTP         0.1111
     20 O2'         0.1373   -0.0577    2.0407 O.3       1 GTP        -0.2728
     21 C1'         1.3733    1.5427    0.6747 C.3       1 GTP         0.2693
     22 N9          0.4520    2.5240    0.1767 N.pl3     1 GTP        -0.3222
     23 C8          0.2203    2.8205   -1.0970 C.ar      1 GTP         0.1640
     24 N7         -0.6947    3.7752   -1.2304 N.pl3     1 GTP        -0.3688
     25 C5         -1.0607    4.0987    0.0476 C.ar      1 GTP         0.0648
     26 C6         -2.0310    5.0839    0.5029 C.ar      1 GTP         0.3597
     27 O6         -2.6779    5.7867   -0.2609 O.2       1 GTP        -0.2755
     28 N1         -2.1030    5.0975    1.8948 N.pl3     1 GTP        -0.1604
     29 C2         -1.3422    4.2721    2.7403 C.ar      1 GTP         0.4468
     30 N2         -1.5624    4.4419    4.0823 N.pl3     1 GTP        -0.5618
     31 N3         -0.4796    3.3981    2.2792 N.2       1 GTP        -0.4283
     32 C4         -0.3754    3.3496    0.9208 C.ar      1 GTP         0.2226
     33 H5'         2.5589    0.5217   -2.5976 H         1 GTP        -0.0393
     34 H5''        1.1982   -0.4388   -1.9617 H         1 GTP        -0.0393
     35 H4'         3.8044   -0.1397   -0.4040 H         1 GTP        -0.0393
     36 H3'         1.6764   -1.7639    0.2728 H         1 GTP        -0.0393
     37 HO3'        2.2232   -1.2979    2.3953 H         1 GTP         0.2010
     38 H2'        -0.0011    0.0027    0.0003 H         1 GTP        -0.0393
     39 HO2'       -0.6141    0.5574    2.1082 H         1 GTP         0.2010
     40 H1'         1.7826    1.9024    1.6451 H         1 GTP        -0.0393
     41 H8          0.7110    2.3472   -1.9295 H         1 GTP         0.0000
     42 HN1        -2.7504    5.7495    2.3282 H         1 GTP         0.0865
     43 HN21       -1.0467    3.8796    4.7190 H         1 GTP         0.2048
     44 HN22       -2.2294    5.1209    4.3680 H         1 GTP         0.2048
     45 H45        -1.0382    4.1687   -2.0954 H         1 GTP         0.2048
@<TRIPOS>BOND
     1    1    2 2
     2    1    3 1
     3    1    4 1
     4    1    5 1
     5    5    6 1
     6    6    7 2
     7    6    8 1
     8    6    9 1
     9    9   10 1
    10   10   11 2
    11   10   12 1
    12   10   13 1
    13   13   14 1
    14   14   15 1
    15   14   33 1
    16   14   34 1
    17   15   16 1
    18   15   17 1
    19   15   35 1
    20   16   21 1
    21   17   18 1
    22   17   19 1
    23   17   36 1
    24   18   37 1
    25   19   20 1
    26   19   21 1
    27   19   38 1
    28   20   39 1
    29   21   22 1
    30   21   40 1
    31   22   23 ar
    32   22   32 ar
    33   23   24 ar
    34   23   41 1
    35   24   25 ar
    36   24   45 1
    37   25   26 ar
    38   25   32 ar
    39   26   27 2
    40   26   28 ar
    41   28   29 ar
    42   28   42 1
    43   29   30 1
    44   29   31 ar
    45   30   43 1
    46   30   44 1
    47   31   32 ar
@<TRIPOS>SUBSTRUCTURE
     1 GTP         1 GROUP 0 A     ****
@<TRIPOS>MOLECULE
[[[5-(2-amino-6-oxo-7,8-dihydro-1~{H}-purin-8-ylium-9-yl)-3,4-dihydroxy-tetrahydrofuran-2-yl]methoxy-oxido-phosphoryl]oxy-oxido-phosphoryl] phosphate
   45    47     1     0     0
SMALL
USER_CHARGES

@<TRIPOS>ATOM
      1 PG          2.0382    6.1684   -2.1096 P.3       1 GTP        -1.1921
      2 O1G         2.7775    6.8821   -3.2365 O.co2     1 GTP         0.3195
      3 O2G         0.5393    6.0105   -2.3418 O.co2     1 GTP         0.3195
      4 O3G         2.4074    6.6547   -0.7121 O.co2     1 GTP         0.3195
      5 O3B         2.6202    4.6261   -2.1563 O.3       1 GTP         0.4672
      6 PB          4.1477    4.0739   -1.9805 P.3       1 GTP        -1.1062
      7 O1B         4.9817    4.5715   -3.1400 O.co2     1 GTP         0.3195
      8 O2B         4.5851    4.2756   -0.5469 O.co2     1 GTP         0.3195
      9 O3A         3.8689    2.4750   -2.1576 O.3       1 GTP         0.4672
     10 PA          3.2351    1.6560   -3.4214 P.3       1 GTP        -1.1062
     11 O1A         1.7871    2.0671   -3.5765 O.co2     1 GTP         0.3195
     12 O2A         4.1965    1.7253   -4.5880 O.co2     1 GTP         0.3195
     13 O5'         3.2903    0.1346   -2.8241 O.3       1 GTP         0.1618
     14 C5'         2.2816   -0.2918   -1.9206 C.3       1 GTP         0.1504
     15 C4'         2.7248    0.0226   -0.4980 C.3       1 GTP         0.1111
     16 O4'         2.4697    1.4219   -0.2462 O.3       1 GTP        -0.1436
     17 C3'         1.9404   -0.7419    0.5596 C.3       1 GTP         0.1111
     18 O3'         2.7418   -0.8086    1.7389 O.3       1 GTP        -0.2728
     19 C2'         0.7477    0.1630    0.7858 C.3       1 GTP         0.1111
     20 O2'         0.1373   -0.0577    2.0407 O.3       1 GTP        -0.2728
     21 C1'         1.3733    1.5427    0.6747 C.3       1 GTP         0.2693
     22 N9          0.4520    2.5240    0.1767 N.pl3     1 GTP        -0.3222
     23 C8         -0.2009    2.4849   -0.9792 C.ar      1 GTP         0.1640
     24 N7         -0.9840    3.5454   -1.1481 N.pl3     1 GTP        -0.3688
     25 C5         -0.8090    4.3005   -0.0206 C.ar      1 GTP         0.0648
     26 C6         -1.4206    5.5724    0.3362 C.ar      1 GTP         0.3597
     27 O6         -2.2199    6.1544   -0.3836 O.2       1 GTP        -0.2755
     28 N1         -0.9680    6.0043    1.5817 N.pl3     1 GTP        -0.1604
     29 C2         -0.0474    5.3055    2.3814 C.ar      1 GTP         0.4468
     30 N2          0.2680    5.9024    3.5740 N.pl3     1 GTP        -0.5618
     31 N3          0.4755    4.1601    2.0138 N.2       1 GTP        -0.4283
     32 C4          0.0611    3.6981    0.8001 C.ar      1 GTP         0.2226
     33 H5'         1.3514    0.2330   -2.1577 H         1 GTP        -0.0393
     34 H5''        2.1280   -1.3678   -2.0460 H         1 GTP        -0.0393
     35 H4'         3.8044   -0.1397   -0.4040 H         1 GTP        -0.0393
     36 H3'         1.6764   -1.7639    0.2728 H         1 GTP        -0.0393
     37 HO3'        3.5554   -1.2733    1.4914 H         1 GTP         0.2010
     38 H2'        -0.0011    0.0027    0.0003 H         1 GTP        -0.0393
     39 HO2'        0.8082    0.1199    2.7232 H         1 GTP         0.2010
     40 H1'         1.7826    1.9024    1.6451 H         1 GTP        -0.0393
     41 H8         -0.1126    1.6906   -1.6997 H         1 GTP         0.0000
     42 HN1        -1.3285    6.8855    1.9361 H         1 GTP         0.0865
     43 HN21        0.9153    5.4446    4.1732 H         1 GTP         0.2048
     44 HN22       -0.1624    6.7706    3.7948 H         1 GTP         0.2048
     45 H45        -1.5768    3.7405   -1.9429 H         1 GTP         0.2048
@<TRIPOS>BOND
     1    1    2 2
     2    1    3 1
     3    1    4 1
     4    1    5 1
     5    5    6 1
     6    6    7 2
     7    6    8 1
     8    6    9 1
     9    9   10 1
    10   10   11 2
    11   10   12 1
    12   10   13 1
    13   13   14 1
    14   14   15 1
    15   14   33 1
    16   14   34 1
    17   15   16 1
    18   15   17 1
    19   15   35 1
    20   16   21 1
    21   17   18 1
    22   17   19 1
    23   17   36 1
    24   18   37 1
    25   19   20 1
    26   19   21 1
    27   19   38 1
    28   20   39 1
    29   21   22 1
    30   21   40 1
    31   22   23 ar
    32   22   32 ar
    33   23   24 ar
    34   23   41 1
    35   24   25 ar
    36   24   45 1
    37   25   26 ar
    38   25   32 ar
    39   26   27 2
    40   26   28 ar
    41   28   29 ar
    42   28   42 1
    43   29   30 1
    44   29   31 ar
    45   30   43 1
    46   30   44 1
    47   31   32 ar
@<TRIPOS>SUBSTRUCTURE
     1 GTP         1 GROUP 0 A     ****
@<TRIPOS>MOLECULE
[[[5-(2-amino-6-oxo-7,8-dihydro-1~{H}-purin-8-ylium-9-yl)-3,4-dihydroxy-tetrahydrofuran-2-yl]methoxy-oxido-phosphoryl]oxy-oxido-phosphoryl] phosphate
   45    47     1     0     0
SMALL
USER_CHARGES

@<TRIPOS>ATOM
      1 PG          0.6493   -2.5952   -7.6395 P.3       1 GTP        -1.1921
      2 O1G         0.8115   -4.1033   -7.4801 O.co2     1 GTP         0.3195
      3 O2G        -0.7730   -2.0893   -7.4231 O.co2     1 GTP         0.3195
      4 O3G         1.3384   -2.0180   -8.8715 O.co2     1 GTP         0.3195
      5 O3B         1.5014   -1.9606   -6.3781 O.3       1 GTP         0.4672
      6 PB          3.0841   -2.1067   -6.0004 P.3       1 GTP        -1.1062
      7 O1B         3.3695   -3.5496   -5.6479 O.co2     1 GTP         0.3195
      8 O2B         3.9090   -1.3651   -7.0285 O.co2     1 GTP         0.3195
      9 O3A         3.1131   -1.1992   -4.6435 O.3       1 GTP         0.4672
     10 PA          2.7413    0.3775   -4.4298 P.3       1 GTP        -1.1062
     11 O1A         3.7595    1.2116   -5.1762 O.co2     1 GTP         0.3195
     12 O2A         1.2573    0.5705   -4.6542 O.co2     1 GTP         0.3195
     13 O5'         3.0213    0.5153   -2.8245 O.3       1 GTP         0.1618
     14 C5'         2.2816   -0.2918   -1.9206 C.3       1 GTP         0.1504
     15 C4'         2.7248    0.0226   -0.4980 C.3       1 GTP         0.1111
     16 O4'         2.4697    1.4219   -0.2462 O.3       1 GTP        -0.1436
     17 C3'         1.9404   -0.7419    0.5596 C.3       1 GTP         0.1111
     18 O3'         2.7418   -0.8086    1.7389 O.3       1 GTP        -0.2728
     19 C2'         0.7477    0.1630    0.7858 C.3       1 GTP         0.1111
     20 O2'         0.1373   -0.0577    2.0407 O.3       1 GTP        -0.2728
     21 C1'         1.3733    1.5427    0.6747 C.3       1 GTP         0.2693
     22 N9          0.4520    2.5240    0.1767 N.pl3     1 GTP        -0.3222
     23 C8         -0.6818    2.9109    0.7501 C.ar      1 GTP         0.1640
     24 N7         -1.3103    3.8415    0.0391 N.pl3     1 GTP        -0.3688
     25 C5         -0.5155    4.0512   -1.0547 C.ar      1 GTP         0.0648
     26 C6         -0.7125    4.9651   -2.1705 C.ar      1 GTP         0.3597
     27 O6         -1.6819    5.7047   -2.2651 O.2       1 GTP        -0.2755
     28 N1          0.3401    4.8672   -3.0790 N.pl3     1 GTP        -0.1604
     29 C2          1.4396    4.0039   -2.9348 C.ar      1 GTP         0.4468
     30 N2          2.3679    4.0602   -3.9414 N.pl3     1 GTP        -0.5618
     31 N3          1.5708    3.1983   -1.9080 N.2       1 GTP        -0.4283
     32 C4          0.5630    3.2599   -0.9921 C.ar      1 GTP         0.2226
     33 H5'         1.2163   -0.0770   -2.0471 H         1 GTP        -0.0393
     34 H5''        2.4655   -1.3443   -2.1563 H         1 GTP        -0.0393
     35 H4'         3.8044   -0.1397   -0.4040 H         1 GTP        -0.0393
     36 H3'         1.6764   -1.7639    0.2728 H         1 GTP        -0.0393
     37 HO3'        2.2232   -1.2979    2.3953 H         1 GTP         0.2010
     38 H2'        -0.0011    0.0027    0.0003 H         1 GTP        -0.0393
     39 HO2'       -0.1563   -0.9855    2.0596 H         1 GTP         0.2010
     40 H1'         1.7826    1.9024    1.6451 H         1 GTP        -0.0393
     41 H8         -1.0545    2.5222    1.6816 H         1 GTP         0.0000
     42 HN1         0.3104    5.4612   -3.9026 H         1 GTP         0.0865
     43 HN21        3.1632    3.4672   -3.8824 H         1 GTP         0.2048
     44 HN22        2.2108    4.6918   -4.6924 H         1 GTP         0.2048
     45 H45        -2.1863    4.2902    0.2681 H         1 GTP         0.2048
@<TRIPOS>BOND
     1    1    2 2
     2    1    3 1
     3    1    4 1
     4    1    5 1
     5    5    6 1
     6    6    7 2
     7    6    8 1
     8    6    9 1
     9    9   10 1
    10   10   11 2
    11   10   12 1
    12   10   13 1
    13   13   14 1
    14   14   15 1
    15   14   33 1
    16   14   34 1
    17   15   16 1
    18   15   17 1
    19   15   35 1
    20   16   21 1
    21   17   18 1
    22   17   19 1
    23   17   36 1
    24   18   37 1
    25   19   20 1
    26   19   21 1
    27   19   38 1
    28   20   39 1
    29   21   22 1
    30   21   40 1
    31   22   23 ar
    32   22   32 ar
    33   23   24 ar
    34   23   41 1
    35   24   25 ar
    36   24   45 1
    37   25   26 ar
    38   25   32 ar
    39   26   27 2
    40   26   28 ar
    41   28   29 ar
    42   28   42 1
    43   29   30 1
    44   29   31 ar
    45   30   43 1
    46   30   44 1
    47   31   32 ar
@<TRIPOS>SUBSTRUCTURE
     1 GTP         1 GROUP 0 A     ****
@<TRIPOS>MOLECULE
[[[5-(2-amino-6-oxo-7,8-dihydro-1~{H}-purin-8-ylium-9-yl)-3,4-dihydroxy-tetrahydrofuran-2-yl]methoxy-oxido-phosphoryl]oxy-oxido-phosphoryl] phosphate
   45    47     1     0     0
SMALL
USER_CHARGES

@<TRIPOS>ATOM
      1 PG         -0.6882   -1.9751   -5.8535 P.3       1 GTP        -1.1921
      2 O1G        -2.1107   -1.5771   -6.2328 O.co2     1 GTP         0.3195
      3 O2G        -0.1092   -3.1120   -6.6889 O.co2     1 GTP         0.3195
      4 O3G        -0.4577   -2.1206   -4.3530 O.co2     1 GTP         0.3195
      5 O3B         0.2230   -0.6640   -6.2665 O.3       1 GTP         0.4672
      6 PB          0.1382    0.8813   -5.7431 P.3       1 GTP        -1.1062
      7 O1B         0.7331    1.7863   -6.7988 O.co2     1 GTP         0.3195
      8 O2B        -1.2374    1.1342   -5.1676 O.co2     1 GTP         0.3195
      9 O3A         1.1591    0.7827   -4.4728 O.3       1 GTP         0.4672
     10 PA          2.7413    0.3775   -4.4298 P.3       1 GTP        -1.1062
     11 O1A         2.8705   -1.0776   -4.8246 O.co2     1 GTP         0.3195
     12 O2A         3.5462    1.4514   -5.1291 O.co2     1 GTP         0.3195
     13 O5'         3.0213    0.5153   -2.8245 O.3       1 GTP         0.1618
     14 C5'         2.2816   -0.2918   -1.9206 C.3       1 GTP         0.1504
     15 C4'         2.7248    0.0226   -0.4980 C.3       1 GTP         0.1111
     16 O4'         2.4697    1.4219   -0.2462 O.3       1 GTP        -0.1436
     17 C3'         1.9404   -0.7419    0.5596 C.3       1 GTP         0.1111
     18 O3'         2.7418   -0.8086    1.7389 O.3       1 GTP        -0.2728
     19 C2'         0.7477    0.1630    0.7858 C.3       1 GTP         0.1111
     20 O2'         0.1373   -0.0577    2.0407 O.3       1 GTP        -0.2728
     21 C1'         1.3733    1.5427    0.6747 C.3       1 GTP         0.2693
     22 N9          0.4520    2.5240    0.1767 N.pl3     1 GTP        -0.3222
     23 C8          0.5671    3.2221   -0.9473 C.ar      1 GTP         0.1640
     24 N7         -0.4560    4.0508   -1.1290 N.pl3     1 GTP        -0.3688
     25 C5         -1.2671    3.8585   -0.0441 C.ar      1 GTP         0.0648
     26 C6         -2.5318    4.5014    0.2817 C.ar      1 GTP         0.3597
     27 O6         -3.0527    5.3493   -0.4293 O.2       1 GTP        -0.2755
     28 N1         -3.0357    4.0149    1.4868 N.pl3     1 GTP        -0.1604
     29 C2         -2.4069    3.0373    2.2768 C.ar      1 GTP         0.4468
     30 N2         -3.0679    2.6964    3.4278 N.pl3     1 GTP        -0.5618
     31 N3         -1.2653    2.4872    1.9379 N.2       1 GTP        -0.4283
     32 C4         -0.7342    2.9334    0.7643 C.ar      1 GTP         0.2226
     33 H5'         1.2163   -0.0770   -2.0471 H         1 GTP        -0.0393
     34 H5''        2.4655   -1.3443   -2.1563 H         1 GTP        -0.0393
     35 H4'         3.8044   -0.1397   -0.4040 H         1 GTP        -0.0393
     36 H3'         1.6764   -1.7639    0.2728 H         1 GTP        -0.0393
     37 HO3'        2.2232   -1.2979    2.3953 H         1 GTP         0.2010
     38 H2'        -0.0011    0.0027    0.0003 H         1 GTP        -0.0393
     39 HO2'       -0.1563   -0.9855    2.0596 H         1 GTP         0.2010
     40 H1'         1.7826    1.9024    1.6451 H         1 GTP        -0.0393
     41 H8          1.3888    3.1325   -1.6361 H         1 GTP         0.0000
     42 HN1        -3.9188    4.3932    1.8170 H         1 GTP         0.0865
     43 HN21       -2.6609    2.0087    4.0186 H         1 GTP         0.2048
     44 HN22       -3.9293    3.1496    3.6283 H         1 GTP         0.2048
     45 H45        -0.5938    4.6820   -1.9060 H         1 GTP         0.2048
@<TRIPOS>BOND
     1    1    2 2
     2    1    3 1
     3    1    4 1
     4    1    5 1
     5    5    6 1
     6    6    7 2
     7    6    8 1
     8    6    9 1
     9    9   10 1
    10   10   11 2
    11   10   12 1
    12   10   13 1
    13   13   14 1
    14   14   15 1
    15   14   33 1
    16   14   34 1
    17   15   16 1
    18   15   17 1
    19   15   35 1
    20   16   21 1
    21   17   18 1
    22   17   19 1
    23   17   36 1
    24   18   37 1
    25   19   20 1
    26   19   21 1
    27   19   38 1
    28   20   39 1
    29   21   22 1
    30   21   40 1
    31   22   23 ar
    32   22   32 ar
    33   23   24 ar
    34   23   41 1
    35   24   25 ar
    36   24   45 1
    37   25   26 ar
    38   25   32 ar
    39   26   27 2
    40   26   28 ar
    41   28   29 ar
    42   28   42 1
    43   29   30 1
    44   29   31 ar
    45   30   43 1
    46   30   44 1
    47   31   32 ar
@<TRIPOS>SUBSTRUCTURE
     1 GTP         1 GROUP 0 A     ****
@<TRIPOS>MOLECULE
[[[5-(2-amino-6-oxo-7,8-dihydro-1~{H}-purin-8-ylium-9-yl)-3,4-dihydroxy-tetrahydrofuran-2-yl]methoxy-oxido-phosphoryl]oxy-oxido-phosphoryl] phosphate
   45    47     1     0     0
SMALL
USER_CHARGES

@<TRIPOS>ATOM
      1 PG          6.9491   -4.1675   -3.8877 P.3       1 GTP        -1.1921
      2 O1G         7.9066   -3.6696   -4.9653 O.co2     1 GTP         0.3195
      3 O2G         7.5307   -4.1616   -2.4780 O.co2     1 GTP         0.3195
      4 O3G         6.2065   -5.4485   -4.2532 O.co2     1 GTP         0.3195
      5 O3B         5.7618   -3.0238   -3.8410 O.3       1 GTP         0.4672
      6 PB          4.7415   -2.5203   -5.0134 P.3       1 GTP        -1.1062
      7 O1B         5.5453   -1.8407   -6.0995 O.co2     1 GTP         0.3195
      8 O2B         3.7639   -3.6302   -5.3292 O.co2     1 GTP         0.3195
      9 O3A         3.9086   -1.3977   -4.1698 O.3       1 GTP         0.4672
     10 PA          4.4374   -0.0458   -3.4198 P.3       1 GTP        -1.1062
     11 O1A         5.3232   -0.4584   -2.2644 O.co2     1 GTP         0.3195
     12 O2A         4.9198    0.9409   -4.4608 O.co2     1 GTP         0.3195
     13 O5'         3.0213    0.5153   -2.8245 O.3       1 GTP         0.1618
     14 C5'         2.2816   -0.2918   -1.9206 C.3       1 GTP         0.1504
     15 C4'         2.7248    0.0226   -0.4980 C.3       1 GTP         0.1111
     16 O4'         2.4697    1.4219   -0.2462 O.3       1 GTP        -0.1436
     17 C3'         1.9404   -0.7419    0.5596 C.3       1 GTP         0.1111
     18 O3'         2.7418   -0.8086    1.7389 O.3       1 GTP        -0.2728
     19 C2'         0.7477    0.1630    0.7858 C.3       1 GTP         0.1111
     20 O2'         0.1373   -0.0577    2.0407 O.3       1 GTP        -0.2728
     21 C1'         1.3733    1.5427    0.6747 C.3       1 GTP         0.2693
     22 N9          0.4520    2.5240    0.1767 N.pl3     1 GTP        -0.3222
     23 C8          0.2203    2.8205   -1.0970 C.ar      1 GTP         0.1640
     24 N7         -0.6947    3.7752   -1.2304 N.pl3     1 GTP        -0.3688
     25 C5         -1.0607    4.0987    0.0476 C.ar      1 GTP         0.0648
     26 C6         -2.0310    5.0839    0.5029 C.ar      1 GTP         0.3597
     27 O6         -2.6779    5.7867   -0.2609 O.2       1 GTP        -0.2755
     28 N1         -2.1030    5.0975    1.8948 N.pl3     1 GTP        -0.1604
     29 C2         -1.3422    4.2721    2.7403 C.ar      1 GTP         0.4468
     30 N2         -1.5624    4.4419    4.0823 N.pl3     1 GTP        -0.5618
     31 N3         -0.4796    3.3981    2.2792 N.2       1 GTP        -0.4283
     32 C4         -0.3754    3.3496    0.9208 C.ar      1 GTP         0.2226
     33 H5'         1.2163   -0.0770   -2.0471 H         1 GTP        -0.0393
     34 H5''        2.4655   -1.3443   -2.1563 H         1 GTP        -0.0393
     35 H4'         3.8044   -0.1397   -0.4040 H         1 GTP        -0.0393
     36 H3'         1.6764   -1.7639    0.2728 H         1 GTP        -0.0393
     37 HO3'        2.2232   -1.2979    2.3953 H         1 GTP         0.2010
     38 H2'        -0.0011    0.0027    0.0003 H         1 GTP        -0.0393
     39 HO2'       -0.6141    0.5574    2.1082 H         1 GTP         0.2010
     40 H1'         1.7826    1.9024    1.6451 H         1 GTP        -0.0393
     41 H8          0.7110    2.3472   -1.9295 H         1 GTP         0.0000
     42 HN1        -2.7504    5.7495    2.3282 H         1 GTP         0.0865
     43 HN21       -1.0467    3.8796    4.7190 H         1 GTP         0.2048
     44 HN22       -2.2294    5.1209    4.3680 H         1 GTP         0.2048
     45 H45        -1.0382    4.1687   -2.0954 H         1 GTP         0.2048
@<TRIPOS>BOND
     1    1    2 2
     2    1    3 1
     3    1    4 1
     4    1    5 1
     5    5    6 1
     6    6    7 2
     7    6    8 1
     8    6    9 1
     9    9   10 1
    10   10   11 2
    11   10   12 1
    12   10   13 1
    13   13   14 1
    14   14   15 1
    15   14   33 1
    16   14   34 1
    17   15   16 1
    18   15   17 1
    19   15   35 1
    20   16   21 1
    21   17   18 1
    22   17   19 1
    23   17   36 1
    24   18   37 1
    25   19   20 1
    26   19   21 1
    27   19   38 1
    28   20   39 1
    29   21   22 1
    30   21   40 1
    31   22   23 ar
    32   22   32 ar
    33   23   24 ar
    34   23   41 1
    35   24   25 ar
    36   24   45 1
    37   25   26 ar
    38   25   32 ar
    39   26   27 2
    40   26   28 ar
    41   28   29 ar
    42   28   42 1
    43   29   30 1
    44   29   31 ar
    45   30   43 1
    46   30   44 1
    47   31   32 ar
@<TRIPOS>SUBSTRUCTURE
     1 GTP         1 GROUP 0 A     ****
@<TRIPOS>MOLECULE
[[[5-(2-amino-6-oxo-7,8-dihydro-1~{H}-purin-8-ylium-9-yl)-3,4-dihydroxy-tetrahydrofuran-2-yl]methoxy-oxido-phosphoryl]oxy-oxido-phosphoryl] phosphate
   45    47     1     0     0
SMALL
USER_CHARGES

@<TRIPOS>ATOM
      1 PG         -3.8685   -1.1321    5.4544 P.3       1 GTP        -1.1921
      2 O1G        -2.7602   -1.0362    4.4111 O.co2     1 GTP         0.3195
      3 O2G        -5.2248   -0.6211    4.9802 O.co2     1 GTP         0.3195
      4 O3G        -3.4659   -0.6441    6.8422 O.co2     1 GTP         0.3195
      5 O3B        -4.0945   -2.7531    5.6575 O.3       1 GTP         0.4672
      6 PB         -3.0470   -3.9064    6.1491 P.3       1 GTP        -1.1062
      7 O1B        -2.4527   -3.4906    7.4763 O.co2     1 GTP         0.3195
      8 O2B        -3.6816   -5.2658    5.9573 O.co2     1 GTP         0.3195
      9 O3A        -1.9211   -3.7529    4.9768 O.3       1 GTP         0.4672
     10 PA         -0.5242   -4.5704    4.7529 P.3       1 GTP        -1.1062
     11 O1A         0.4134   -4.2306    5.8909 O.co2     1 GTP         0.3195
     12 O2A        -0.8429   -6.0084    4.4056 O.co2     1 GTP         0.3195
     13 O5'         0.0118   -3.8395    3.3916 O.3       1 GTP         0.1618
     14 C5'        -0.7840   -3.8935    2.2172 C.3       1 GTP         0.1504
     15 C4'        -0.0724   -3.1466    1.1027 C.3       1 GTP         0.1111
     16 O4'        -0.8674   -3.1929   -0.0945 O.3       1 GTP        -0.1436
     17 C3'         0.1338   -1.6715    1.4027 C.3       1 GTP         0.1111
     18 O3'         1.2893   -1.4445    2.1808 O.3       1 GTP        -0.2728
     19 C2'         0.2158   -1.0724    0.0128 C.3       1 GTP         0.1111
     20 O2'         1.5141   -1.2448   -0.5513 O.3       1 GTP        -0.2728
     21 C1'        -0.7897   -1.9176   -0.7583 C.3       1 GTP         0.2693
     22 N9         -2.1040   -1.3333   -0.7704 N.pl3     1 GTP        -0.3222
     23 C8         -3.0597   -1.5109    0.1345 C.ar      1 GTP         0.1640
     24 N7         -4.1618   -0.8291   -0.1607 N.pl3     1 GTP        -0.3688
     25 C5         -3.8764   -0.1805   -1.3310 C.ar      1 GTP         0.0648
     26 C6         -4.7187    0.7111   -2.1152 C.ar      1 GTP         0.3597
     27 O6         -5.8617    1.0043   -1.7939 O.2       1 GTP        -0.2755
     28 N1         -4.0405    1.1608   -3.2468 N.pl3     1 GTP        -0.1604
     29 C2         -2.7239    0.8013   -3.5822 C.ar      1 GTP         0.4468
     30 N2         -2.2399    1.3534   -4.7394 N.pl3     1 GTP        -0.5618
     31 N3         -2.0053   -0.0071   -2.8402 N.2       1 GTP        -0.4283
     32 C4         -2.6290   -0.4727   -1.7210 C.ar      1 GTP         0.2226
     33 H5'        -0.9348   -4.9415    1.9415 H         1 GTP        -0.0393
     34 H5''       -1.7548   -3.4350    2.4278 H         1 GTP        -0.0393
     35 H4'         0.8874   -3.6466    0.8805 H         1 GTP        -0.0393
     36 H3'        -0.7376   -1.2333    1.9867 H         1 GTP        -0.0393
     37 HO3'        1.1626   -1.9325    3.0084 H         1 GTP         0.2010
     38 H2'        -0.0384   -0.0310    0.0096 H         1 GTP        -0.0393
     39 HO2'        2.1463   -0.7958    0.0370 H         1 GTP         0.2010
     40 H1'        -0.4769   -2.1002   -1.8093 H         1 GTP        -0.0393
     41 H8         -2.9610   -2.1316    1.0079 H         1 GTP         0.0000
     42 HN1        -4.5320    1.7923   -3.8726 H         1 GTP         0.0865
     43 HN21       -1.3128    1.1277   -5.0171 H         1 GTP         0.2048
     44 HN22       -2.8342    1.9586   -5.2572 H         1 GTP         0.2048
     45 H45        -5.0195   -0.8034    0.3729 H         1 GTP         0.2048
@<TRIPOS>BOND
     1    1    2 2
     2    1    3 1
     3    1    4 1
     4    1    5 1
     5    5    6 1
     6    6    7 2
     7    6    8 1
     8    6    9 1
     9    9   10 1
    10   10   11 2
    11   10   12 1
    12   10   13 1
    13   13   14 1
    14   14   15 1
    15   14   33 1
    16   14   34 1
    17   15   16 1
    18   15   17 1
    19   15   35 1
    20   16   21 1
    21   17   18 1
    22   17   19 1
    23   17   36 1
    24   18   37 1
    25   19   20 1
    26   19   21 1
    27   19   38 1
    28   20   39 1
    29   21   22 1
    30   21   40 1
    31   22   23 ar
    32   22   32 ar
    33   23   24 ar
    34   23   41 1
    35   24   25 ar
    36   24   45 1
    37   25   26 ar
    38   25   32 ar
    39   26   27 2
    40   26   28 ar
    41   28   29 ar
    42   28   42 1
    43   29   30 1
    44   29   31 ar
    45   30   43 1
    46   30   44 1
    47   31   32 ar
@<TRIPOS>SUBSTRUCTURE
     1 GTP         1 GROUP 0 A     ****
@<TRIPOS>MOLECULE
[[[5-(2-amino-6-oxo-7,8-dihydro-1~{H}-purin-8-ylium-9-yl)-3,4-dihydroxy-tetrahydrofuran-2-yl]methoxy-oxido-phosphoryl]oxy-oxido-phosphoryl] phosphate
   45    47     1     0     0
SMALL
USER_CHARGES

@<TRIPOS>ATOM
      1 PG          4.0137   -1.2066   -8.7012 P.3       1 GTP        -1.1921
      2 O1G         2.7304   -1.6651   -9.3858 O.co2     1 GTP         0.3195
      3 O2G         4.5098    0.1644   -9.1482 O.co2     1 GTP         0.3195
      4 O3G         5.1013   -2.2734   -8.6307 O.co2     1 GTP         0.3195
      5 O3B         3.5763   -0.9857   -7.1265 O.3       1 GTP         0.4672
      6 PB          2.9619   -2.0480   -6.0480 P.3       1 GTP        -1.1062
      7 O1B         1.5882   -2.4758   -6.5144 O.co2     1 GTP         0.3195
      8 O2B         4.0265   -3.0602   -5.6886 O.co2     1 GTP         0.3195
      9 O3A         2.8145   -1.0558   -4.7598 O.3       1 GTP         0.4672
     10 PA          3.9556   -0.2056   -3.9568 P.3       1 GTP        -1.1062
     11 O1A         4.8843   -1.1846   -3.2722 O.co2     1 GTP         0.3195
     12 O2A         4.4944    0.8789   -4.8642 O.co2     1 GTP         0.3195
     13 O5'         3.0213    0.5153   -2.8245 O.3       1 GTP         0.1618
     14 C5'         2.2816   -0.2918   -1.9206 C.3       1 GTP         0.1504
     15 C4'         2.7248    0.0226   -0.4980 C.3       1 GTP         0.1111
     16 O4'         2.4697    1.4219   -0.2462 O.3       1 GTP        -0.1436
     17 C3'         1.9404   -0.7419    0.5596 C.3       1 GTP         0.1111
     18 O3'         2.7418   -0.8086    1.7389 O.3       1 GTP        -0.2728
     19 C2'         0.7477    0.1630    0.7858 C.3       1 GTP         0.1111
     20 O2'         0.1373   -0.0577    2.0407 O.3       1 GTP        -0.2728
     21 C1'         1.3733    1.5427    0.6747 C.3       1 GTP         0.2693
     22 N9          0.4520    2.5240    0.1767 N.pl3     1 GTP        -0.3222
     23 C8         -0.2009    2.4849   -0.9792 C.ar      1 GTP         0.1640
     24 N7         -0.9840    3.5454   -1.1481 N.pl3     1 GTP        -0.3688
     25 C5         -0.8090    4.3005   -0.0206 C.ar      1 GTP         0.0648
     26 C6         -1.4206    5.5724    0.3362 C.ar      1 GTP         0.3597
     27 O6         -2.2199    6.1544   -0.3836 O.2       1 GTP        -0.2755
     28 N1         -0.9680    6.0043    1.5817 N.pl3     1 GTP        -0.1604
     29 C2         -0.0474    5.3055    2.3814 C.ar      1 GTP         0.4468
     30 N2          0.2680    5.9024    3.5740 N.pl3     1 GTP        -0.5618
     31 N3          0.4755    4.1601    2.0138 N.2       1 GTP        -0.4283
     32 C4          0.0611    3.6981    0.8001 C.ar      1 GTP         0.2226
     33 H5'         1.2163   -0.0770   -2.0471 H         1 GTP        -0.0393
     34 H5''        2.4655   -1.3443   -2.1563 H         1 GTP        -0.0393
     35 H4'         3.8044   -0.1397   -0.4040 H         1 GTP        -0.0393
     36 H3'         1.6764   -1.7639    0.2728 H         1 GTP        -0.0393
     37 HO3'        2.2232   -1.2979    2.3953 H         1 GTP         0.2010
     38 H2'        -0.0011    0.0027    0.0003 H         1 GTP        -0.0393
     39 HO2'       -0.6141    0.5574    2.1082 H         1 GTP         0.2010
     40 H1'         1.7826    1.9024    1.6451 H         1 GTP        -0.0393
     41 H8         -0.1126    1.6906   -1.6997 H         1 GTP         0.0000
     42 HN1        -1.3285    6.8855    1.9361 H         1 GTP         0.0865
     43 HN21        0.9153    5.4446    4.1732 H         1 GTP         0.2048
     44 HN22       -0.1624    6.7706    3.7948 H         1 GTP         0.2048
     45 H45        -1.5768    3.7405   -1.9429 H         1 GTP         0.2048
@<TRIPOS>BOND
     1    1    2 2
     2    1    3 1
     3    1    4 1
     4    1    5 1
     5    5    6 1
     6    6    7 2
     7    6    8 1
     8    6    9 1
     9    9   10 1
    10   10   11 2
    11   10   12 1
    12   10   13 1
    13   13   14 1
    14   14   15 1
    15   14   33 1
    16   14   34 1
    17   15   16 1
    18   15   17 1
    19   15   35 1
    20   16   21 1
    21   17   18 1
    22   17   19 1
    23   17   36 1
    24   18   37 1
    25   19   20 1
    26   19   21 1
    27   19   38 1
    28   20   39 1
    29   21   22 1
    30   21   40 1
    31   22   23 ar
    32   22   32 ar
    33   23   24 ar
    34   23   41 1
    35   24   25 ar
    36   24   45 1
    37   25   26 ar
    38   25   32 ar
    39   26   27 2
    40   26   28 ar
    41   28   29 ar
    42   28   42 1
    43   29   30 1
    44   29   31 ar
    45   30   43 1
    46   30   44 1
    47   31   32 ar
@<TRIPOS>SUBSTRUCTURE
     1 GTP         1 GROUP 0 A     ****
@<TRIPOS>MOLECULE
[[[5-(2-amino-6-oxo-7,8-dihydro-1~{H}-purin-8-ylium-9-yl)-3,4-dihydroxy-tetrahydrofuran-2-yl]methoxy-oxido-phosphoryl]oxy-oxido-phosphoryl] phosphate
   45    47     1     0     0
SMALL
USER_CHARGES

@<TRIPOS>ATOM
      1 PG         -5.6655   -5.6130    1.3043 P.3       1 GTP        -1.1921
      2 O1G        -6.0257   -7.0400    0.9044 O.co2     1 GTP         0.3195
      3 O2G        -6.8342   -4.6342    1.2634 O.co2     1 GTP         0.3195
      4 O3G        -4.3857   -5.0871    0.6628 O.co2     1 GTP         0.3195
      5 O3B        -5.2861   -5.7245    2.9054 O.3       1 GTP         0.4672
      6 PB         -4.1283   -6.6025    3.6521 P.3       1 GTP        -1.1062
      7 O1B        -4.1120   -6.2388    5.1200 O.co2     1 GTP         0.3195
      8 O2B        -4.2250   -8.0406    3.1941 O.co2     1 GTP         0.3195
      9 O3A        -2.8113   -5.9727    2.9209 O.3       1 GTP         0.4672
     10 PA         -1.2298   -6.3297    3.1234 P.3       1 GTP        -1.1062
     11 O1A        -0.8238   -5.9155    4.5209 O.co2     1 GTP         0.3195
     12 O2A        -0.9707   -7.7323    2.6177 O.co2     1 GTP         0.3195
     13 O5'        -0.5687   -5.2869    2.0510 O.3       1 GTP         0.1618
     14 C5'        -0.7840   -3.8935    2.2172 C.3       1 GTP         0.1504
     15 C4'        -0.0724   -3.1466    1.1027 C.3       1 GTP         0.1111
     16 O4'        -0.8674   -3.1929   -0.0945 O.3       1 GTP        -0.1436
     17 C3'         0.1338   -1.6715    1.4027 C.3       1 GTP         0.1111
     18 O3'         1.2893   -1.4445    2.1808 O.3       1 GTP        -0.2728
     19 C2'         0.2158   -1.0724    0.0128 C.3       1 GTP         0.1111
     20 O2'         1.5141   -1.2448   -0.5513 O.3       1 GTP        -0.2728
     21 C1'        -0.7897   -1.9176   -0.7583 C.3       1 GTP         0.2693
     22 N9         -2.1040   -1.3333   -0.7704 N.pl3     1 GTP        -0.3222
     23 C8         -3.0597   -1.5109    0.1345 C.ar      1 GTP         0.1640
     24 N7         -4.1618   -0.8291   -0.1607 N.pl3     1 GTP        -0.3688
     25 C5         -3.8764   -0.1805   -1.3310 C.ar      1 GTP         0.0648
     26 C6         -4.7187    0.7111   -2.1152 C.ar      1 GTP         0.3597
     27 O6         -5.8617    1.0043   -1.7939 O.2       1 GTP        -0.2755
     28 N1         -4.0405    1.1608   -3.2468 N.pl3     1 GTP        -0.1604
     29 C2         -2.7239    0.8013   -3.5822 C.ar      1 GTP         0.4468
     30 N2         -2.2399    1.3534   -4.7394 N.pl3     1 GTP        -0.5618
     31 N3         -2.0053   -0.0071   -2.8402 N.2       1 GTP        -0.4283
     32 C4         -2.6290   -0.4727   -1.7210 C.ar      1 GTP         0.2226
     33 H5'        -1.8598   -3.6968    2.1850 H         1 GTP        -0.0393
     34 H5''       -0.3933   -3.5903    3.1931 H         1 GTP        -0.0393
     35 H4'         0.8874   -3.6466    0.8805 H         1 GTP        -0.0393
     36 H3'        -0.7376   -1.2333    1.9867 H         1 GTP        -0.0393
     37 HO3'        1.1626   -1.9325    3.0084 H         1 GTP         0.2010
     38 H2'        -0.0384   -0.0310    0.0096 H         1 GTP        -0.0393
     39 HO2'        2.1463   -0.7958    0.0370 H         1 GTP         0.2010
     40 H1'        -0.4769   -2.1002   -1.8093 H         1 GTP        -0.0393
     41 H8         -2.9610   -2.1316    1.0079 H         1 GTP         0.0000
     42 HN1        -4.5320    1.7923   -3.8726 H         1 GTP         0.0865
     43 HN21       -1.3128    1.1277   -5.0171 H         1 GTP         0.2048
     44 HN22       -2.8342    1.9586   -5.2572 H         1 GTP         0.2048
     45 H45        -5.0195   -0.8034    0.3729 H         1 GTP         0.2048
@<TRIPOS>BOND
     1    1    2 2
     2    1    3 1
     3    1    4 1
     4    1    5 1
     5    5    6 1
     6    6    7 2
     7    6    8 1
     8    6    9 1
     9    9   10 1
    10   10   11 2
    11   10   12 1
    12   10   13 1
    13   13   14 1
    14   14   15 1
    15   14   33 1
    16   14   34 1
    17   15   16 1
    18   15   17 1
    19   15   35 1
    20   16   21 1
    21   17   18 1
    22   17   19 1
    23   17   36 1
    24   18   37 1
    25   19   20 1
    26   19   21 1
    27   19   38 1
    28   20   39 1
    29   21   22 1
    30   21   40 1
    31   22   23 ar
    32   22   32 ar
    33   23   24 ar
    34   23   41 1
    35   24   25 ar
    36   24   45 1
    37   25   26 ar
    38   25   32 ar
    39   26   27 2
    40   26   28 ar
    41   28   29 ar
    42   28   42 1
    43   29   30 1
    44   29   31 ar
    45   30   43 1
    46   30   44 1
    47   31   32 ar
@<TRIPOS>SUBSTRUCTURE
     1 GTP         1 GROUP 0 A     ****
@<TRIPOS>MOLECULE
[[[5-(2-amino-6-oxo-7,8-dihydro-1~{H}-purin-8-ylium-9-yl)-3,4-dihydroxy-tetrahydrofuran-2-yl]methoxy-oxido-phosphoryl]oxy-oxido-phosphoryl] phosphate
   45    47     1     0     0
SMALL
USER_CHARGES

@<TRIPOS>ATOM
      1 PG         -3.3414   -2.3998   -4.0685 P.3       1 GTP        -1.1921
      2 O1G        -3.4421   -3.8397   -4.5610 O.co2     1 GTP         0.3195
      3 O2G        -3.9431   -2.1639   -2.6873 O.co2     1 GTP         0.3195
      4 O3G        -3.7308   -1.3539   -5.1080 O.co2     1 GTP         0.3195
      5 O3B        -1.7244   -2.1575   -3.8530 O.3       1 GTP         0.4672
      6 PB         -0.4961   -2.2495   -4.9262 P.3       1 GTP        -1.1062
      7 O1B        -0.3605   -3.6829   -5.3895 O.co2     1 GTP         0.3195
      8 O2B        -0.6123   -1.1073   -5.9107 O.co2     1 GTP         0.3195
      9 O3A         0.7459   -1.8788   -3.9335 O.3       1 GTP         0.4672
     10 PA          1.2687   -2.6351   -2.5828 P.3       1 GTP        -1.1062
     11 O1A         0.1988   -2.5052   -1.5207 O.co2     1 GTP         0.3195
     12 O2A         1.8350   -3.9866   -2.9603 O.co2     1 GTP         0.3195
     13 O5'         2.5245   -1.6648   -2.1878 O.3       1 GTP         0.1618
     14 C5'         2.2816   -0.2918   -1.9206 C.3       1 GTP         0.1504
     15 C4'         2.7248    0.0226   -0.4980 C.3       1 GTP         0.1111
     16 O4'         2.4697    1.4219   -0.2462 O.3       1 GTP        -0.1436
     17 C3'         1.9404   -0.7419    0.5596 C.3       1 GTP         0.1111
     18 O3'         2.7418   -0.8086    1.7389 O.3       1 GTP        -0.2728
     19 C2'         0.7477    0.1630    0.7858 C.3       1 GTP         0.1111
     20 O2'         0.1373   -0.0577    2.0407 O.3       1 GTP        -0.2728
     21 C1'         1.3733    1.5427    0.6747 C.3       1 GTP         0.2693
     22 N9          0.4520    2.5240    0.1767 N.pl3     1 GTP        -0.3222
     23 C8          0.2203    2.8205   -1.0970 C.ar      1 GTP         0.1640
     24 N7         -0.6947    3.7752   -1.2304 N.pl3     1 GTP        -0.3688
     25 C5         -1.0607    4.0987    0.0476 C.ar      1 GTP         0.0648
     26 C6         -2.0310    5.0839    0.5029 C.ar      1 GTP         0.3597
     27 O6         -2.6779    5.7867   -0.2609 O.2       1 GTP        -0.2755
     28 N1         -2.1030    5.0975    1.8948 N.pl3     1 GTP        -0.1604
     29 C2         -1.3422    4.2721    2.7403 C.ar      1 GTP         0.4468
     30 N2         -1.5624    4.4419    4.0823 N.pl3     1 GTP        -0.5618
     31 N3         -0.4796    3.3981    2.2792 N.2       1 GTP        -0.4283
     32 C4         -0.3754    3.3496    0.9208 C.ar      1 GTP         0.2226
     33 H5'         2.8432    0.3119   -2.6398 H         1 GTP        -0.0393
     34 H5''        1.2128   -0.0927   -2.0428 H         1 GTP        -0.0393
     35 H4'         3.8044   -0.1397   -0.4040 H         1 GTP        -0.0393
     36 H3'         1.6764   -1.7639    0.2728 H         1 GTP        -0.0393
     37 HO3'        2.2232   -1.2979    2.3953 H         1 GTP         0.2010
     38 H2'        -0.0011    0.0027    0.0003 H         1 GTP        -0.0393
     39 HO2'       -0.1563   -0.9855    2.0596 H         1 GTP         0.2010
     40 H1'         1.7826    1.9024    1.6451 H         1 GTP        -0.0393
     41 H8          0.7110    2.3472   -1.9295 H         1 GTP         0.0000
     42 HN1        -2.7504    5.7495    2.3282 H         1 GTP         0.0865
     43 HN21       -1.0467    3.8796    4.7190 H         1 GTP         0.2048
     44 HN22       -2.2294    5.1209    4.3680 H         1 GTP         0.2048
     45 H45        -1.0382    4.1687   -2.0954 H         1 GTP         0.2048
@<TRIPOS>BOND
     1    1    2 2
     2    1    3 1
     3    1    4 1
     4    1    5 1
     5    5    6 1
     6    6    7 2
     7    6    8 1
     8    6    9 1
     9    9   10 1
    10   10   11 2
    11   10   12 1
    12   10   13 1
    13   13   14 1
    14   14   15 1
    15   14   33 1
    16   14   34 1
    17   15   16 1
    18   15   17 1
    19   15   35 1
    20   16   21 1
    21   17   18 1
    22   17   19 1
    23   17   36 1
    24   18   37 1
    25   19   20 1
    26   19   21 1
    27   19   38 1
    28   20   39 1
    29   21   22 1
    30   21   40 1
    31   22   23 ar
    32   22   32 ar
    33   23   24 ar
    34   23   41 1
    35   24   25 ar
    36   24   45 1
    37   25   26 ar
    38   25   32 ar
    39   26   27 2
    40   26   28 ar
    41   28   29 ar
    42   28   42 1
    43   29   30 1
    44   29   31 ar
    45   30   43 1
    46   30   44 1
    47   31   32 ar
@<TRIPOS>SUBSTRUCTURE
     1 GTP         1 GROUP 0 A     ****
@<TRIPOS>MOLECULE
[[[5-(2-amino-6-oxo-7,8-dihydro-1~{H}-purin-8-ylium-9-yl)-3,4-dihydroxy-tetrahydrofuran-2-yl]methoxy-oxido-phosphoryl]oxy-oxido-phosphoryl] phosphate
   45    47     1     0     0
SMALL
USER_CHARGES

@<TRIPOS>ATOM
      1 PG          5.2554    1.4793   -5.8752 P.3       1 GTP        -1.1921
      2 O1G         6.2864    0.6469   -6.6301 O.co2     1 GTP         0.3195
      3 O2G         5.2529    2.9599   -6.2404 O.co2     1 GTP         0.3195
      4 O3G         5.2050    1.2043   -4.3759 O.co2     1 GTP         0.3195
      5 O3B         3.8038    0.9235   -6.4263 O.3       1 GTP         0.4672
      6 PB          3.1605   -0.5769   -6.3623 P.3       1 GTP        -1.1062
      7 O1B         1.7428   -0.5216   -6.8865 O.co2     1 GTP         0.3195
      8 O2B         4.1656   -1.5700   -6.9017 O.co2     1 GTP         0.3195
      9 O3A         3.1340   -0.7803   -4.7426 O.3       1 GTP         0.4672
     10 PA          2.6201   -2.0522   -3.8550 P.3       1 GTP        -1.1062
     11 O1A         1.1236   -2.1846   -4.0358 O.co2     1 GTP         0.3195
     12 O2A         3.5431   -3.2274   -4.0940 O.co2     1 GTP         0.3195
     13 O5'         2.9216   -1.4836   -2.3516 O.3       1 GTP         0.1618
     14 C5'         2.2816   -0.2918   -1.9206 C.3       1 GTP         0.1504
     15 C4'         2.7248    0.0226   -0.4980 C.3       1 GTP         0.1111
     16 O4'         2.4697    1.4219   -0.2462 O.3       1 GTP        -0.1436
     17 C3'         1.9404   -0.7419    0.5596 C.3       1 GTP         0.1111
     18 O3'         2.7418   -0.8086    1.7389 O.3       1 GTP        -0.2728
     19 C2'         0.7477    0.1630    0.7858 C.3       1 GTP         0.1111
     20 O2'         0.1373   -0.0577    2.0407 O.3       1 GTP        -0.2728
     21 C1'         1.3733    1.5427    0.6747 C.3       1 GTP         0.2693
     22 N9          0.4520    2.5240    0.1767 N.pl3     1 GTP        -0.3222
     23 C8         -0.2009    2.4849   -0.9792 C.ar      1 GTP         0.1640
     24 N7         -0.9840    3.5454   -1.1481 N.pl3     1 GTP        -0.3688
     25 C5         -0.8090    4.3005   -0.0206 C.ar      1 GTP         0.0648
     26 C6         -1.4206    5.5724    0.3362 C.ar      1 GTP         0.3597
     27 O6         -2.2199    6.1544   -0.3836 O.2       1 GTP        -0.2755
     28 N1         -0.9680    6.0043    1.5817 N.pl3     1 GTP        -0.1604
     29 C2         -0.0474    5.3055    2.3814 C.ar      1 GTP         0.4468
     30 N2          0.2680    5.9024    3.5740 N.pl3     1 GTP        -0.5618
     31 N3          0.4755    4.1601    2.0138 N.2       1 GTP        -0.4283
     32 C4          0.0611    3.6981    0.8001 C.ar      1 GTP         0.2226
     33 H5'         2.5589    0.5217   -2.5976 H         1 GTP        -0.0393
     34 H5''        1.1982   -0.4388   -1.9617 H         1 GTP        -0.0393
     35 H4'         3.8044   -0.1397   -0.4040 H         1 GTP        -0.0393
     36 H3'         1.6764   -1.7639    0.2728 H         1 GTP        -0.0393
     37 HO3'        2.2232   -1.2979    2.3953 H         1 GTP         0.2010
     38 H2'        -0.0011    0.0027    0.0003 H         1 GTP        -0.0393
     39 HO2'       -0.1563   -0.9855    2.0596 H         1 GTP         0.2010
     40 H1'         1.7826    1.9024    1.6451 H         1 GTP        -0.0393
     41 H8         -0.1126    1.6906   -1.6997 H         1 GTP         0.0000
     42 HN1        -1.3285    6.8855    1.9361 H         1 GTP         0.0865
     43 HN21        0.9153    5.4446    4.1732 H         1 GTP         0.2048
     44 HN22       -0.1624    6.7706    3.7948 H         1 GTP         0.2048
     45 H45        -1.5768    3.7405   -1.9429 H         1 GTP         0.2048
@<TRIPOS>BOND
     1    1    2 2
     2    1    3 1
     3    1    4 1
     4    1    5 1
     5    5    6 1
     6    6    7 2
     7    6    8 1
     8    6    9 1
     9    9   10 1
    10   10   11 2
    11   10   12 1
    12   10   13 1
    13   13   14 1
    14   14   15 1
    15   14   33 1
    16   14   34 1
    17   15   16 1
    18   15   17 1
    19   15   35 1
    20   16   21 1
    21   17   18 1
    22   17   19 1
    23   17   36 1
    24   18   37 1
    25   19   20 1
    26   19   21 1
    27   19   38 1
    28   20   39 1
    29   21   22 1
    30   21   40 1
    31   22   23 ar
    32   22   32 ar
    33   23   24 ar
    34   23   41 1
    35   24   25 ar
    36   24   45 1
    37   25   26 ar
    38   25   32 ar
    39   26   27 2
    40   26   28 ar
    41   28   29 ar
    42   28   42 1
    43   29   30 1
    44   29   31 ar
    45   30   43 1
    46   30   44 1
    47   31   32 ar
@<TRIPOS>SUBSTRUCTURE
     1 GTP         1 GROUP 0 A     ****
@<TRIPOS>MOLECULE
[[[5-(2-amino-6-oxo-7,8-dihydro-1~{H}-purin-8-ylium-9-yl)-3,4-dihydroxy-tetrahydrofuran-2-yl]methoxy-oxido-phosphoryl]oxy-oxido-phosphoryl] phosphate
   45    47     1     0     0
SMALL
USER_CHARGES

@<TRIPOS>ATOM
      1 PG         -7.0015   -4.3750    3.9650 P.3       1 GTP        -1.1921
      2 O1G        -6.9042   -4.2602    5.4826 O.co2     1 GTP         0.3195
      3 O2G        -7.3494   -3.0701    3.2565 O.co2     1 GTP         0.3195
      4 O3G        -7.7955   -5.5827    3.4780 O.co2     1 GTP         0.3195
      5 O3B        -5.4578   -4.6986    3.4833 O.3       1 GTP         0.4672
      6 PB         -4.4769   -5.9469    3.8688 P.3       1 GTP        -1.1062
      7 O1B        -4.1486   -5.8709    5.3432 O.co2     1 GTP         0.3195
      8 O2B        -5.0176   -7.2130    3.2426 O.co2     1 GTP         0.3195
      9 O3A        -3.1629   -5.5251    2.9964 O.3       1 GTP         0.4672
     10 PA         -1.7206   -6.2776    2.8449 P.3       1 GTP        -1.1062
     11 O1A        -1.0179   -6.2329    4.1843 O.co2     1 GTP         0.3195
     12 O2A        -1.9197   -7.5854    2.1101 O.co2     1 GTP         0.3195
     13 O5'        -0.9724   -5.2440    1.8220 O.3       1 GTP         0.1618
     14 C5'        -0.7840   -3.8935    2.2172 C.3       1 GTP         0.1504
     15 C4'        -0.0724   -3.1466    1.1027 C.3       1 GTP         0.1111
     16 O4'        -0.8674   -3.1929   -0.0945 O.3       1 GTP        -0.1436
     17 C3'         0.1338   -1.6715    1.4027 C.3       1 GTP         0.1111
     18 O3'         1.2893   -1.4445    2.1808 O.3       1 GTP        -0.2728
     19 C2'         0.2158   -1.0724    0.0128 C.3       1 GTP         0.1111
     20 O2'         1.5141   -1.2448   -0.5513 O.3       1 GTP        -0.2728
     21 C1'        -0.7897   -1.9176   -0.7583 C.3       1 GTP         0.2693
     22 N9         -2.1040   -1.3333   -0.7704 N.pl3     1 GTP        -0.3222
     23 C8         -3.0597   -1.5109    0.1345 C.ar      1 GTP         0.1640
     24 N7         -4.1618   -0.8291   -0.1607 N.pl3     1 GTP        -0.3688
     25 C5         -3.8764   -0.1805   -1.3310 C.ar      1 GTP         0.0648
     26 C6         -4.7187    0.7111   -2.1152 C.ar      1 GTP         0.3597
     27 O6         -5.8617    1.0043   -1.7939 O.2       1 GTP        -0.2755
     28 N1         -4.0405    1.1608   -3.2468 N.pl3     1 GTP        -0.1604
     29 C2         -2.7239    0.8013   -3.5822 C.ar      1 GTP         0.4468
     30 N2         -2.2399    1.3534   -4.7394 N.pl3     1 GTP        -0.5618
     31 N3         -2.0053   -0.0071   -2.8402 N.2       1 GTP        -0.4283
     32 C4         -2.6290   -0.4727   -1.7210 C.ar      1 GTP         0.2226
     33 H5'        -1.7618   -3.4448    2.4164 H         1 GTP        -0.0393
     34 H5''       -0.1874   -3.8744    3.1341 H         1 GTP        -0.0393
     35 H4'         0.8874   -3.6466    0.8805 H         1 GTP        -0.0393
     36 H3'        -0.7376   -1.2333    1.9867 H         1 GTP        -0.0393
     37 HO3'        1.1626   -1.9325    3.0084 H         1 GTP         0.2010
     38 H2'        -0.0384   -0.0310    0.0096 H         1 GTP        -0.0393
     39 HO2'        2.1463   -0.7958    0.0370 H         1 GTP         0.2010
     40 H1'        -0.4769   -2.1002   -1.8093 H         1 GTP        -0.0393
     41 H8         -2.9610   -2.1316    1.0079 H         1 GTP         0.0000
     42 HN1        -4.5320    1.7923   -3.8726 H         1 GTP         0.0865
     43 HN21       -1.3128    1.1277   -5.0171 H         1 GTP         0.2048
     44 HN22       -2.8342    1.9586   -5.2572 H         1 GTP         0.2048
     45 H45        -5.0195   -0.8034    0.3729 H         1 GTP         0.2048
@<TRIPOS>BOND
     1    1    2 2
     2    1    3 1
     3    1    4 1
     4    1    5 1
     5    5    6 1
     6    6    7 2
     7    6    8 1
     8    6    9 1
     9    9   10 1
    10   10   11 2
    11   10   12 1
    12   10   13 1
    13   13   14 1
    14   14   15 1
    15   14   33 1
    16   14   34 1
    17   15   16 1
    18   15   17 1
    19   15   35 1
    20   16   21 1
    21   17   18 1
    22   17   19 1
    23   17   36 1
    24   18   37 1
    25   19   20 1
    26   19   21 1
    27   19   38 1
    28   20   39 1
    29   21   22 1
    30   21   40 1
    31   22   23 ar
    32   22   32 ar
    33   23   24 ar
    34   23   41 1
    35   24   25 ar
    36   24   45 1
    37   25   26 ar
    38   25   32 ar
    39   26   27 2
    40   26   28 ar
    41   28   29 ar
    42   28   42 1
    43   29   30 1
    44   29   31 ar
    45   30   43 1
    46   30   44 1
    47   31   32 ar
@<TRIPOS>SUBSTRUCTURE
     1 GTP         1 GROUP 0 A     ****
@<TRIPOS>MOLECULE
[[[5-(2-amino-6-oxo-7,8-dihydro-1~{H}-purin-8-ylium-9-yl)-3,4-dihydroxy-tetrahydrofuran-2-yl]methoxy-oxido-phosphoryl]oxy-oxido-phosphoryl] phosphate
   45    47     1     0     0
SMALL
USER_CHARGES

@<TRIPOS>ATOM
      1 PG         -1.3306   -0.2006   -5.6709 P.3       1 GTP        -1.1921
      2 O1G        -1.2480    0.3715   -7.0822 O.co2     1 GTP         0.3195
      3 O2G        -2.7123   -0.7145   -5.2804 O.co2     1 GTP         0.3195
      4 O3G        -0.6589    0.6602   -4.6060 O.co2     1 GTP         0.3195
      5 O3B        -0.3949   -1.5574   -5.7282 O.3       1 GTP         0.4672
      6 PB          1.1907   -1.7257   -6.0842 P.3       1 GTP        -1.1062
      7 O1B         1.4315   -3.1341   -6.5803 O.co2     1 GTP         0.3195
      8 O2B         1.6520   -0.5197   -6.8716 O.co2     1 GTP         0.3195
      9 O3A         1.8135   -1.5634   -4.5838 O.3       1 GTP         0.4672
     10 PA          1.5549   -2.4565   -3.2403 P.3       1 GTP        -1.1062
     11 O1A         0.1153   -2.2683   -2.8139 O.co2     1 GTP         0.3195
     12 O2A         2.1346   -3.8391   -3.4462 O.co2     1 GTP         0.3195
     13 O5'         2.5245   -1.6648   -2.1878 O.3       1 GTP         0.1618
     14 C5'         2.2816   -0.2918   -1.9206 C.3       1 GTP         0.1504
     15 C4'         2.7248    0.0226   -0.4980 C.3       1 GTP         0.1111
     16 O4'         2.4697    1.4219   -0.2462 O.3       1 GTP        -0.1436
     17 C3'         1.9404   -0.7419    0.5596 C.3       1 GTP         0.1111
     18 O3'         2.7418   -0.8086    1.7389 O.3       1 GTP        -0.2728
     19 C2'         0.7477    0.1630    0.7858 C.3       1 GTP         0.1111
     20 O2'         0.1373   -0.0577    2.0407 O.3       1 GTP        -0.2728
     21 C1'         1.3733    1.5427    0.6747 C.3       1 GTP         0.2693
     22 N9          0.4520    2.5240    0.1767 N.pl3     1 GTP        -0.3222
     23 C8         -0.2009    2.4849   -0.9792 C.ar      1 GTP         0.1640
     24 N7         -0.9840    3.5454   -1.1481 N.pl3     1 GTP        -0.3688
     25 C5         -0.8090    4.3005   -0.0206 C.ar      1 GTP         0.0648
     26 C6         -1.4206    5.5724    0.3362 C.ar      1 GTP         0.3597
     27 O6         -2.2199    6.1544   -0.3836 O.2       1 GTP        -0.2755
     28 N1         -0.9680    6.0043    1.5817 N.pl3     1 GTP        -0.1604
     29 C2         -0.0474    5.3055    2.3814 C.ar      1 GTP         0.4468
     30 N2          0.2680    5.9024    3.5740 N.pl3     1 GTP        -0.5618
     31 N3          0.4755    4.1601    2.0138 N.2       1 GTP        -0.4283
     32 C4          0.0611    3.6981    0.8001 C.ar      1 GTP         0.2226
     33 H5'         2.8432    0.3119   -2.6398 H         1 GTP        -0.0393
     34 H5''        1.2128   -0.0927   -2.0428 H         1 GTP        -0.0393
     35 H4'         3.8044   -0.1397   -0.4040 H         1 GTP        -0.0393
     36 H3'         1.6764   -1.7639    0.2728 H         1 GTP        -0.0393
     37 HO3'        2.2232   -1.2979    2.3953 H         1 GTP         0.2010
     38 H2'        -0.0011    0.0027    0.0003 H         1 GTP        -0.0393
     39 HO2'       -0.1563   -0.9855    2.0596 H         1 GTP         0.2010
     40 H1'         1.7826    1.9024    1.6451 H         1 GTP        -0.0393
     41 H8         -0.1126    1.6906   -1.6997 H         1 GTP         0.0000
     42 HN1        -1.3285    6.8855    1.9361 H         1 GTP         0.0865
     43 HN21        0.9153    5.4446    4.1732 H         1 GTP         0.2048
     44 HN22       -0.1624    6.7706    3.7948 H         1 GTP         0.2048
     45 H45        -1.5768    3.7405   -1.9429 H         1 GTP         0.2048
@<TRIPOS>BOND
     1    1    2 2
     2    1    3 1
     3    1    4 1
     4    1    5 1
     5    5    6 1
     6    6    7 2
     7    6    8 1
     8    6    9 1
     9    9   10 1
    10   10   11 2
    11   10   12 1
    12   10   13 1
    13   13   14 1
    14   14   15 1
    15   14   33 1
    16   14   34 1
    17   15   16 1
    18   15   17 1
    19   15   35 1
    20   16   21 1
    21   17   18 1
    22   17   19 1
    23   17   36 1
    24   18   37 1
    25   19   20 1
    26   19   21 1
    27   19   38 1
    28   20   39 1
    29   21   22 1
    30   21   40 1
    31   22   23 ar
    32   22   32 ar
    33   23   24 ar
    34   23   41 1
    35   24   25 ar
    36   24   45 1
    37   25   26 ar
    38   25   32 ar
    39   26   27 2
    40   26   28 ar
    41   28   29 ar
    42   28   42 1
    43   29   30 1
    44   29   31 ar
    45   30   43 1
    46   30   44 1
    47   31   32 ar
@<TRIPOS>SUBSTRUCTURE
     1 GTP         1 GROUP 0 A     ****
@<TRIPOS>MOLECULE
[[[5-(2-amino-6-oxo-7,8-dihydro-1~{H}-purin-8-ylium-9-yl)-3,4-dihydroxy-tetrahydrofuran-2-yl]methoxy-oxido-phosphoryl]oxy-oxido-phosphoryl] phosphate
   45    47     1     0     0
SMALL
USER_CHARGES

@<TRIPOS>ATOM
      1 PG          6.2104   -3.5574   -2.6144 P.3       1 GTP        -1.1921
      2 O1G         4.8208   -3.8069   -3.1912 O.co2     1 GTP         0.3195
      3 O2G         7.2528   -4.5967   -3.0128 O.co2     1 GTP         0.3195
      4 O3G         6.2179   -3.1997   -1.1318 O.co2     1 GTP         0.3195
      5 O3B         6.7142   -2.1731   -3.3559 O.3       1 GTP         0.4672
      6 PB          6.0559   -0.6779   -3.3484 P.3       1 GTP        -1.1062
      7 O1B         5.8744   -0.2330   -1.9142 O.co2     1 GTP         0.3195
      8 O2B         6.7766    0.1854   -4.3596 O.co2     1 GTP         0.3195
      9 O3A         4.5998   -1.0308   -3.9969 O.3       1 GTP         0.4672
     10 PA          3.3347   -0.0507   -4.3265 P.3       1 GTP        -1.1062
     11 O1A         3.8300    1.0925   -5.1853 O.co2     1 GTP         0.3195
     12 O2A         2.1534   -0.8944   -4.7538 O.co2     1 GTP         0.3195
     13 O5'         3.0213    0.5153   -2.8245 O.3       1 GTP         0.1618
     14 C5'         2.2816   -0.2918   -1.9206 C.3       1 GTP         0.1504
     15 C4'         2.7248    0.0226   -0.4980 C.3       1 GTP         0.1111
     16 O4'         2.4697    1.4219   -0.2462 O.3       1 GTP        -0.1436
     17 C3'         1.9404   -0.7419    0.5596 C.3       1 GTP         0.1111
     18 O3'         2.7418   -0.8086    1.7389 O.3       1 GTP        -0.2728
     19 C2'         0.7477    0.1630    0.7858 C.3       1 GTP         0.1111
     20 O2'         0.1373   -0.0577    2.0407 O.3       1 GTP        -0.2728
     21 C1'         1.3733    1.5427    0.6747 C.3       1 GTP         0.2693
     22 N9          0.4520    2.5240    0.1767 N.pl3     1 GTP        -0.3222
     23 C8         -0.2009    2.4849   -0.9792 C.ar      1 GTP         0.1640
     24 N7         -0.9840    3.5454   -1.1481 N.pl3     1 GTP        -0.3688
     25 C5         -0.8090    4.3005   -0.0206 C.ar      1 GTP         0.0648
     26 C6         -1.4206    5.5724    0.3362 C.ar      1 GTP         0.3597
     27 O6         -2.2199    6.1544   -0.3836 O.2       1 GTP        -0.2755
     28 N1         -0.9680    6.0043    1.5817 N.pl3     1 GTP        -0.1604
     29 C2         -0.0474    5.3055    2.3814 C.ar      1 GTP         0.4468
     30 N2          0.2680    5.9024    3.5740 N.pl3     1 GTP        -0.5618
     31 N3          0.4755    4.1601    2.0138 N.2       1 GTP        -0.4283
     32 C4          0.0611    3.6981    0.8001 C.ar      1 GTP         0.2226
     33 H5'         1.2163   -0.0770   -2.0471 H         1 GTP        -0.0393
     34 H5''        2.4655   -1.3443   -2.1563 H         1 GTP        -0.0393
     35 H4'         3.8044   -0.1397   -0.4040 H         1 GTP        -0.0393
     36 H3'         1.6764   -1.7639    0.2728 H         1 GTP        -0.0393
     37 HO3'        2.2232   -1.2979    2.3953 H         1 GTP         0.2010
     38 H2'        -0.0011    0.0027    0.0003 H         1 GTP        -0.0393
     39 HO2'       -0.6141    0.5574    2.1082 H         1 GTP         0.2010
     40 H1'         1.7826    1.9024    1.6451 H         1 GTP        -0.0393
     41 H8         -0.1126    1.6906   -1.6997 H         1 GTP         0.0000
     42 HN1        -1.3285    6.8855    1.9361 H         1 GTP         0.0865
     43 HN21        0.9153    5.4446    4.1732 H         1 GTP         0.2048
     44 HN22       -0.1624    6.7706    3.7948 H         1 GTP         0.2048
     45 H45        -1.5768    3.7405   -1.9429 H         1 GTP         0.2048
@<TRIPOS>BOND
     1    1    2 2
     2    1    3 1
     3    1    4 1
     4    1    5 1
     5    5    6 1
     6    6    7 2
     7    6    8 1
     8    6    9 1
     9    9   10 1
    10   10   11 2
    11   10   12 1
    12   10   13 1
    13   13   14 1
    14   14   15 1
    15   14   33 1
    16   14   34 1
    17   15   16 1
    18   15   17 1
    19   15   35 1
    20   16   21 1
    21   17   18 1
    22   17   19 1
    23   17   36 1
    24   18   37 1
    25   19   20 1
    26   19   21 1
    27   19   38 1
    28   20   39 1
    29   21   22 1
    30   21   40 1
    31   22   23 ar
    32   22   32 ar
    33   23   24 ar
    34   23   41 1
    35   24   25 ar
    36   24   45 1
    37   25   26 ar
    38   25   32 ar
    39   26   27 2
    40   26   28 ar
    41   28   29 ar
    42   28   42 1
    43   29   30 1
    44   29   31 ar
    45   30   43 1
    46   30   44 1
    47   31   32 ar
@<TRIPOS>SUBSTRUCTURE
     1 GTP         1 GROUP 0 A     ****
@<TRIPOS>MOLECULE
[[[5-(2-amino-6-oxo-7,8-dihydro-1~{H}-purin-8-ylium-9-yl)-3,4-dihydroxy-tetrahydrofuran-2-yl]methoxy-oxido-phosphoryl]oxy-oxido-phosphoryl] phosphate
   45    47     1     0     0
SMALL
USER_CHARGES

@<TRIPOS>ATOM
      1 PG          1.9377   -3.9435   -5.6844 P.3       1 GTP        -1.1921
      2 O1G         2.6204   -3.5717   -4.3724 O.co2     1 GTP         0.3195
      3 O2G         0.9277   -5.0801   -5.5679 O.co2     1 GTP         0.3195
      4 O3G         2.8877   -4.0694   -6.8709 O.co2     1 GTP         0.3195
      5 O3B         1.0210   -2.6229   -6.0525 O.3       1 GTP         0.4672
      6 PB          1.4682   -1.0736   -6.3148 P.3       1 GTP        -1.1062
      7 O1B         2.5262   -1.0485   -7.3954 O.co2     1 GTP         0.3195
      8 O2B         0.2305   -0.2085   -6.3988 O.co2     1 GTP         0.3195
      9 O3A         2.1583   -0.7533   -4.8703 O.3       1 GTP         0.4672
     10 PA          2.8629    0.6171   -4.3271 P.3       1 GTP        -1.1062
     11 O1A         4.1178    0.8599   -5.1370 O.co2     1 GTP         0.3195
     12 O2A         1.8074    1.6915   -4.1805 O.co2     1 GTP         0.3195
     13 O5'         3.2903    0.1346   -2.8241 O.3       1 GTP         0.1618
     14 C5'         2.2816   -0.2918   -1.9206 C.3       1 GTP         0.1504
     15 C4'         2.7248    0.0226   -0.4980 C.3       1 GTP         0.1111
     16 O4'         2.4697    1.4219   -0.2462 O.3       1 GTP        -0.1436
     17 C3'         1.9404   -0.7419    0.5596 C.3       1 GTP         0.1111
     18 O3'         2.7418   -0.8086    1.7389 O.3       1 GTP        -0.2728
     19 C2'         0.7477    0.1630    0.7858 C.3       1 GTP         0.1111
     20 O2'         0.1373   -0.0577    2.0407 O.3       1 GTP        -0.2728
     21 C1'         1.3733    1.5427    0.6747 C.3       1 GTP         0.2693
     22 N9          0.4520    2.5240    0.1767 N.pl3     1 GTP        -0.3222
     23 C8         -0.2009    2.4849   -0.9792 C.ar      1 GTP         0.1640
     24 N7         -0.9840    3.5454   -1.1481 N.pl3     1 GTP        -0.3688
     25 C5         -0.8090    4.3005   -0.0206 C.ar      1 GTP         0.0648
     26 C6         -1.4206    5.5724    0.3362 C.ar      1 GTP         0.3597
     27 O6         -2.2199    6.1544   -0.3836 O.2       1 GTP        -0.2755
     28 N1         -0.9680    6.0043    1.5817 N.pl3     1 GTP        -0.1604
     29 C2         -0.0474    5.3055    2.3814 C.ar      1 GTP         0.4468
     30 N2          0.2680    5.9024    3.5740 N.pl3     1 GTP        -0.5618
     31 N3          0.4755    4.1601    2.0138 N.2       1 GTP        -0.4283
     32 C4          0.0611    3.6981    0.8001 C.ar      1 GTP         0.2226
     33 H5'         1.3514    0.2330   -2.1577 H         1 GTP        -0.0393
     34 H5''        2.1280   -1.3678   -2.0460 H         1 GTP        -0.0393
     35 H4'         3.8044   -0.1397   -0.4040 H         1 GTP        -0.0393
     36 H3'         1.6764   -1.7639    0.2728 H         1 GTP        -0.0393
     37 HO3'        3.5554   -1.2733    1.4914 H         1 GTP         0.2010
     38 H2'        -0.0011    0.0027    0.0003 H         1 GTP        -0.0393
     39 HO2'       -0.1563   -0.9855    2.0596 H         1 GTP         0.2010
     40 H1'         1.7826    1.9024    1.6451 H         1 GTP        -0.0393
     41 H8         -0.1126    1.6906   -1.6997 H         1 GTP         0.0000
     42 HN1        -1.3285    6.8855    1.9361 H         1 GTP         0.0865
     43 HN21        0.9153    5.4446    4.1732 H         1 GTP         0.2048
     44 HN22       -0.1624    6.7706    3.7948 H         1 GTP         0.2048
     45 H45        -1.5768    3.7405   -1.9429 H         1 GTP         0.2048
@<TRIPOS>BOND
     1    1    2 2
     2    1    3 1
     3    1    4 1
     4    1    5 1
     5    5    6 1
     6    6    7 2
     7    6    8 1
     8    6    9 1
     9    9   10 1
    10   10   11 2
    11   10   12 1
    12   10   13 1
    13   13   14 1
    14   14   15 1
    15   14   33 1
    16   14   34 1
    17   15   16 1
    18   15   17 1
    19   15   35 1
    20   16   21 1
    21   17   18 1
    22   17   19 1
    23   17   36 1
    24   18   37 1
    25   19   20 1
    26   19   21 1
    27   19   38 1
    28   20   39 1
    29   21   22 1
    30   21   40 1
    31   22   23 ar
    32   22   32 ar
    33   23   24 ar
    34   23   41 1
    35   24   25 ar
    36   24   45 1
    37   25   26 ar
    38   25   32 ar
    39   26   27 2
    40   26   28 ar
    41   28   29 ar
    42   28   42 1
    43   29   30 1
    44   29   31 ar
    45   30   43 1
    46   30   44 1
    47   31   32 ar
@<TRIPOS>SUBSTRUCTURE
     1 GTP         1 GROUP 0 A     ****
@<TRIPOS>MOLECULE
[[[5-(2-amino-6-oxo-7,8-dihydro-1~{H}-purin-8-ylium-9-yl)-3,4-dihydroxy-tetrahydrofuran-2-yl]methoxy-oxido-phosphoryl]oxy-oxido-phosphoryl] phosphate
   45    47     1     0     0
SMALL
USER_CHARGES

@<TRIPOS>ATOM
      1 PG         -1.2349   -0.6821   -7.3452 P.3       1 GTP        -1.1921
      2 O1G        -2.6481   -0.4729   -6.8113 O.co2     1 GTP         0.3195
      3 O2G        -0.5842    0.5752   -7.9121 O.co2     1 GTP         0.3195
      4 O3G        -1.0734   -1.9200   -8.2212 O.co2     1 GTP         0.3195
      5 O3B        -0.3422   -1.0304   -6.0030 O.3       1 GTP         0.4672
      6 PB         -0.4961   -2.2495   -4.9262 P.3       1 GTP        -1.1062
      7 O1B        -1.8027   -2.0810   -4.1834 O.co2     1 GTP         0.3195
      8 O2B        -0.1309   -3.5536   -5.5995 O.co2     1 GTP         0.3195
      9 O3A         0.7459   -1.8788   -3.9335 O.3       1 GTP         0.4672
     10 PA          1.2687   -2.6351   -2.5828 P.3       1 GTP        -1.1062
     11 O1A         0.1988   -2.5052   -1.5207 O.co2     1 GTP         0.3195
     12 O2A         1.8350   -3.9866   -2.9603 O.co2     1 GTP         0.3195
     13 O5'         2.5245   -1.6648   -2.1878 O.3       1 GTP         0.1618
     14 C5'         2.2816   -0.2918   -1.9206 C.3       1 GTP         0.1504
     15 C4'         2.7248    0.0226   -0.4980 C.3       1 GTP         0.1111
     16 O4'         2.4697    1.4219   -0.2462 O.3       1 GTP        -0.1436
     17 C3'         1.9404   -0.7419    0.5596 C.3       1 GTP         0.1111
     18 O3'         2.7418   -0.8086    1.7389 O.3       1 GTP        -0.2728
     19 C2'         0.7477    0.1630    0.7858 C.3       1 GTP         0.1111
     20 O2'         0.1373   -0.0577    2.0407 O.3       1 GTP        -0.2728
     21 C1'         1.3733    1.5427    0.6747 C.3       1 GTP         0.2693
     22 N9          0.4520    2.5240    0.1767 N.pl3     1 GTP        -0.3222
     23 C8          0.2203    2.8205   -1.0970 C.ar      1 GTP         0.1640
     24 N7         -0.6947    3.7752   -1.2304 N.pl3     1 GTP        -0.3688
     25 C5         -1.0607    4.0987    0.0476 C.ar      1 GTP         0.0648
     26 C6         -2.0310    5.0839    0.5029 C.ar      1 GTP         0.3597
     27 O6         -2.6779    5.7867   -0.2609 O.2       1 GTP        -0.2755
     28 N1         -2.1030    5.0975    1.8948 N.pl3     1 GTP        -0.1604
     29 C2         -1.3422    4.2721    2.7403 C.ar      1 GTP         0.4468
     30 N2         -1.5624    4.4419    4.0823 N.pl3     1 GTP        -0.5618
     31 N3         -0.4796    3.3981    2.2792 N.2       1 GTP        -0.4283
     32 C4         -0.3754    3.3496    0.9208 C.ar      1 GTP         0.2226
     33 H5'         2.8432    0.3119   -2.6398 H         1 GTP        -0.0393
     34 H5''        1.2128   -0.0927   -2.0428 H         1 GTP        -0.0393
     35 H4'         3.8044   -0.1397   -0.4040 H         1 GTP        -0.0393
     36 H3'         1.6764   -1.7639    0.2728 H         1 GTP        -0.0393
     37 HO3'        2.2232   -1.2979    2.3953 H         1 GTP         0.2010
     38 H2'        -0.0011    0.0027    0.0003 H         1 GTP        -0.0393
     39 HO2'       -0.1563   -0.9855    2.0596 H         1 GTP         0.2010
     40 H1'         1.7826    1.9024    1.6451 H         1 GTP        -0.0393
     41 H8          0.7110    2.3472   -1.9295 H         1 GTP         0.0000
     42 HN1        -2.7504    5.7495    2.3282 H         1 GTP         0.0865
     43 HN21       -1.0467    3.8796    4.7190 H         1 GTP         0.2048
     44 HN22       -2.2294    5.1209    4.3680 H         1 GTP         0.2048
     45 H45        -1.0382    4.1687   -2.0954 H         1 GTP         0.2048
@<TRIPOS>BOND
     1    1    2 2
     2    1    3 1
     3    1    4 1
     4    1    5 1
     5    5    6 1
     6    6    7 2
     7    6    8 1
     8    6    9 1
     9    9   10 1
    10   10   11 2
    11   10   12 1
    12   10   13 1
    13   13   14 1
    14   14   15 1
    15   14   33 1
    16   14   34 1
    17   15   16 1
    18   15   17 1
    19   15   35 1
    20   16   21 1
    21   17   18 1
    22   17   19 1
    23   17   36 1
    24   18   37 1
    25   19   20 1
    26   19   21 1
    27   19   38 1
    28   20   39 1
    29   21   22 1
    30   21   40 1
    31   22   23 ar
    32   22   32 ar
    33   23   24 ar
    34   23   41 1
    35   24   25 ar
    36   24   45 1
    37   25   26 ar
    38   25   32 ar
    39   26   27 2
    40   26   28 ar
    41   28   29 ar
    42   28   42 1
    43   29   30 1
    44   29   31 ar
    45   30   43 1
    46   30   44 1
    47   31   32 ar
@<TRIPOS>SUBSTRUCTURE
     1 GTP         1 GROUP 0 A     ****
@<TRIPOS>MOLECULE
[[[5-(2-amino-6-oxo-7,8-dihydro-1~{H}-purin-8-ylium-9-yl)-3,4-dihydroxy-tetrahydrofuran-2-yl]methoxy-oxido-phosphoryl]oxy-oxido-phosphoryl] phosphate
   45    47     1     0     0
SMALL
USER_CHARGES

@<TRIPOS>ATOM
      1 PG          4.2155   -0.2982   -7.9981 P.3       1 GTP        -1.1921
      2 O1G         4.6719   -1.6146   -8.6181 O.co2     1 GTP         0.3195
      3 O2G         2.8229    0.1504   -8.4283 O.co2     1 GTP         0.3195
      4 O3G         5.2666    0.8065   -8.0296 O.co2     1 GTP         0.3195
      5 O3B         4.0529   -0.6411   -6.3931 O.3       1 GTP         0.4672
      6 PB          5.1593   -1.1733   -5.3153 P.3       1 GTP        -1.1062
      7 O1B         5.5936   -2.5669   -5.7111 O.co2     1 GTP         0.3195
      8 O2B         6.1657   -0.0746   -5.0555 O.co2     1 GTP         0.3195
      9 O3A         4.2121   -1.2550   -3.9881 O.3       1 GTP         0.4672
     10 PA          2.8604   -2.1325   -3.7186 P.3       1 GTP        -1.1062
     11 O1A         1.7706   -1.6210   -4.6353 O.co2     1 GTP         0.3195
     12 O2A         3.2235   -3.6010   -3.6797 O.co2     1 GTP         0.3195
     13 O5'         2.5245   -1.6648   -2.1878 O.3       1 GTP         0.1618
     14 C5'         2.2816   -0.2918   -1.9206 C.3       1 GTP         0.1504
     15 C4'         2.7248    0.0226   -0.4980 C.3       1 GTP         0.1111
     16 O4'         2.4697    1.4219   -0.2462 O.3       1 GTP        -0.1436
     17 C3'         1.9404   -0.7419    0.5596 C.3       1 GTP         0.1111
     18 O3'         2.7418   -0.8086    1.7389 O.3       1 GTP        -0.2728
     19 C2'         0.7477    0.1630    0.7858 C.3       1 GTP         0.1111
     20 O2'         0.1373   -0.0577    2.0407 O.3       1 GTP        -0.2728
     21 C1'         1.3733    1.5427    0.6747 C.3       1 GTP         0.2693
     22 N9          0.4520    2.5240    0.1767 N.pl3     1 GTP        -0.3222
     23 C8         -0.2009    2.4849   -0.9792 C.ar      1 GTP         0.1640
     24 N7         -0.9840    3.5454   -1.1481 N.pl3     1 GTP        -0.3688
     25 C5         -0.8090    4.3005   -0.0206 C.ar      1 GTP         0.0648
     26 C6         -1.4206    5.5724    0.3362 C.ar      1 GTP         0.3597
     27 O6         -2.2199    6.1544   -0.3836 O.2       1 GTP        -0.2755
     28 N1         -0.9680    6.0043    1.5817 N.pl3     1 GTP        -0.1604
     29 C2         -0.0474    5.3055    2.3814 C.ar      1 GTP         0.4468
     30 N2          0.2680    5.9024    3.5740 N.pl3     1 GTP        -0.5618
     31 N3          0.4755    4.1601    2.0138 N.2       1 GTP        -0.4283
     32 C4          0.0611    3.6981    0.8001 C.ar      1 GTP         0.2226
     33 H5'         2.8432    0.3119   -2.6398 H         1 GTP        -0.0393
     34 H5''        1.2128   -0.0927   -2.0428 H         1 GTP        -0.0393
     35 H4'         3.8044   -0.1397   -0.4040 H         1 GTP        -0.0393
     36 H3'         1.6764   -1.7639    0.2728 H         1 GTP        -0.0393
     37 HO3'        2.2232   -1.2979    2.3953 H         1 GTP         0.2010
     38 H2'        -0.0011    0.0027    0.0003 H         1 GTP        -0.0393
     39 HO2'       -0.1563   -0.9855    2.0596 H         1 GTP         0.2010
     40 H1'         1.7826    1.9024    1.6451 H         1 GTP        -0.0393
     41 H8         -0.1126    1.6906   -1.6997 H         1 GTP         0.0000
     42 HN1        -1.3285    6.8855    1.9361 H         1 GTP         0.0865
     43 HN21        0.9153    5.4446    4.1732 H         1 GTP         0.2048
     44 HN22       -0.1624    6.7706    3.7948 H         1 GTP         0.2048
     45 H45        -1.5768    3.7405   -1.9429 H         1 GTP         0.2048
@<TRIPOS>BOND
     1    1    2 2
     2    1    3 1
     3    1    4 1
     4    1    5 1
     5    5    6 1
     6    6    7 2
     7    6    8 1
     8    6    9 1
     9    9   10 1
    10   10   11 2
    11   10   12 1
    12   10   13 1
    13   13   14 1
    14   14   15 1
    15   14   33 1
    16   14   34 1
    17   15   16 1
    18   15   17 1
    19   15   35 1
    20   16   21 1
    21   17   18 1
    22   17   19 1
    23   17   36 1
    24   18   37 1
    25   19   20 1
    26   19   21 1
    27   19   38 1
    28   20   39 1
    29   21   22 1
    30   21   40 1
    31   22   23 ar
    32   22   32 ar
    33   23   24 ar
    34   23   41 1
    35   24   25 ar
    36   24   45 1
    37   25   26 ar
    38   25   32 ar
    39   26   27 2
    40   26   28 ar
    41   28   29 ar
    42   28   42 1
    43   29   30 1
    44   29   31 ar
    45   30   43 1
    46   30   44 1
    47   31   32 ar
@<TRIPOS>SUBSTRUCTURE
     1 GTP         1 GROUP 0 A     ****
@<TRIPOS>MOLECULE
[[[5-(2-amino-6-oxo-7,8-dihydro-1~{H}-purin-8-ylium-9-yl)-3,4-dihydroxy-tetrahydrofuran-2-yl]methoxy-oxido-phosphoryl]oxy-oxido-phosphoryl] phosphate
   45    47     1     0     0
SMALL
USER_CHARGES

@<TRIPOS>ATOM
      1 PG         -0.2782   -6.6332   -3.6665 P.3       1 GTP        -1.1921
      2 O1G        -0.9201   -6.3868   -5.0278 O.co2     1 GTP         0.3195
      3 O2G         0.9512   -7.5346   -3.7046 O.co2     1 GTP         0.3195
      4 O3G        -1.2700   -6.9736   -2.5591 O.co2     1 GTP         0.3195
      5 O3B         0.3139   -5.1586   -3.2250 O.3       1 GTP         0.4672
      6 PB         -0.4634   -3.7400   -2.9964 P.3       1 GTP        -1.1062
      7 O1B        -1.0238   -3.2728   -4.3213 O.co2     1 GTP         0.3195
      8 O2B        -1.3316   -3.8444   -1.7625 O.co2     1 GTP         0.3195
      9 O3A         0.8120   -2.8071   -2.5859 O.3       1 GTP         0.4672
     10 PA          2.1639   -2.4504   -3.4314 P.3       1 GTP        -1.1062
     11 O1A         2.9693   -3.7204   -3.5985 O.co2     1 GTP         0.3195
     12 O2A         1.7904   -1.5990   -4.6254 O.co2     1 GTP         0.3195
     13 O5'         2.9216   -1.4836   -2.3516 O.3       1 GTP         0.1618
     14 C5'         2.2816   -0.2918   -1.9206 C.3       1 GTP         0.1504
     15 C4'         2.7248    0.0226   -0.4980 C.3       1 GTP         0.1111
     16 O4'         2.4697    1.4219   -0.2462 O.3       1 GTP        -0.1436
     17 C3'         1.9404   -0.7419    0.5596 C.3       1 GTP         0.1111
     18 O3'         2.7418   -0.8086    1.7389 O.3       1 GTP        -0.2728
     19 C2'         0.7477    0.1630    0.7858 C.3       1 GTP         0.1111
     20 O2'         0.1373   -0.0577    2.0407 O.3       1 GTP        -0.2728
     21 C1'         1.3733    1.5427    0.6747 C.3       1 GTP         0.2693
     22 N9          0.4520    2.5240    0.1767 N.pl3     1 GTP        -0.3222
     23 C8         -0.2009    2.4849   -0.9792 C.ar      1 GTP         0.1640
     24 N7         -0.9840    3.5454   -1.1481 N.pl3     1 GTP        -0.3688
     25 C5         -0.8090    4.3005   -0.0206 C.ar      1 GTP         0.0648
     26 C6         -1.4206    5.5724    0.3362 C.ar      1 GTP         0.3597
     27 O6         -2.2199    6.1544   -0.3836 O.2       1 GTP        -0.2755
     28 N1         -0.9680    6.0043    1.5817 N.pl3     1 GTP        -0.1604
     29 C2         -0.0474    5.3055    2.3814 C.ar      1 GTP         0.4468
     30 N2          0.2680    5.9024    3.5740 N.pl3     1 GTP        -0.5618
     31 N3          0.4755    4.1601    2.0138 N.2       1 GTP        -0.4283
     32 C4          0.0611    3.6981    0.8001 C.ar      1 GTP         0.2226
     33 H5'         2.5589    0.5217   -2.5976 H         1 GTP        -0.0393
     34 H5''        1.1982   -0.4388   -1.9617 H         1 GTP        -0.0393
     35 H4'         3.8044   -0.1397   -0.4040 H         1 GTP        -0.0393
     36 H3'         1.6764   -1.7639    0.2728 H         1 GTP        -0.0393
     37 HO3'        2.2232   -1.2979    2.3953 H         1 GTP         0.2010
     38 H2'        -0.0011    0.0027    0.0003 H         1 GTP        -0.0393
     39 HO2'       -0.1563   -0.9855    2.0596 H         1 GTP         0.2010
     40 H1'         1.7826    1.9024    1.6451 H         1 GTP        -0.0393
     41 H8         -0.1126    1.6906   -1.6997 H         1 GTP         0.0000
     42 HN1        -1.3285    6.8855    1.9361 H         1 GTP         0.0865
     43 HN21        0.9153    5.4446    4.1732 H         1 GTP         0.2048
     44 HN22       -0.1624    6.7706    3.7948 H         1 GTP         0.2048
     45 H45        -1.5768    3.7405   -1.9429 H         1 GTP         0.2048
@<TRIPOS>BOND
     1    1    2 2
     2    1    3 1
     3    1    4 1
     4    1    5 1
     5    5    6 1
     6    6    7 2
     7    6    8 1
     8    6    9 1
     9    9   10 1
    10   10   11 2
    11   10   12 1
    12   10   13 1
    13   13   14 1
    14   14   15 1
    15   14   33 1
    16   14   34 1
    17   15   16 1
    18   15   17 1
    19   15   35 1
    20   16   21 1
    21   17   18 1
    22   17   19 1
    23   17   36 1
    24   18   37 1
    25   19   20 1
    26   19   21 1
    27   19   38 1
    28   20   39 1
    29   21   22 1
    30   21   40 1
    31   22   23 ar
    32   22   32 ar
    33   23   24 ar
    34   23   41 1
    35   24   25 ar
    36   24   45 1
    37   25   26 ar
    38   25   32 ar
    39   26   27 2
    40   26   28 ar
    41   28   29 ar
    42   28   42 1
    43   29   30 1
    44   29   31 ar
    45   30   43 1
    46   30   44 1
    47   31   32 ar
@<TRIPOS>SUBSTRUCTURE
     1 GTP         1 GROUP 0 A     ****
@<TRIPOS>MOLECULE
[[[5-(2-amino-6-oxo-7,8-dihydro-1~{H}-purin-8-ylium-9-yl)-3,4-dihydroxy-tetrahydrofuran-2-yl]methoxy-oxido-phosphoryl]oxy-oxido-phosphoryl] phosphate
   45    47     1     0     0
SMALL
USER_CHARGES

@<TRIPOS>ATOM
      1 PG          8.7240    0.1245   -2.4364 P.3       1 GTP        -1.1921
      2 O1G         8.8778    0.9611   -3.7022 O.co2     1 GTP         0.3195
      3 O2G         8.8223    0.9214   -1.1399 O.co2     1 GTP         0.3195
      4 O3G         9.5319   -1.1691   -2.4388 O.co2     1 GTP         0.3195
      5 O3B         7.1576   -0.3895   -2.4783 O.3       1 GTP         0.4672
      6 PB          6.3778   -1.2926   -3.5944 P.3       1 GTP        -1.1062
      7 O1B         6.3013   -0.5104   -4.8866 O.co2     1 GTP         0.3195
      8 O2B         6.9188   -2.7044   -3.5546 O.co2     1 GTP         0.3195
      9 O3A         4.9004   -1.3447   -2.9017 O.3       1 GTP         0.4672
     10 PA          3.5298   -2.0738   -3.4112 P.3       1 GTP        -1.1062
     11 O1A         3.0659   -1.3840   -4.6755 O.co2     1 GTP         0.3195
     12 O2A         3.7211   -3.5743   -3.3647 O.co2     1 GTP         0.3195
     13 O5'         2.5245   -1.6648   -2.1878 O.3       1 GTP         0.1618
     14 C5'         2.2816   -0.2918   -1.9206 C.3       1 GTP         0.1504
     15 C4'         2.7248    0.0226   -0.4980 C.3       1 GTP         0.1111
     16 O4'         2.4697    1.4219   -0.2462 O.3       1 GTP        -0.1436
     17 C3'         1.9404   -0.7419    0.5596 C.3       1 GTP         0.1111
     18 O3'         2.7418   -0.8086    1.7389 O.3       1 GTP        -0.2728
     19 C2'         0.7477    0.1630    0.7858 C.3       1 GTP         0.1111
     20 O2'         0.1373   -0.0577    2.0407 O.3       1 GTP        -0.2728
     21 C1'         1.3733    1.5427    0.6747 C.3       1 GTP         0.2693
     22 N9          0.4520    2.5240    0.1767 N.pl3     1 GTP        -0.3222
     23 C8         -0.2009    2.4849   -0.9792 C.ar      1 GTP         0.1640
     24 N7         -0.9840    3.5454   -1.1481 N.pl3     1 GTP        -0.3688
     25 C5         -0.8090    4.3005   -0.0206 C.ar      1 GTP         0.0648
     26 C6         -1.4206    5.5724    0.3362 C.ar      1 GTP         0.3597
     27 O6         -2.2199    6.1544   -0.3836 O.2       1 GTP        -0.2755
     28 N1         -0.9680    6.0043    1.5817 N.pl3     1 GTP        -0.1604
     29 C2         -0.0474    5.3055    2.3814 C.ar      1 GTP         0.4468
     30 N2          0.2680    5.9024    3.5740 N.pl3     1 GTP        -0.5618
     31 N3          0.4755    4.1601    2.0138 N.2       1 GTP        -0.4283
     32 C4          0.0611    3.6981    0.8001 C.ar      1 GTP         0.2226
     33 H5'         2.8432    0.3119   -2.6398 H         1 GTP        -0.0393
     34 H5''        1.2128   -0.0927   -2.0428 H         1 GTP        -0.0393
     35 H4'         3.8044   -0.1397   -0.4040 H         1 GTP        -0.0393
     36 H3'         1.6764   -1.7639    0.2728 H         1 GTP        -0.0393
     37 HO3'        2.2232   -1.2979    2.3953 H         1 GTP         0.2010
     38 H2'        -0.0011    0.0027    0.0003 H         1 GTP        -0.0393
     39 HO2'       -0.1563   -0.9855    2.0596 H         1 GTP         0.2010
     40 H1'         1.7826    1.9024    1.6451 H         1 GTP        -0.0393
     41 H8         -0.1126    1.6906   -1.6997 H         1 GTP         0.0000
     42 HN1        -1.3285    6.8855    1.9361 H         1 GTP         0.0865
     43 HN21        0.9153    5.4446    4.1732 H         1 GTP         0.2048
     44 HN22       -0.1624    6.7706    3.7948 H         1 GTP         0.2048
     45 H45        -1.5768    3.7405   -1.9429 H         1 GTP         0.2048
@<TRIPOS>BOND
     1    1    2 2
     2    1    3 1
     3    1    4 1
     4    1    5 1
     5    5    6 1
     6    6    7 2
     7    6    8 1
     8    6    9 1
     9    9   10 1
    10   10   11 2
    11   10   12 1
    12   10   13 1
    13   13   14 1
    14   14   15 1
    15   14   33 1
    16   14   34 1
    17   15   16 1
    18   15   17 1
    19   15   35 1
    20   16   21 1
    21   17   18 1
    22   17   19 1
    23   17   36 1
    24   18   37 1
    25   19   20 1
    26   19   21 1
    27   19   38 1
    28   20   39 1
    29   21   22 1
    30   21   40 1
    31   22   23 ar
    32   22   32 ar
    33   23   24 ar
    34   23   41 1
    35   24   25 ar
    36   24   45 1
    37   25   26 ar
    38   25   32 ar
    39   26   27 2
    40   26   28 ar
    41   28   29 ar
    42   28   42 1
    43   29   30 1
    44   29   31 ar
    45   30   43 1
    46   30   44 1
    47   31   32 ar
@<TRIPOS>SUBSTRUCTURE
     1 GTP         1 GROUP 0 A     ****
@<TRIPOS>MOLECULE
[[[5-(2-amino-6-oxo-7,8-dihydro-1~{H}-purin-8-ylium-9-yl)-3,4-dihydroxy-tetrahydrofuran-2-yl]methoxy-oxido-phosphoryl]oxy-oxido-phosphoryl] phosphate
   45    47     1     0     0
SMALL
USER_CHARGES

@<TRIPOS>ATOM
      1 PG         -1.1616   -1.0462   -5.1878 P.3       1 GTP        -1.1921
      2 O1G        -1.1286    0.2644   -4.4086 O.co2     1 GTP         0.3195
      3 O2G        -2.2595   -1.1230   -6.2434 O.co2     1 GTP         0.3195
      4 O3G        -1.0398   -2.2941   -4.3195 O.co2     1 GTP         0.3195
      5 O3B         0.2384   -1.0348   -6.0592 O.3       1 GTP         0.4672
      6 PB          1.7903   -0.9648   -5.5533 P.3       1 GTP        -1.1062
      7 O1B         2.0306   -2.0828   -4.5634 O.co2     1 GTP         0.3195
      8 O2B         2.6923   -0.7596   -6.7497 O.co2     1 GTP         0.3195
      9 O3A         1.7421    0.4621   -4.7613 O.3       1 GTP         0.4672
     10 PA          2.9240    1.2545   -3.9582 P.3       1 GTP        -1.1062
     11 O1A         4.1072    1.4127   -4.8880 O.co2     1 GTP         0.3195
     12 O2A         2.3242    2.4478   -3.2466 O.co2     1 GTP         0.3195
     13 O5'         3.2903    0.1346   -2.8241 O.3       1 GTP         0.1618
     14 C5'         2.2816   -0.2918   -1.9206 C.3       1 GTP         0.1504
     15 C4'         2.7248    0.0226   -0.4980 C.3       1 GTP         0.1111
     16 O4'         2.4697    1.4219   -0.2462 O.3       1 GTP        -0.1436
     17 C3'         1.9404   -0.7419    0.5596 C.3       1 GTP         0.1111
     18 O3'         2.7418   -0.8086    1.7389 O.3       1 GTP        -0.2728
     19 C2'         0.7477    0.1630    0.7858 C.3       1 GTP         0.1111
     20 O2'         0.1373   -0.0577    2.0407 O.3       1 GTP        -0.2728
     21 C1'         1.3733    1.5427    0.6747 C.3       1 GTP         0.2693
     22 N9          0.4520    2.5240    0.1767 N.pl3     1 GTP        -0.3222
     23 C8         -0.2009    2.4849   -0.9792 C.ar      1 GTP         0.1640
     24 N7         -0.9840    3.5454   -1.1481 N.pl3     1 GTP        -0.3688
     25 C5         -0.8090    4.3005   -0.0206 C.ar      1 GTP         0.0648
     26 C6         -1.4206    5.5724    0.3362 C.ar      1 GTP         0.3597
     27 O6         -2.2199    6.1544   -0.3836 O.2       1 GTP        -0.2755
     28 N1         -0.9680    6.0043    1.5817 N.pl3     1 GTP        -0.1604
     29 C2         -0.0474    5.3055    2.3814 C.ar      1 GTP         0.4468
     30 N2          0.2680    5.9024    3.5740 N.pl3     1 GTP        -0.5618
     31 N3          0.4755    4.1601    2.0138 N.2       1 GTP        -0.4283
     32 C4          0.0611    3.6981    0.8001 C.ar      1 GTP         0.2226
     33 H5'         1.3514    0.2330   -2.1577 H         1 GTP        -0.0393
     34 H5''        2.1280   -1.3678   -2.0460 H         1 GTP        -0.0393
     35 H4'         3.8044   -0.1397   -0.4040 H         1 GTP        -0.0393
     36 H3'         1.6764   -1.7639    0.2728 H         1 GTP        -0.0393
     37 HO3'        3.5554   -1.2733    1.4914 H         1 GTP         0.2010
     38 H2'        -0.0011    0.0027    0.0003 H         1 GTP        -0.0393
     39 HO2'       -0.1563   -0.9855    2.0596 H         1 GTP         0.2010
     40 H1'         1.7826    1.9024    1.6451 H         1 GTP        -0.0393
     41 H8         -0.1126    1.6906   -1.6997 H         1 GTP         0.0000
     42 HN1        -1.3285    6.8855    1.9361 H         1 GTP         0.0865
     43 HN21        0.9153    5.4446    4.1732 H         1 GTP         0.2048
     44 HN22       -0.1624    6.7706    3.7948 H         1 GTP         0.2048
     45 H45        -1.5768    3.7405   -1.9429 H         1 GTP         0.2048
@<TRIPOS>BOND
     1    1    2 2
     2    1    3 1
     3    1    4 1
     4    1    5 1
     5    5    6 1
     6    6    7 2
     7    6    8 1
     8    6    9 1
     9    9   10 1
    10   10   11 2
    11   10   12 1
    12   10   13 1
    13   13   14 1
    14   14   15 1
    15   14   33 1
    16   14   34 1
    17   15   16 1
    18   15   17 1
    19   15   35 1
    20   16   21 1
    21   17   18 1
    22   17   19 1
    23   17   36 1
    24   18   37 1
    25   19   20 1
    26   19   21 1
    27   19   38 1
    28   20   39 1
    29   21   22 1
    30   21   40 1
    31   22   23 ar
    32   22   32 ar
    33   23   24 ar
    34   23   41 1
    35   24   25 ar
    36   24   45 1
    37   25   26 ar
    38   25   32 ar
    39   26   27 2
    40   26   28 ar
    41   28   29 ar
    42   28   42 1
    43   29   30 1
    44   29   31 ar
    45   30   43 1
    46   30   44 1
    47   31   32 ar
@<TRIPOS>SUBSTRUCTURE
     1 GTP         1 GROUP 0 A     ****
@<TRIPOS>MOLECULE
[[[5-(2-amino-6-oxo-7,8-dihydro-1~{H}-purin-8-ylium-9-yl)-3,4-dihydroxy-tetrahydrofuran-2-yl]methoxy-oxido-phosphoryl]oxy-oxido-phosphoryl] phosphate
   45    47     1     0     0
SMALL
USER_CHARGES

@<TRIPOS>ATOM
      1 PG          7.0791    0.2550   -3.7277 P.3       1 GTP        -1.1921
      2 O1G         7.1090    0.7531   -2.2866 O.co2     1 GTP         0.3195
      3 O2G         8.3962    0.4211   -4.4781 O.co2     1 GTP         0.3195
      4 O3G         5.8496    0.6935   -4.5164 O.co2     1 GTP         0.3195
      5 O3B         6.8954   -1.3780   -3.5881 O.3       1 GTP         0.4672
      6 PB          5.6989   -2.2448   -2.8908 P.3       1 GTP        -1.1062
      7 O1B         5.9411   -3.7133   -3.1597 O.co2     1 GTP         0.3195
      8 O2B         5.4626   -1.7251   -1.4903 O.co2     1 GTP         0.3195
      9 O3A         4.4413   -1.7265   -3.7938 O.3       1 GTP         0.4672
     10 PA          2.8604   -2.1325   -3.7186 P.3       1 GTP        -1.1062
     11 O1A         2.0958   -1.2470   -4.6782 O.co2     1 GTP         0.3195
     12 O2A         2.7334   -3.6393   -3.7755 O.co2     1 GTP         0.3195
     13 O5'         2.5245   -1.6648   -2.1878 O.3       1 GTP         0.1618
     14 C5'         2.2816   -0.2918   -1.9206 C.3       1 GTP         0.1504
     15 C4'         2.7248    0.0226   -0.4980 C.3       1 GTP         0.1111
     16 O4'         2.4697    1.4219   -0.2462 O.3       1 GTP        -0.1436
     17 C3'         1.9404   -0.7419    0.5596 C.3       1 GTP         0.1111
     18 O3'         2.7418   -0.8086    1.7389 O.3       1 GTP        -0.2728
     19 C2'         0.7477    0.1630    0.7858 C.3       1 GTP         0.1111
     20 O2'         0.1373   -0.0577    2.0407 O.3       1 GTP        -0.2728
     21 C1'         1.3733    1.5427    0.6747 C.3       1 GTP         0.2693
     22 N9          0.4520    2.5240    0.1767 N.pl3     1 GTP        -0.3222
     23 C8          0.2203    2.8205   -1.0970 C.ar      1 GTP         0.1640
     24 N7         -0.6947    3.7752   -1.2304 N.pl3     1 GTP        -0.3688
     25 C5         -1.0607    4.0987    0.0476 C.ar      1 GTP         0.0648
     26 C6         -2.0310    5.0839    0.5029 C.ar      1 GTP         0.3597
     27 O6         -2.6779    5.7867   -0.2609 O.2       1 GTP        -0.2755
     28 N1         -2.1030    5.0975    1.8948 N.pl3     1 GTP        -0.1604
     29 C2         -1.3422    4.2721    2.7403 C.ar      1 GTP         0.4468
     30 N2         -1.5624    4.4419    4.0823 N.pl3     1 GTP        -0.5618
     31 N3         -0.4796    3.3981    2.2792 N.2       1 GTP        -0.4283
     32 C4         -0.3754    3.3496    0.9208 C.ar      1 GTP         0.2226
     33 H5'         2.8432    0.3119   -2.6398 H         1 GTP        -0.0393
     34 H5''        1.2128   -0.0927   -2.0428 H         1 GTP        -0.0393
     35 H4'         3.8044   -0.1397   -0.4040 H         1 GTP        -0.0393
     36 H3'         1.6764   -1.7639    0.2728 H         1 GTP        -0.0393
     37 HO3'        3.5554   -1.2733    1.4914 H         1 GTP         0.2010
     38 H2'        -0.0011    0.0027    0.0003 H         1 GTP        -0.0393
     39 HO2'        0.8082    0.1199    2.7232 H         1 GTP         0.2010
     40 H1'         1.7826    1.9024    1.6451 H         1 GTP        -0.0393
     41 H8          0.7110    2.3472   -1.9295 H         1 GTP         0.0000
     42 HN1        -2.7504    5.7495    2.3282 H         1 GTP         0.0865
     43 HN21       -1.0467    3.8796    4.7190 H         1 GTP         0.2048
     44 HN22       -2.2294    5.1209    4.3680 H         1 GTP         0.2048
     45 H45        -1.0382    4.1687   -2.0954 H         1 GTP         0.2048
@<TRIPOS>BOND
     1    1    2 2
     2    1    3 1
     3    1    4 1
     4    1    5 1
     5    5    6 1
     6    6    7 2
     7    6    8 1
     8    6    9 1
     9    9   10 1
    10   10   11 2
    11   10   12 1
    12   10   13 1
    13   13   14 1
    14   14   15 1
    15   14   33 1
    16   14   34 1
    17   15   16 1
    18   15   17 1
    19   15   35 1
    20   16   21 1
    21   17   18 1
    22   17   19 1
    23   17   36 1
    24   18   37 1
    25   19   20 1
    26   19   21 1
    27   19   38 1
    28   20   39 1
    29   21   22 1
    30   21   40 1
    31   22   23 ar
    32   22   32 ar
    33   23   24 ar
    34   23   41 1
    35   24   25 ar
    36   24   45 1
    37   25   26 ar
    38   25   32 ar
    39   26   27 2
    40   26   28 ar
    41   28   29 ar
    42   28   42 1
    43   29   30 1
    44   29   31 ar
    45   30   43 1
    46   30   44 1
    47   31   32 ar
@<TRIPOS>SUBSTRUCTURE
     1 GTP         1 GROUP 0 A     ****
@<TRIPOS>MOLECULE
[[[5-(2-amino-6-oxo-7,8-dihydro-1~{H}-purin-8-ylium-9-yl)-3,4-dihydroxy-tetrahydrofuran-2-yl]methoxy-oxido-phosphoryl]oxy-oxido-phosphoryl] phosphate
   45    47     1     0     0
SMALL
USER_CHARGES

@<TRIPOS>ATOM
      1 PG          2.8700   -4.4643   -4.2324 P.3       1 GTP        -1.1921
      2 O1G         1.5914   -3.6580   -4.4350 O.co2     1 GTP         0.3195
      3 O2G         2.9583   -5.7275   -5.0820 O.co2     1 GTP         0.3195
      4 O3G         3.2594   -4.6640   -2.7714 O.co2     1 GTP         0.3195
      5 O3B         4.0611   -3.4913   -4.8278 O.3       1 GTP         0.4672
      6 PB          4.5160   -1.9894   -4.3734 P.3       1 GTP        -1.1062
      7 O1B         4.8121   -1.9982   -2.8902 O.co2     1 GTP         0.3195
      8 O2B         5.5112   -1.4491   -5.3759 O.co2     1 GTP         0.3195
      9 O3A         3.1131   -1.1992   -4.6435 O.3       1 GTP         0.4672
     10 PA          2.7413    0.3775   -4.4298 P.3       1 GTP        -1.1062
     11 O1A         3.7595    1.2116   -5.1762 O.co2     1 GTP         0.3195
     12 O2A         1.2573    0.5705   -4.6542 O.co2     1 GTP         0.3195
     13 O5'         3.0213    0.5153   -2.8245 O.3       1 GTP         0.1618
     14 C5'         2.2816   -0.2918   -1.9206 C.3       1 GTP         0.1504
     15 C4'         2.7248    0.0226   -0.4980 C.3       1 GTP         0.1111
     16 O4'         2.4697    1.4219   -0.2462 O.3       1 GTP        -0.1436
     17 C3'         1.9404   -0.7419    0.5596 C.3       1 GTP         0.1111
     18 O3'         2.7418   -0.8086    1.7389 O.3       1 GTP        -0.2728
     19 C2'         0.7477    0.1630    0.7858 C.3       1 GTP         0.1111
     20 O2'         0.1373   -0.0577    2.0407 O.3       1 GTP        -0.2728
     21 C1'         1.3733    1.5427    0.6747 C.3       1 GTP         0.2693
     22 N9          0.4520    2.5240    0.1767 N.pl3     1 GTP        -0.3222
     23 C8         -0.6818    2.9109    0.7501 C.ar      1 GTP         0.1640
     24 N7         -1.3103    3.8415    0.0391 N.pl3     1 GTP        -0.3688
     25 C5         -0.5155    4.0512   -1.0547 C.ar      1 GTP         0.0648
     26 C6         -0.7125    4.9651   -2.1705 C.ar      1 GTP         0.3597
     27 O6         -1.6819    5.7047   -2.2651 O.2       1 GTP        -0.2755
     28 N1          0.3401    4.8672   -3.0790 N.pl3     1 GTP        -0.1604
     29 C2          1.4396    4.0039   -2.9348 C.ar      1 GTP         0.4468
     30 N2          2.3679    4.0602   -3.9414 N.pl3     1 GTP        -0.5618
     31 N3          1.5708    3.1983   -1.9080 N.2       1 GTP        -0.4283
     32 C4          0.5630    3.2599   -0.9921 C.ar      1 GTP         0.2226
     33 H5'         1.2163   -0.0770   -2.0471 H         1 GTP        -0.0393
     34 H5''        2.4655   -1.3443   -2.1563 H         1 GTP        -0.0393
     35 H4'         3.8044   -0.1397   -0.4040 H         1 GTP        -0.0393
     36 H3'         1.6764   -1.7639    0.2728 H         1 GTP        -0.0393
     37 HO3'        2.2232   -1.2979    2.3953 H         1 GTP         0.2010
     38 H2'        -0.0011    0.0027    0.0003 H         1 GTP        -0.0393
     39 HO2'       -0.1563   -0.9855    2.0596 H         1 GTP         0.2010
     40 H1'         1.7826    1.9024    1.6451 H         1 GTP        -0.0393
     41 H8         -1.0545    2.5222    1.6816 H         1 GTP         0.0000
     42 HN1         0.3104    5.4612   -3.9026 H         1 GTP         0.0865
     43 HN21        3.1632    3.4672   -3.8824 H         1 GTP         0.2048
     44 HN22        2.2108    4.6918   -4.6924 H         1 GTP         0.2048
     45 H45        -2.1863    4.2902    0.2681 H         1 GTP         0.2048
@<TRIPOS>BOND
     1    1    2 2
     2    1    3 1
     3    1    4 1
     4    1    5 1
     5    5    6 1
     6    6    7 2
     7    6    8 1
     8    6    9 1
     9    9   10 1
    10   10   11 2
    11   10   12 1
    12   10   13 1
    13   13   14 1
    14   14   15 1
    15   14   33 1
    16   14   34 1
    17   15   16 1
    18   15   17 1
    19   15   35 1
    20   16   21 1
    21   17   18 1
    22   17   19 1
    23   17   36 1
    24   18   37 1
    25   19   20 1
    26   19   21 1
    27   19   38 1
    28   20   39 1
    29   21   22 1
    30   21   40 1
    31   22   23 ar
    32   22   32 ar
    33   23   24 ar
    34   23   41 1
    35   24   25 ar
    36   24   45 1
    37   25   26 ar
    38   25   32 ar
    39   26   27 2
    40   26   28 ar
    41   28   29 ar
    42   28   42 1
    43   29   30 1
    44   29   31 ar
    45   30   43 1
    46   30   44 1
    47   31   32 ar
@<TRIPOS>SUBSTRUCTURE
     1 GTP         1 GROUP 0 A     ****
@<TRIPOS>MOLECULE
[[[5-(2-amino-6-oxo-7,8-dihydro-1~{H}-purin-8-ylium-9-yl)-3,4-dihydroxy-tetrahydrofuran-2-yl]methoxy-oxido-phosphoryl]oxy-oxido-phosphoryl] phosphate
   45    47     1     0     0
SMALL
USER_CHARGES

@<TRIPOS>ATOM
      1 PG          1.2503   -6.6265    7.7250 P.3       1 GTP        -1.1921
      2 O1G         1.5234   -8.1268    7.7392 O.co2     1 GTP         0.3195
      3 O2G         2.5041   -5.7586    7.7464 O.co2     1 GTP         0.3195
      4 O3G         0.1625   -6.1788    8.6958 O.co2     1 GTP         0.3195
      5 O3B         0.5905   -6.3488    6.2393 O.3       1 GTP         0.4672
      6 PB         -0.7641   -6.9599    5.5606 P.3       1 GTP        -1.1062
      7 O1B        -0.5769   -8.4463    5.3531 O.co2     1 GTP         0.3195
      8 O2B        -1.9724   -6.4077    6.2834 O.co2     1 GTP         0.3195
      9 O3A        -0.7002   -6.1970    4.1186 O.3       1 GTP         0.4672
     10 PA         -1.7206   -6.2776    2.8449 P.3       1 GTP        -1.1062
     11 O1A        -1.6495   -7.6739    2.2663 O.co2     1 GTP         0.3195
     12 O2A        -3.0460   -5.6590    3.2330 O.co2     1 GTP         0.3195
     13 O5'        -0.9724   -5.2440    1.8220 O.3       1 GTP         0.1618
     14 C5'        -0.7840   -3.8935    2.2172 C.3       1 GTP         0.1504
     15 C4'        -0.0724   -3.1466    1.1027 C.3       1 GTP         0.1111
     16 O4'        -0.8674   -3.1929   -0.0945 O.3       1 GTP        -0.1436
     17 C3'         0.1338   -1.6715    1.4027 C.3       1 GTP         0.1111
     18 O3'         1.2893   -1.4445    2.1808 O.3       1 GTP        -0.2728
     19 C2'         0.2158   -1.0724    0.0128 C.3       1 GTP         0.1111
     20 O2'         1.5141   -1.2448   -0.5513 O.3       1 GTP        -0.2728
     21 C1'        -0.7897   -1.9176   -0.7583 C.3       1 GTP         0.2693
     22 N9         -2.1040   -1.3333   -0.7704 N.pl3     1 GTP        -0.3222
     23 C8         -3.0597   -1.5109    0.1345 C.ar      1 GTP         0.1640
     24 N7         -4.1618   -0.8291   -0.1607 N.pl3     1 GTP        -0.3688
     25 C5         -3.8764   -0.1805   -1.3310 C.ar      1 GTP         0.0648
     26 C6         -4.7187    0.7111   -2.1152 C.ar      1 GTP         0.3597
     27 O6         -5.8617    1.0043   -1.7939 O.2       1 GTP        -0.2755
     28 N1         -4.0405    1.1608   -3.2468 N.pl3     1 GTP        -0.1604
     29 C2         -2.7239    0.8013   -3.5822 C.ar      1 GTP         0.4468
     30 N2         -2.2399    1.3534   -4.7394 N.pl3     1 GTP        -0.5618
     31 N3         -2.0053   -0.0071   -2.8402 N.2       1 GTP        -0.4283
     32 C4         -2.6290   -0.4727   -1.7210 C.ar      1 GTP         0.2226
     33 H5'        -1.7618   -3.4448    2.4164 H         1 GTP        -0.0393
     34 H5''       -0.1874   -3.8744    3.1341 H         1 GTP        -0.0393
     35 H4'         0.8874   -3.6466    0.8805 H         1 GTP        -0.0393
     36 H3'        -0.7376   -1.2333    1.9867 H         1 GTP        -0.0393
     37 HO3'        1.3408   -0.4870    2.3219 H         1 GTP         0.2010
     38 H2'        -0.0384   -0.0310    0.0096 H         1 GTP        -0.0393
     39 HO2'        2.1463   -0.7958    0.0370 H         1 GTP         0.2010
     40 H1'        -0.4769   -2.1002   -1.8093 H         1 GTP        -0.0393
     41 H8         -2.9610   -2.1316    1.0079 H         1 GTP         0.0000
     42 HN1        -4.5320    1.7923   -3.8726 H         1 GTP         0.0865
     43 HN21       -1.3128    1.1277   -5.0171 H         1 GTP         0.2048
     44 HN22       -2.8342    1.9586   -5.2572 H         1 GTP         0.2048
     45 H45        -5.0195   -0.8034    0.3729 H         1 GTP         0.2048
@<TRIPOS>BOND
     1    1    2 2
     2    1    3 1
     3    1    4 1
     4    1    5 1
     5    5    6 1
     6    6    7 2
     7    6    8 1
     8    6    9 1
     9    9   10 1
    10   10   11 2
    11   10   12 1
    12   10   13 1
    13   13   14 1
    14   14   15 1
    15   14   33 1
    16   14   34 1
    17   15   16 1
    18   15   17 1
    19   15   35 1
    20   16   21 1
    21   17   18 1
    22   17   19 1
    23   17   36 1
    24   18   37 1
    25   19   20 1
    26   19   21 1
    27   19   38 1
    28   20   39 1
    29   21   22 1
    30   21   40 1
    31   22   23 ar
    32   22   32 ar
    33   23   24 ar
    34   23   41 1
    35   24   25 ar
    36   24   45 1
    37   25   26 ar
    38   25   32 ar
    39   26   27 2
    40   26   28 ar
    41   28   29 ar
    42   28   42 1
    43   29   30 1
    44   29   31 ar
    45   30   43 1
    46   30   44 1
    47   31   32 ar
@<TRIPOS>SUBSTRUCTURE
     1 GTP         1 GROUP 0 A     ****
@<TRIPOS>MOLECULE
[[[5-(2-amino-6-oxo-7,8-dihydro-1~{H}-purin-8-ylium-9-yl)-3,4-dihydroxy-tetrahydrofuran-2-yl]methoxy-oxido-phosphoryl]oxy-oxido-phosphoryl] phosphate
   45    47     1     0     0
SMALL
USER_CHARGES

@<TRIPOS>ATOM
      1 PG          0.8098   -3.5565   -5.0985 P.3       1 GTP        -1.1921
      2 O1G        -0.6922   -3.3168   -5.2103 O.co2     1 GTP         0.3195
      3 O2G         1.2612   -4.9412   -5.5505 O.co2     1 GTP         0.3195
      4 O3G         1.4203   -3.0992   -3.7778 O.co2     1 GTP         0.3195
      5 O3B         1.4674   -2.5325   -6.2116 O.3       1 GTP         0.4672
      6 PB          1.3777   -0.9051   -6.3239 P.3       1 GTP        -1.1062
      7 O1B         2.2753   -0.4446   -7.4507 O.co2     1 GTP         0.3195
      8 O2B        -0.0723   -0.4825   -6.2439 O.co2     1 GTP         0.3195
      9 O3A         2.0542   -0.5072   -4.8922 O.3       1 GTP         0.4672
     10 PA          2.3343    0.9640   -4.2391 P.3       1 GTP        -1.1062
     11 O1A         3.3728    1.6695   -5.0839 O.co2     1 GTP         0.3195
     12 O2A         1.0104    1.6224   -3.9169 O.co2     1 GTP         0.3195
     13 O5'         3.0213    0.5153   -2.8245 O.3       1 GTP         0.1618
     14 C5'         2.2816   -0.2918   -1.9206 C.3       1 GTP         0.1504
     15 C4'         2.7248    0.0226   -0.4980 C.3       1 GTP         0.1111
     16 O4'         2.4697    1.4219   -0.2462 O.3       1 GTP        -0.1436
     17 C3'         1.9404   -0.7419    0.5596 C.3       1 GTP         0.1111
     18 O3'         2.7418   -0.8086    1.7389 O.3       1 GTP        -0.2728
     19 C2'         0.7477    0.1630    0.7858 C.3       1 GTP         0.1111
     20 O2'         0.1373   -0.0577    2.0407 O.3       1 GTP        -0.2728
     21 C1'         1.3733    1.5427    0.6747 C.3       1 GTP         0.2693
     22 N9          0.4520    2.5240    0.1767 N.pl3     1 GTP        -0.3222
     23 C8          0.5671    3.2221   -0.9473 C.ar      1 GTP         0.1640
     24 N7         -0.4560    4.0508   -1.1290 N.pl3     1 GTP        -0.3688
     25 C5         -1.2671    3.8585   -0.0441 C.ar      1 GTP         0.0648
     26 C6         -2.5318    4.5014    0.2817 C.ar      1 GTP         0.3597
     27 O6         -3.0527    5.3493   -0.4293 O.2       1 GTP        -0.2755
     28 N1         -3.0357    4.0149    1.4868 N.pl3     1 GTP        -0.1604
     29 C2         -2.4069    3.0373    2.2768 C.ar      1 GTP         0.4468
     30 N2         -3.0679    2.6964    3.4278 N.pl3     1 GTP        -0.5618
     31 N3         -1.2653    2.4872    1.9379 N.2       1 GTP        -0.4283
     32 C4         -0.7342    2.9334    0.7643 C.ar      1 GTP         0.2226
     33 H5'         1.2163   -0.0770   -2.0471 H         1 GTP        -0.0393
     34 H5''        2.4655   -1.3443   -2.1563 H         1 GTP        -0.0393
     35 H4'         3.8044   -0.1397   -0.4040 H         1 GTP        -0.0393
     36 H3'         1.6764   -1.7639    0.2728 H         1 GTP        -0.0393
     37 HO3'        3.5554   -1.2733    1.4914 H         1 GTP         0.2010
     38 H2'        -0.0011    0.0027    0.0003 H         1 GTP        -0.0393
     39 HO2'       -0.1563   -0.9855    2.0596 H         1 GTP         0.2010
     40 H1'         1.7826    1.9024    1.6451 H         1 GTP        -0.0393
     41 H8          1.3888    3.1325   -1.6361 H         1 GTP         0.0000
     42 HN1        -3.9188    4.3932    1.8170 H         1 GTP         0.0865
     43 HN21       -2.6609    2.0087    4.0186 H         1 GTP         0.2048
     44 HN22       -3.9293    3.1496    3.6283 H         1 GTP         0.2048
     45 H45        -0.5938    4.6820   -1.9060 H         1 GTP         0.2048
@<TRIPOS>BOND
     1    1    2 2
     2    1    3 1
     3    1    4 1
     4    1    5 1
     5    5    6 1
     6    6    7 2
     7    6    8 1
     8    6    9 1
     9    9   10 1
    10   10   11 2
    11   10   12 1
    12   10   13 1
    13   13   14 1
    14   14   15 1
    15   14   33 1
    16   14   34 1
    17   15   16 1
    18   15   17 1
    19   15   35 1
    20   16   21 1
    21   17   18 1
    22   17   19 1
    23   17   36 1
    24   18   37 1
    25   19   20 1
    26   19   21 1
    27   19   38 1
    28   20   39 1
    29   21   22 1
    30   21   40 1
    31   22   23 ar
    32   22   32 ar
    33   23   24 ar
    34   23   41 1
    35   24   25 ar
    36   24   45 1
    37   25   26 ar
    38   25   32 ar
    39   26   27 2
    40   26   28 ar
    41   28   29 ar
    42   28   42 1
    43   29   30 1
    44   29   31 ar
    45   30   43 1
    46   30   44 1
    47   31   32 ar
@<TRIPOS>SUBSTRUCTURE
     1 GTP         1 GROUP 0 A     ****
@<TRIPOS>MOLECULE
[[[5-(2-amino-6-oxo-7,8-dihydro-1~{H}-purin-8-ylium-9-yl)-3,4-dihydroxy-tetrahydrofuran-2-yl]methoxy-oxido-phosphoryl]oxy-oxido-phosphoryl] phosphate
   45    47     1     0     0
SMALL
USER_CHARGES

@<TRIPOS>ATOM
      1 PG          3.5454   -0.1658   -7.0202 P.3       1 GTP        -1.1921
      2 O1G         4.0523   -1.3602   -7.8217 O.co2     1 GTP         0.3195
      3 O2G         3.5830    1.1593   -7.7742 O.co2     1 GTP         0.3195
      4 O3G         4.0873   -0.0916   -5.5966 O.co2     1 GTP         0.3195
      5 O3B         1.9375   -0.4692   -6.8141 O.3       1 GTP         0.4672
      6 PB          1.1907   -1.7257   -6.0842 P.3       1 GTP        -1.1062
      7 O1B        -0.2963   -1.4522   -6.0450 O.co2     1 GTP         0.3195
      8 O2B         1.7430   -3.0198   -6.6389 O.co2     1 GTP         0.3195
      9 O3A         1.8135   -1.5634   -4.5838 O.3       1 GTP         0.4672
     10 PA          1.5549   -2.4565   -3.2403 P.3       1 GTP        -1.1062
     11 O1A         0.1153   -2.2683   -2.8139 O.co2     1 GTP         0.3195
     12 O2A         2.1346   -3.8391   -3.4462 O.co2     1 GTP         0.3195
     13 O5'         2.5245   -1.6648   -2.1878 O.3       1 GTP         0.1618
     14 C5'         2.2816   -0.2918   -1.9206 C.3       1 GTP         0.1504
     15 C4'         2.7248    0.0226   -0.4980 C.3       1 GTP         0.1111
     16 O4'         2.4697    1.4219   -0.2462 O.3       1 GTP        -0.1436
     17 C3'         1.9404   -0.7419    0.5596 C.3       1 GTP         0.1111
     18 O3'         2.7418   -0.8086    1.7389 O.3       1 GTP        -0.2728
     19 C2'         0.7477    0.1630    0.7858 C.3       1 GTP         0.1111
     20 O2'         0.1373   -0.0577    2.0407 O.3       1 GTP        -0.2728
     21 C1'         1.3733    1.5427    0.6747 C.3       1 GTP         0.2693
     22 N9          0.4520    2.5240    0.1767 N.pl3     1 GTP        -0.3222
     23 C8          0.5671    3.2221   -0.9473 C.ar      1 GTP         0.1640
     24 N7         -0.4560    4.0508   -1.1290 N.pl3     1 GTP        -0.3688
     25 C5         -1.2671    3.8585   -0.0441 C.ar      1 GTP         0.0648
     26 C6         -2.5318    4.5014    0.2817 C.ar      1 GTP         0.3597
     27 O6         -3.0527    5.3493   -0.4293 O.2       1 GTP        -0.2755
     28 N1         -3.0357    4.0149    1.4868 N.pl3     1 GTP        -0.1604
     29 C2         -2.4069    3.0373    2.2768 C.ar      1 GTP         0.4468
     30 N2         -3.0679    2.6964    3.4278 N.pl3     1 GTP        -0.5618
     31 N3         -1.2653    2.4872    1.9379 N.2       1 GTP        -0.4283
     32 C4         -0.7342    2.9334    0.7643 C.ar      1 GTP         0.2226
     33 H5'         2.8432    0.3119   -2.6398 H         1 GTP        -0.0393
     34 H5''        1.2128   -0.0927   -2.0428 H         1 GTP        -0.0393
     35 H4'         3.8044   -0.1397   -0.4040 H         1 GTP        -0.0393
     36 H3'         1.6764   -1.7639    0.2728 H         1 GTP        -0.0393
     37 HO3'        2.2232   -1.2979    2.3953 H         1 GTP         0.2010
     38 H2'        -0.0011    0.0027    0.0003 H         1 GTP        -0.0393
     39 HO2'       -0.1563   -0.9855    2.0596 H         1 GTP         0.2010
     40 H1'         1.7826    1.9024    1.6451 H         1 GTP        -0.0393
     41 H8          1.3888    3.1325   -1.6361 H         1 GTP         0.0000
     42 HN1        -3.9188    4.3932    1.8170 H         1 GTP         0.0865
     43 HN21       -2.6609    2.0087    4.0186 H         1 GTP         0.2048
     44 HN22       -3.9293    3.1496    3.6283 H         1 GTP         0.2048
     45 H45        -0.5938    4.6820   -1.9060 H         1 GTP         0.2048
@<TRIPOS>BOND
     1    1    2 2
     2    1    3 1
     3    1    4 1
     4    1    5 1
     5    5    6 1
     6    6    7 2
     7    6    8 1
     8    6    9 1
     9    9   10 1
    10   10   11 2
    11   10   12 1
    12   10   13 1
    13   13   14 1
    14   14   15 1
    15   14   33 1
    16   14   34 1
    17   15   16 1
    18   15   17 1
    19   15   35 1
    20   16   21 1
    21   17   18 1
    22   17   19 1
    23   17   36 1
    24   18   37 1
    25   19   20 1
    26   19   21 1
    27   19   38 1
    28   20   39 1
    29   21   22 1
    30   21   40 1
    31   22   23 ar
    32   22   32 ar
    33   23   24 ar
    34   23   41 1
    35   24   25 ar
    36   24   45 1
    37   25   26 ar
    38   25   32 ar
    39   26   27 2
    40   26   28 ar
    41   28   29 ar
    42   28   42 1
    43   29   30 1
    44   29   31 ar
    45   30   43 1
    46   30   44 1
    47   31   32 ar
@<TRIPOS>SUBSTRUCTURE
     1 GTP         1 GROUP 0 A     ****
@<TRIPOS>MOLECULE
[[[5-(2-amino-6-oxo-7,8-dihydro-1~{H}-purin-8-ylium-9-yl)-3,4-dihydroxy-tetrahydrofuran-2-yl]methoxy-oxido-phosphoryl]oxy-oxido-phosphoryl] phosphate
   45    47     1     0     0
SMALL
USER_CHARGES

@<TRIPOS>ATOM
      1 PG          1.4845   -0.0071   -8.3415 P.3       1 GTP        -1.1921
      2 O1G         1.3588   -1.3118   -9.1211 O.co2     1 GTP         0.3195
      3 O2G         0.1776    0.7643   -8.1912 O.co2     1 GTP         0.3195
      4 O3G         2.6760    0.8534   -8.7488 O.co2     1 GTP         0.3195
      5 O3B         1.8512   -0.4860   -6.8066 O.3       1 GTP         0.4672
      6 PB          3.1205   -1.3518   -6.2513 P.3       1 GTP        -1.1062
      7 O1B         3.0398   -2.7520   -6.8174 O.co2     1 GTP         0.3195
      8 O2B         4.3780   -0.5203   -6.3727 O.co2     1 GTP         0.3195
      9 O3A         2.7398   -1.3839   -4.6640 O.3       1 GTP         0.4672
     10 PA          3.5298   -2.0738   -3.4112 P.3       1 GTP        -1.1062
     11 O1A         3.4911   -3.5755   -3.5934 O.co2     1 GTP         0.3195
     12 O2A         4.8387   -1.3468   -3.1911 O.co2     1 GTP         0.3195
     13 O5'         2.5245   -1.6648   -2.1878 O.3       1 GTP         0.1618
     14 C5'         2.2816   -0.2918   -1.9206 C.3       1 GTP         0.1504
     15 C4'         2.7248    0.0226   -0.4980 C.3       1 GTP         0.1111
     16 O4'         2.4697    1.4219   -0.2462 O.3       1 GTP        -0.1436
     17 C3'         1.9404   -0.7419    0.5596 C.3       1 GTP         0.1111
     18 O3'         2.7418   -0.8086    1.7389 O.3       1 GTP        -0.2728
     19 C2'         0.7477    0.1630    0.7858 C.3       1 GTP         0.1111
     20 O2'         0.1373   -0.0577    2.0407 O.3       1 GTP        -0.2728
     21 C1'         1.3733    1.5427    0.6747 C.3       1 GTP         0.2693
     22 N9          0.4520    2.5240    0.1767 N.pl3     1 GTP        -0.3222
     23 C8         -0.2009    2.4849   -0.9792 C.ar      1 GTP         0.1640
     24 N7         -0.9840    3.5454   -1.1481 N.pl3     1 GTP        -0.3688
     25 C5         -0.8090    4.3005   -0.0206 C.ar      1 GTP         0.0648
     26 C6         -1.4206    5.5724    0.3362 C.ar      1 GTP         0.3597
     27 O6         -2.2199    6.1544   -0.3836 O.2       1 GTP        -0.2755
     28 N1         -0.9680    6.0043    1.5817 N.pl3     1 GTP        -0.1604
     29 C2         -0.0474    5.3055    2.3814 C.ar      1 GTP         0.4468
     30 N2          0.2680    5.9024    3.5740 N.pl3     1 GTP        -0.5618
     31 N3          0.4755    4.1601    2.0138 N.2       1 GTP        -0.4283
     32 C4          0.0611    3.6981    0.8001 C.ar      1 GTP         0.2226
     33 H5'         2.8432    0.3119   -2.6398 H         1 GTP        -0.0393
     34 H5''        1.2128   -0.0927   -2.0428 H         1 GTP        -0.0393
     35 H4'         3.8044   -0.1397   -0.4040 H         1 GTP        -0.0393
     36 H3'         1.6764   -1.7639    0.2728 H         1 GTP        -0.0393
     37 HO3'        2.2232   -1.2979    2.3953 H         1 GTP         0.2010
     38 H2'        -0.0011    0.0027    0.0003 H         1 GTP        -0.0393
     39 HO2'       -0.6141    0.5574    2.1082 H         1 GTP         0.2010
     40 H1'         1.7826    1.9024    1.6451 H         1 GTP        -0.0393
     41 H8         -0.1126    1.6906   -1.6997 H         1 GTP         0.0000
     42 HN1        -1.3285    6.8855    1.9361 H         1 GTP         0.0865
     43 HN21        0.9153    5.4446    4.1732 H         1 GTP         0.2048
     44 HN22       -0.1624    6.7706    3.7948 H         1 GTP         0.2048
     45 H45        -1.5768    3.7405   -1.9429 H         1 GTP         0.2048
@<TRIPOS>BOND
     1    1    2 2
     2    1    3 1
     3    1    4 1
     4    1    5 1
     5    5    6 1
     6    6    7 2
     7    6    8 1
     8    6    9 1
     9    9   10 1
    10   10   11 2
    11   10   12 1
    12   10   13 1
    13   13   14 1
    14   14   15 1
    15   14   33 1
    16   14   34 1
    17   15   16 1
    18   15   17 1
    19   15   35 1
    20   16   21 1
    21   17   18 1
    22   17   19 1
    23   17   36 1
    24   18   37 1
    25   19   20 1
    26   19   21 1
    27   19   38 1
    28   20   39 1
    29   21   22 1
    30   21   40 1
    31   22   23 ar
    32   22   32 ar
    33   23   24 ar
    34   23   41 1
    35   24   25 ar
    36   24   45 1
    37   25   26 ar
    38   25   32 ar
    39   26   27 2
    40   26   28 ar
    41   28   29 ar
    42   28   42 1
    43   29   30 1
    44   29   31 ar
    45   30   43 1
    46   30   44 1
    47   31   32 ar
@<TRIPOS>SUBSTRUCTURE
     1 GTP         1 GROUP 0 A     ****
@<TRIPOS>MOLECULE
[[[5-(2-amino-6-oxo-7,8-dihydro-1~{H}-purin-8-ylium-9-yl)-3,4-dihydroxy-tetrahydrofuran-2-yl]methoxy-oxido-phosphoryl]oxy-oxido-phosphoryl] phosphate
   45    47     1     0     0
SMALL
USER_CHARGES

@<TRIPOS>ATOM
      1 PG         -1.4762   -0.8395   -5.4843 P.3       1 GTP        -1.1921
      2 O1G        -1.0941   -1.2260   -4.0594 O.co2     1 GTP         0.3195
      3 O2G        -2.4800    0.3047   -5.5780 O.co2     1 GTP         0.3195
      4 O3G        -1.7911   -2.0244   -6.3914 O.co2     1 GTP         0.3195
      5 O3B        -0.0889   -0.2145   -6.1204 O.3       1 GTP         0.4672
      6 PB          1.3777   -0.9051   -6.3239 P.3       1 GTP        -1.1062
      7 O1B         1.2031   -2.4055   -6.3992 O.co2     1 GTP         0.3195
      8 O2B         2.1409   -0.1429   -7.3840 O.co2     1 GTP         0.3195
      9 O3A         2.0542   -0.5072   -4.8922 O.3       1 GTP         0.4672
     10 PA          2.3343    0.9640   -4.2391 P.3       1 GTP        -1.1062
     11 O1A         3.3728    1.6695   -5.0839 O.co2     1 GTP         0.3195
     12 O2A         1.0104    1.6224   -3.9169 O.co2     1 GTP         0.3195
     13 O5'         3.0213    0.5153   -2.8245 O.3       1 GTP         0.1618
     14 C5'         2.2816   -0.2918   -1.9206 C.3       1 GTP         0.1504
     15 C4'         2.7248    0.0226   -0.4980 C.3       1 GTP         0.1111
     16 O4'         2.4697    1.4219   -0.2462 O.3       1 GTP        -0.1436
     17 C3'         1.9404   -0.7419    0.5596 C.3       1 GTP         0.1111
     18 O3'         2.7418   -0.8086    1.7389 O.3       1 GTP        -0.2728
     19 C2'         0.7477    0.1630    0.7858 C.3       1 GTP         0.1111
     20 O2'         0.1373   -0.0577    2.0407 O.3       1 GTP        -0.2728
     21 C1'         1.3733    1.5427    0.6747 C.3       1 GTP         0.2693
     22 N9          0.4520    2.5240    0.1767 N.pl3     1 GTP        -0.3222
     23 C8          0.5671    3.2221   -0.9473 C.ar      1 GTP         0.1640
     24 N7         -0.4560    4.0508   -1.1290 N.pl3     1 GTP        -0.3688
     25 C5         -1.2671    3.8585   -0.0441 C.ar      1 GTP         0.0648
     26 C6         -2.5318    4.5014    0.2817 C.ar      1 GTP         0.3597
     27 O6         -3.0527    5.3493   -0.4293 O.2       1 GTP        -0.2755
     28 N1         -3.0357    4.0149    1.4868 N.pl3     1 GTP        -0.1604
     29 C2         -2.4069    3.0373    2.2768 C.ar      1 GTP         0.4468
     30 N2         -3.0679    2.6964    3.4278 N.pl3     1 GTP        -0.5618
     31 N3         -1.2653    2.4872    1.9379 N.2       1 GTP        -0.4283
     32 C4         -0.7342    2.9334    0.7643 C.ar      1 GTP         0.2226
     33 H5'         1.2163   -0.0770   -2.0471 H         1 GTP        -0.0393
     34 H5''        2.4655   -1.3443   -2.1563 H         1 GTP        -0.0393
     35 H4'         3.8044   -0.1397   -0.4040 H         1 GTP        -0.0393
     36 H3'         1.6764   -1.7639    0.2728 H         1 GTP        -0.0393
     37 HO3'        2.2232   -1.2979    2.3953 H         1 GTP         0.2010
     38 H2'        -0.0011    0.0027    0.0003 H         1 GTP        -0.0393
     39 HO2'       -0.1563   -0.9855    2.0596 H         1 GTP         0.2010
     40 H1'         1.7826    1.9024    1.6451 H         1 GTP        -0.0393
     41 H8          1.3888    3.1325   -1.6361 H         1 GTP         0.0000
     42 HN1        -3.9188    4.3932    1.8170 H         1 GTP         0.0865
     43 HN21       -2.6609    2.0087    4.0186 H         1 GTP         0.2048
     44 HN22       -3.9293    3.1496    3.6283 H         1 GTP         0.2048
     45 H45        -0.5938    4.6820   -1.9060 H         1 GTP         0.2048
@<TRIPOS>BOND
     1    1    2 2
     2    1    3 1
     3    1    4 1
     4    1    5 1
     5    5    6 1
     6    6    7 2
     7    6    8 1
     8    6    9 1
     9    9   10 1
    10   10   11 2
    11   10   12 1
    12   10   13 1
    13   13   14 1
    14   14   15 1
    15   14   33 1
    16   14   34 1
    17   15   16 1
    18   15   17 1
    19   15   35 1
    20   16   21 1
    21   17   18 1
    22   17   19 1
    23   17   36 1
    24   18   37 1
    25   19   20 1
    26   19   21 1
    27   19   38 1
    28   20   39 1
    29   21   22 1
    30   21   40 1
    31   22   23 ar
    32   22   32 ar
    33   23   24 ar
    34   23   41 1
    35   24   25 ar
    36   24   45 1
    37   25   26 ar
    38   25   32 ar
    39   26   27 2
    40   26   28 ar
    41   28   29 ar
    42   28   42 1
    43   29   30 1
    44   29   31 ar
    45   30   43 1
    46   30   44 1
    47   31   32 ar
@<TRIPOS>SUBSTRUCTURE
     1 GTP         1 GROUP 0 A     ****
@<TRIPOS>MOLECULE
[[[5-(2-amino-6-oxo-7,8-dihydro-1~{H}-purin-8-ylium-9-yl)-3,4-dihydroxy-tetrahydrofuran-2-yl]methoxy-oxido-phosphoryl]oxy-oxido-phosphoryl] phosphate
   45    47     1     0     0
SMALL
USER_CHARGES

@<TRIPOS>ATOM
      1 PG         -2.1146   -0.5277   -4.7024 P.3       1 GTP        -1.1921
      2 O1G        -1.2432    0.4288   -3.8952 O.co2     1 GTP         0.3195
      3 O2G        -1.9567   -0.3992   -6.2138 O.co2     1 GTP         0.3195
      4 O3G        -3.5622   -0.6070   -4.2288 O.co2     1 GTP         0.3195
      5 O3B        -1.5051   -2.0207   -4.3568 O.3       1 GTP         0.4672
      6 PB         -1.3677   -2.7934   -2.9239 P.3       1 GTP        -1.1062
      7 O1B        -2.3991   -2.2352   -1.9689 O.co2     1 GTP         0.3195
      8 O2B        -1.2423   -4.2798   -3.1731 O.co2     1 GTP         0.3195
      9 O3A         0.1165   -2.2716   -2.4876 O.3       1 GTP         0.4672
     10 PA          1.5549   -2.4565   -3.2403 P.3       1 GTP        -1.1062
     11 O1A         1.9145   -3.9262   -3.2244 O.co2     1 GTP         0.3195
     12 O2A         1.5418   -1.6690   -4.5324 O.co2     1 GTP         0.3195
     13 O5'         2.5245   -1.6648   -2.1878 O.3       1 GTP         0.1618
     14 C5'         2.2816   -0.2918   -1.9206 C.3       1 GTP         0.1504
     15 C4'         2.7248    0.0226   -0.4980 C.3       1 GTP         0.1111
     16 O4'         2.4697    1.4219   -0.2462 O.3       1 GTP        -0.1436
     17 C3'         1.9404   -0.7419    0.5596 C.3       1 GTP         0.1111
     18 O3'         2.7418   -0.8086    1.7389 O.3       1 GTP        -0.2728
     19 C2'         0.7477    0.1630    0.7858 C.3       1 GTP         0.1111
     20 O2'         0.1373   -0.0577    2.0407 O.3       1 GTP        -0.2728
     21 C1'         1.3733    1.5427    0.6747 C.3       1 GTP         0.2693
     22 N9          0.4520    2.5240    0.1767 N.pl3     1 GTP        -0.3222
     23 C8          0.5671    3.2221   -0.9473 C.ar      1 GTP         0.1640
     24 N7         -0.4560    4.0508   -1.1290 N.pl3     1 GTP        -0.3688
     25 C5         -1.2671    3.8585   -0.0441 C.ar      1 GTP         0.0648
     26 C6         -2.5318    4.5014    0.2817 C.ar      1 GTP         0.3597
     27 O6         -3.0527    5.3493   -0.4293 O.2       1 GTP        -0.2755
     28 N1         -3.0357    4.0149    1.4868 N.pl3     1 GTP        -0.1604
     29 C2         -2.4069    3.0373    2.2768 C.ar      1 GTP         0.4468
     30 N2         -3.0679    2.6964    3.4278 N.pl3     1 GTP        -0.5618
     31 N3         -1.2653    2.4872    1.9379 N.2       1 GTP        -0.4283
     32 C4         -0.7342    2.9334    0.7643 C.ar      1 GTP         0.2226
     33 H5'         2.8432    0.3119   -2.6398 H         1 GTP        -0.0393
     34 H5''        1.2128   -0.0927   -2.0428 H         1 GTP        -0.0393
     35 H4'         3.8044   -0.1397   -0.4040 H         1 GTP        -0.0393
     36 H3'         1.6764   -1.7639    0.2728 H         1 GTP        -0.0393
     37 HO3'        2.2232   -1.2979    2.3953 H         1 GTP         0.2010
     38 H2'        -0.0011    0.0027    0.0003 H         1 GTP        -0.0393
     39 HO2'       -0.1563   -0.9855    2.0596 H         1 GTP         0.2010
     40 H1'         1.7826    1.9024    1.6451 H         1 GTP        -0.0393
     41 H8          1.3888    3.1325   -1.6361 H         1 GTP         0.0000
     42 HN1        -3.9188    4.3932    1.8170 H         1 GTP         0.0865
     43 HN21       -2.6609    2.0087    4.0186 H         1 GTP         0.2048
     44 HN22       -3.9293    3.1496    3.6283 H         1 GTP         0.2048
     45 H45        -0.5938    4.6820   -1.9060 H         1 GTP         0.2048
@<TRIPOS>BOND
     1    1    2 2
     2    1    3 1
     3    1    4 1
     4    1    5 1
     5    5    6 1
     6    6    7 2
     7    6    8 1
     8    6    9 1
     9    9   10 1
    10   10   11 2
    11   10   12 1
    12   10   13 1
    13   13   14 1
    14   14   15 1
    15   14   33 1
    16   14   34 1
    17   15   16 1
    18   15   17 1
    19   15   35 1
    20   16   21 1
    21   17   18 1
    22   17   19 1
    23   17   36 1
    24   18   37 1
    25   19   20 1
    26   19   21 1
    27   19   38 1
    28   20   39 1
    29   21   22 1
    30   21   40 1
    31   22   23 ar
    32   22   32 ar
    33   23   24 ar
    34   23   41 1
    35   24   25 ar
    36   24   45 1
    37   25   26 ar
    38   25   32 ar
    39   26   27 2
    40   26   28 ar
    41   28   29 ar
    42   28   42 1
    43   29   30 1
    44   29   31 ar
    45   30   43 1
    46   30   44 1
    47   31   32 ar
@<TRIPOS>SUBSTRUCTURE
     1 GTP         1 GROUP 0 A     ****
@<TRIPOS>MOLECULE
[[[5-(2-amino-6-oxo-7,8-dihydro-1~{H}-purin-8-ylium-9-yl)-3,4-dihydroxy-tetrahydrofuran-2-yl]methoxy-oxido-phosphoryl]oxy-oxido-phosphoryl] phosphate
   45    47     1     0     0
SMALL
USER_CHARGES

@<TRIPOS>ATOM
      1 PG          8.0340   -3.6906   -4.1949 P.3       1 GTP        -1.1921
      2 O1G         9.1837   -3.1398   -3.3580 O.co2     1 GTP         0.3195
      3 O2G         7.7219   -5.1621   -3.9440 O.co2     1 GTP         0.3195
      4 O3G         8.0924   -3.3057   -5.6695 O.co2     1 GTP         0.3195
      5 O3B         6.7048   -2.8928   -3.6322 O.3       1 GTP         0.4672
      6 PB          6.3778   -1.2926   -3.5944 P.3       1 GTP        -1.1062
      7 O1B         7.3520   -0.6187   -2.6539 O.co2     1 GTP         0.3195
      8 O2B         6.1702   -0.7962   -5.0078 O.co2     1 GTP         0.3195
      9 O3A         4.9004   -1.3447   -2.9017 O.3       1 GTP         0.4672
     10 PA          3.5298   -2.0738   -3.4112 P.3       1 GTP        -1.1062
     11 O1A         3.0659   -1.3840   -4.6755 O.co2     1 GTP         0.3195
     12 O2A         3.7211   -3.5743   -3.3647 O.co2     1 GTP         0.3195
     13 O5'         2.5245   -1.6648   -2.1878 O.3       1 GTP         0.1618
     14 C5'         2.2816   -0.2918   -1.9206 C.3       1 GTP         0.1504
     15 C4'         2.7248    0.0226   -0.4980 C.3       1 GTP         0.1111
     16 O4'         2.4697    1.4219   -0.2462 O.3       1 GTP        -0.1436
     17 C3'         1.9404   -0.7419    0.5596 C.3       1 GTP         0.1111
     18 O3'         2.7418   -0.8086    1.7389 O.3       1 GTP        -0.2728
     19 C2'         0.7477    0.1630    0.7858 C.3       1 GTP         0.1111
     20 O2'         0.1373   -0.0577    2.0407 O.3       1 GTP        -0.2728
     21 C1'         1.3733    1.5427    0.6747 C.3       1 GTP         0.2693
     22 N9          0.4520    2.5240    0.1767 N.pl3     1 GTP        -0.3222
     23 C8         -0.2009    2.4849   -0.9792 C.ar      1 GTP         0.1640
     24 N7         -0.9840    3.5454   -1.1481 N.pl3     1 GTP        -0.3688
     25 C5         -0.8090    4.3005   -0.0206 C.ar      1 GTP         0.0648
     26 C6         -1.4206    5.5724    0.3362 C.ar      1 GTP         0.3597
     27 O6         -2.2199    6.1544   -0.3836 O.2       1 GTP        -0.2755
     28 N1         -0.9680    6.0043    1.5817 N.pl3     1 GTP        -0.1604
     29 C2         -0.0474    5.3055    2.3814 C.ar      1 GTP         0.4468
     30 N2          0.2680    5.9024    3.5740 N.pl3     1 GTP        -0.5618
     31 N3          0.4755    4.1601    2.0138 N.2       1 GTP        -0.4283
     32 C4          0.0611    3.6981    0.8001 C.ar      1 GTP         0.2226
     33 H5'         2.8432    0.3119   -2.6398 H         1 GTP        -0.0393
     34 H5''        1.2128   -0.0927   -2.0428 H         1 GTP        -0.0393
     35 H4'         3.8044   -0.1397   -0.4040 H         1 GTP        -0.0393
     36 H3'         1.6764   -1.7639    0.2728 H         1 GTP        -0.0393
     37 HO3'        2.2232   -1.2979    2.3953 H         1 GTP         0.2010
     38 H2'        -0.0011    0.0027    0.0003 H         1 GTP        -0.0393
     39 HO2'       -0.1563   -0.9855    2.0596 H         1 GTP         0.2010
     40 H1'         1.7826    1.9024    1.6451 H         1 GTP        -0.0393
     41 H8         -0.1126    1.6906   -1.6997 H         1 GTP         0.0000
     42 HN1        -1.3285    6.8855    1.9361 H         1 GTP         0.0865
     43 HN21        0.9153    5.4446    4.1732 H         1 GTP         0.2048
     44 HN22       -0.1624    6.7706    3.7948 H         1 GTP         0.2048
     45 H45        -1.5768    3.7405   -1.9429 H         1 GTP         0.2048
@<TRIPOS>BOND
     1    1    2 2
     2    1    3 1
     3    1    4 1
     4    1    5 1
     5    5    6 1
     6    6    7 2
     7    6    8 1
     8    6    9 1
     9    9   10 1
    10   10   11 2
    11   10   12 1
    12   10   13 1
    13   13   14 1
    14   14   15 1
    15   14   33 1
    16   14   34 1
    17   15   16 1
    18   15   17 1
    19   15   35 1
    20   16   21 1
    21   17   18 1
    22   17   19 1
    23   17   36 1
    24   18   37 1
    25   19   20 1
    26   19   21 1
    27   19   38 1
    28   20   39 1
    29   21   22 1
    30   21   40 1
    31   22   23 ar
    32   22   32 ar
    33   23   24 ar
    34   23   41 1
    35   24   25 ar
    36   24   45 1
    37   25   26 ar
    38   25   32 ar
    39   26   27 2
    40   26   28 ar
    41   28   29 ar
    42   28   42 1
    43   29   30 1
    44   29   31 ar
    45   30   43 1
    46   30   44 1
    47   31   32 ar
@<TRIPOS>SUBSTRUCTURE
     1 GTP         1 GROUP 0 A     ****
@<TRIPOS>MOLECULE
[[[5-(2-amino-6-oxo-7,8-dihydro-1~{H}-purin-8-ylium-9-yl)-3,4-dihydroxy-tetrahydrofuran-2-yl]methoxy-oxido-phosphoryl]oxy-oxido-phosphoryl] phosphate
   45    47     1     0     0
SMALL
USER_CHARGES

@<TRIPOS>ATOM
      1 PG          1.0522   -0.8271   -8.1558 P.3       1 GTP        -1.1921
      2 O1G         1.3051   -2.1675   -8.8378 O.co2     1 GTP         0.3195
      3 O2G        -0.4176   -0.5299   -7.8785 O.co2     1 GTP         0.3195
      4 O3G         1.8230    0.3401   -8.7636 O.co2     1 GTP         0.3195
      5 O3B         1.7198   -1.0023   -6.6580 O.3       1 GTP         0.4672
      6 PB          3.2607   -1.3318   -6.2266 P.3       1 GTP        -1.1062
      7 O1B         3.6109   -2.7256   -6.6980 O.co2     1 GTP         0.3195
      8 O2B         4.1329   -0.1417   -6.5585 O.co2     1 GTP         0.3195
      9 O3A         3.0822   -1.3351   -4.6038 O.3       1 GTP         0.4672
     10 PA          2.1375   -2.2725   -3.6560 P.3       1 GTP        -1.1062
     11 O1A         0.6906   -1.9446   -3.9539 O.co2     1 GTP         0.3195
     12 O2A         2.6428   -3.6980   -3.7095 O.co2     1 GTP         0.3195
     13 O5'         2.5245   -1.6648   -2.1878 O.3       1 GTP         0.1618
     14 C5'         2.2816   -0.2918   -1.9206 C.3       1 GTP         0.1504
     15 C4'         2.7248    0.0226   -0.4980 C.3       1 GTP         0.1111
     16 O4'         2.4697    1.4219   -0.2462 O.3       1 GTP        -0.1436
     17 C3'         1.9404   -0.7419    0.5596 C.3       1 GTP         0.1111
     18 O3'         2.7418   -0.8086    1.7389 O.3       1 GTP        -0.2728
     19 C2'         0.7477    0.1630    0.7858 C.3       1 GTP         0.1111
     20 O2'         0.1373   -0.0577    2.0407 O.3       1 GTP        -0.2728
     21 C1'         1.3733    1.5427    0.6747 C.3       1 GTP         0.2693
     22 N9          0.4520    2.5240    0.1767 N.pl3     1 GTP        -0.3222
     23 C8         -0.3350    3.3125    0.8998 C.ar      1 GTP         0.1640
     24 N7         -1.0716    4.1171    0.1405 N.pl3     1 GTP        -0.3688
     25 C5         -0.7219    3.8110   -1.1464 C.ar      1 GTP         0.0648
     26 C6         -1.2133    4.3827   -2.3917 C.ar      1 GTP         0.3597
     27 O6         -2.0567    5.2674   -2.4335 O.2       1 GTP        -0.2755
     28 N1         -0.5926    3.7846   -3.4870 N.pl3     1 GTP        -0.1604
     29 C2          0.3749    2.7691   -3.3983 C.ar      1 GTP         0.4468
     30 N2          0.8624    2.3146   -4.5959 N.pl3     1 GTP        -0.5618
     31 N3          0.7851    2.2875   -2.2493 N.2       1 GTP        -0.4283
     32 C4          0.2042    2.8436   -1.1486 C.ar      1 GTP         0.2226
     33 H5'         2.8432    0.3119   -2.6398 H         1 GTP        -0.0393
     34 H5''        1.2128   -0.0927   -2.0428 H         1 GTP        -0.0393
     35 H4'         3.8044   -0.1397   -0.4040 H         1 GTP        -0.0393
     36 H3'         1.6764   -1.7639    0.2728 H         1 GTP        -0.0393
     37 HO3'        2.2232   -1.2979    2.3953 H         1 GTP         0.2010
     38 H2'        -0.0011    0.0027    0.0003 H         1 GTP        -0.0393
     39 HO2'       -0.6141    0.5574    2.1082 H         1 GTP         0.2010
     40 H1'         1.7826    1.9024    1.6451 H         1 GTP        -0.0393
     41 H8         -0.3766    3.3075    1.9750 H         1 GTP         0.0000
     42 HN1        -0.8580    4.1049   -4.4138 H         1 GTP         0.0865
     43 HN21        1.5490    1.5963   -4.5827 H         1 GTP         0.2048
     44 HN22        0.5109    2.7205   -5.4321 H         1 GTP         0.2048
     45 H45        -1.7420    4.8034    0.4575 H         1 GTP         0.2048
@<TRIPOS>BOND
     1    1    2 2
     2    1    3 1
     3    1    4 1
     4    1    5 1
     5    5    6 1
     6    6    7 2
     7    6    8 1
     8    6    9 1
     9    9   10 1
    10   10   11 2
    11   10   12 1
    12   10   13 1
    13   13   14 1
    14   14   15 1
    15   14   33 1
    16   14   34 1
    17   15   16 1
    18   15   17 1
    19   15   35 1
    20   16   21 1
    21   17   18 1
    22   17   19 1
    23   17   36 1
    24   18   37 1
    25   19   20 1
    26   19   21 1
    27   19   38 1
    28   20   39 1
    29   21   22 1
    30   21   40 1
    31   22   23 ar
    32   22   32 ar
    33   23   24 ar
    34   23   41 1
    35   24   25 ar
    36   24   45 1
    37   25   26 ar
    38   25   32 ar
    39   26   27 2
    40   26   28 ar
    41   28   29 ar
    42   28   42 1
    43   29   30 1
    44   29   31 ar
    45   30   43 1
    46   30   44 1
    47   31   32 ar
@<TRIPOS>SUBSTRUCTURE
     1 GTP         1 GROUP 0 A     ****
@<TRIPOS>MOLECULE
[[[5-(2-amino-6-oxo-7,8-dihydro-1~{H}-purin-8-ylium-9-yl)-3,4-dihydroxy-tetrahydrofuran-2-yl]methoxy-oxido-phosphoryl]oxy-oxido-phosphoryl] phosphate
   45    47     1     0     0
SMALL
USER_CHARGES

@<TRIPOS>ATOM
      1 PG          1.5258   -4.1430   -7.7867 P.3       1 GTP        -1.1921
      2 O1G         2.1471   -3.3061   -8.9000 O.co2     1 GTP         0.3195
      3 O2G         2.2717   -5.4378   -7.4821 O.co2     1 GTP         0.3195
      4 O3G         0.0128   -4.3024   -7.8931 O.co2     1 GTP         0.3195
      5 O3B         1.7308   -3.2284   -6.4298 O.3       1 GTP         0.4672
      6 PB          1.1907   -1.7257   -6.0842 P.3       1 GTP        -1.1062
      7 O1B         1.8601   -0.7412   -7.0170 O.co2     1 GTP         0.3195
      8 O2B        -0.3124   -1.7652   -5.9214 O.co2     1 GTP         0.3195
      9 O3A         1.8135   -1.5634   -4.5838 O.3       1 GTP         0.4672
     10 PA          1.5549   -2.4565   -3.2403 P.3       1 GTP        -1.1062
     11 O1A         0.1153   -2.2683   -2.8139 O.co2     1 GTP         0.3195
     12 O2A         2.1346   -3.8391   -3.4462 O.co2     1 GTP         0.3195
     13 O5'         2.5245   -1.6648   -2.1878 O.3       1 GTP         0.1618
     14 C5'         2.2816   -0.2918   -1.9206 C.3       1 GTP         0.1504
     15 C4'         2.7248    0.0226   -0.4980 C.3       1 GTP         0.1111
     16 O4'         2.4697    1.4219   -0.2462 O.3       1 GTP        -0.1436
     17 C3'         1.9404   -0.7419    0.5596 C.3       1 GTP         0.1111
     18 O3'         2.7418   -0.8086    1.7389 O.3       1 GTP        -0.2728
     19 C2'         0.7477    0.1630    0.7858 C.3       1 GTP         0.1111
     20 O2'         0.1373   -0.0577    2.0407 O.3       1 GTP        -0.2728
     21 C1'         1.3733    1.5427    0.6747 C.3       1 GTP         0.2693
     22 N9          0.4520    2.5240    0.1767 N.pl3     1 GTP        -0.3222
     23 C8          0.5671    3.2221   -0.9473 C.ar      1 GTP         0.1640
     24 N7         -0.4560    4.0508   -1.1290 N.pl3     1 GTP        -0.3688
     25 C5         -1.2671    3.8585   -0.0441 C.ar      1 GTP         0.0648
     26 C6         -2.5318    4.5014    0.2817 C.ar      1 GTP         0.3597
     27 O6         -3.0527    5.3493   -0.4293 O.2       1 GTP        -0.2755
     28 N1         -3.0357    4.0149    1.4868 N.pl3     1 GTP        -0.1604
     29 C2         -2.4069    3.0373    2.2768 C.ar      1 GTP         0.4468
     30 N2         -3.0679    2.6964    3.4278 N.pl3     1 GTP        -0.5618
     31 N3         -1.2653    2.4872    1.9379 N.2       1 GTP        -0.4283
     32 C4         -0.7342    2.9334    0.7643 C.ar      1 GTP         0.2226
     33 H5'         2.8432    0.3119   -2.6398 H         1 GTP        -0.0393
     34 H5''        1.2128   -0.0927   -2.0428 H         1 GTP        -0.0393
     35 H4'         3.8044   -0.1397   -0.4040 H         1 GTP        -0.0393
     36 H3'         1.6764   -1.7639    0.2728 H         1 GTP        -0.0393
     37 HO3'        2.2232   -1.2979    2.3953 H         1 GTP         0.2010
     38 H2'        -0.0011    0.0027    0.0003 H         1 GTP        -0.0393
     39 HO2'       -0.1563   -0.9855    2.0596 H         1 GTP         0.2010
     40 H1'         1.7826    1.9024    1.6451 H         1 GTP        -0.0393
     41 H8          1.3888    3.1325   -1.6361 H         1 GTP         0.0000
     42 HN1        -3.9188    4.3932    1.8170 H         1 GTP         0.0865
     43 HN21       -2.6609    2.0087    4.0186 H         1 GTP         0.2048
     44 HN22       -3.9293    3.1496    3.6283 H         1 GTP         0.2048
     45 H45        -0.5938    4.6820   -1.9060 H         1 GTP         0.2048
@<TRIPOS>BOND
     1    1    2 2
     2    1    3 1
     3    1    4 1
     4    1    5 1
     5    5    6 1
     6    6    7 2
     7    6    8 1
     8    6    9 1
     9    9   10 1
    10   10   11 2
    11   10   12 1
    12   10   13 1
    13   13   14 1
    14   14   15 1
    15   14   33 1
    16   14   34 1
    17   15   16 1
    18   15   17 1
    19   15   35 1
    20   16   21 1
    21   17   18 1
    22   17   19 1
    23   17   36 1
    24   18   37 1
    25   19   20 1
    26   19   21 1
    27   19   38 1
    28   20   39 1
    29   21   22 1
    30   21   40 1
    31   22   23 ar
    32   22   32 ar
    33   23   24 ar
    34   23   41 1
    35   24   25 ar
    36   24   45 1
    37   25   26 ar
    38   25   32 ar
    39   26   27 2
    40   26   28 ar
    41   28   29 ar
    42   28   42 1
    43   29   30 1
    44   29   31 ar
    45   30   43 1
    46   30   44 1
    47   31   32 ar
@<TRIPOS>SUBSTRUCTURE
     1 GTP         1 GROUP 0 A     ****
@<TRIPOS>MOLECULE
[[[5-(2-amino-6-oxo-7,8-dihydro-1~{H}-purin-8-ylium-9-yl)-3,4-dihydroxy-tetrahydrofuran-2-yl]methoxy-oxido-phosphoryl]oxy-oxido-phosphoryl] phosphate
   45    47     1     0     0
SMALL
USER_CHARGES

@<TRIPOS>ATOM
      1 PG          6.5472   -4.9904   -0.6277 P.3       1 GTP        -1.1921
      2 O1G         7.9745   -4.8447   -1.1450 O.co2     1 GTP         0.3195
      3 O2G         6.3977   -4.7758    0.8747 O.co2     1 GTP         0.3195
      4 O3G         5.8095   -6.2138   -1.1618 O.co2     1 GTP         0.3195
      5 O3B         5.7405   -3.7193   -1.3009 O.3       1 GTP         0.4672
      6 PB          5.5083   -3.3357   -2.8719 P.3       1 GTP        -1.1062
      7 O1B         6.8449   -2.9956   -3.4928 O.co2     1 GTP         0.3195
      8 O2B         4.5808   -4.3531   -3.4980 O.co2     1 GTP         0.3195
      9 O3A         4.6341   -1.9702   -2.6804 O.3       1 GTP         0.4672
     10 PA          4.0014   -0.9657   -3.8031 P.3       1 GTP        -1.1062
     11 O1A         5.1417   -0.2980   -4.5405 O.co2     1 GTP         0.3195
     12 O2A         2.9038   -1.6896   -4.5521 O.co2     1 GTP         0.3195
     13 O5'         3.2903    0.1346   -2.8241 O.3       1 GTP         0.1618
     14 C5'         2.2816   -0.2918   -1.9206 C.3       1 GTP         0.1504
     15 C4'         2.7248    0.0226   -0.4980 C.3       1 GTP         0.1111
     16 O4'         2.4697    1.4219   -0.2462 O.3       1 GTP        -0.1436
     17 C3'         1.9404   -0.7419    0.5596 C.3       1 GTP         0.1111
     18 O3'         2.7418   -0.8086    1.7389 O.3       1 GTP        -0.2728
     19 C2'         0.7477    0.1630    0.7858 C.3       1 GTP         0.1111
     20 O2'         0.1373   -0.0577    2.0407 O.3       1 GTP        -0.2728
     21 C1'         1.3733    1.5427    0.6747 C.3       1 GTP         0.2693
     22 N9          0.4520    2.5240    0.1767 N.pl3     1 GTP        -0.3222
     23 C8          0.5671    3.2221   -0.9473 C.ar      1 GTP         0.1640
     24 N7         -0.4560    4.0508   -1.1290 N.pl3     1 GTP        -0.3688
     25 C5         -1.2671    3.8585   -0.0441 C.ar      1 GTP         0.0648
     26 C6         -2.5318    4.5014    0.2817 C.ar      1 GTP         0.3597
     27 O6         -3.0527    5.3493   -0.4293 O.2       1 GTP        -0.2755
     28 N1         -3.0357    4.0149    1.4868 N.pl3     1 GTP        -0.1604
     29 C2         -2.4069    3.0373    2.2768 C.ar      1 GTP         0.4468
     30 N2         -3.0679    2.6964    3.4278 N.pl3     1 GTP        -0.5618
     31 N3         -1.2653    2.4872    1.9379 N.2       1 GTP        -0.4283
     32 C4         -0.7342    2.9334    0.7643 C.ar      1 GTP         0.2226
     33 H5'         1.3514    0.2330   -2.1577 H         1 GTP        -0.0393
     34 H5''        2.1280   -1.3678   -2.0460 H         1 GTP        -0.0393
     35 H4'         3.8044   -0.1397   -0.4040 H         1 GTP        -0.0393
     36 H3'         1.6764   -1.7639    0.2728 H         1 GTP        -0.0393
     37 HO3'        2.2232   -1.2979    2.3953 H         1 GTP         0.2010
     38 H2'        -0.0011    0.0027    0.0003 H         1 GTP        -0.0393
     39 HO2'       -0.1563   -0.9855    2.0596 H         1 GTP         0.2010
     40 H1'         1.7826    1.9024    1.6451 H         1 GTP        -0.0393
     41 H8          1.3888    3.1325   -1.6361 H         1 GTP         0.0000
     42 HN1        -3.9188    4.3932    1.8170 H         1 GTP         0.0865
     43 HN21       -2.6609    2.0087    4.0186 H         1 GTP         0.2048
     44 HN22       -3.9293    3.1496    3.6283 H         1 GTP         0.2048
     45 H45        -0.5938    4.6820   -1.9060 H         1 GTP         0.2048
@<TRIPOS>BOND
     1    1    2 2
     2    1    3 1
     3    1    4 1
     4    1    5 1
     5    5    6 1
     6    6    7 2
     7    6    8 1
     8    6    9 1
     9    9   10 1
    10   10   11 2
    11   10   12 1
    12   10   13 1
    13   13   14 1
    14   14   15 1
    15   14   33 1
    16   14   34 1
    17   15   16 1
    18   15   17 1
    19   15   35 1
    20   16   21 1
    21   17   18 1
    22   17   19 1
    23   17   36 1
    24   18   37 1
    25   19   20 1
    26   19   21 1
    27   19   38 1
    28   20   39 1
    29   21   22 1
    30   21   40 1
    31   22   23 ar
    32   22   32 ar
    33   23   24 ar
    34   23   41 1
    35   24   25 ar
    36   24   45 1
    37   25   26 ar
    38   25   32 ar
    39   26   27 2
    40   26   28 ar
    41   28   29 ar
    42   28   42 1
    43   29   30 1
    44   29   31 ar
    45   30   43 1
    46   30   44 1
    47   31   32 ar
@<TRIPOS>SUBSTRUCTURE
     1 GTP         1 GROUP 0 A     ****
@<TRIPOS>MOLECULE
[[[5-(2-amino-6-oxo-7,8-dihydro-1~{H}-purin-8-ylium-9-yl)-3,4-dihydroxy-tetrahydrofuran-2-yl]methoxy-oxido-phosphoryl]oxy-oxido-phosphoryl] phosphate
   45    47     1     0     0
SMALL
USER_CHARGES

@<TRIPOS>ATOM
      1 PG         -0.7388   -9.9164    5.8963 P.3       1 GTP        -1.1921
      2 O1G        -2.0585   -9.8683    6.6591 O.co2     1 GTP         0.3195
      3 O2G        -0.6677  -11.0046    4.8304 O.co2     1 GTP         0.3195
      4 O3G         0.4998   -9.8253    6.7816 O.co2     1 GTP         0.3195
      5 O3B        -0.7147   -8.5075    5.0394 O.3       1 GTP         0.4672
      6 PB         -0.7641   -6.9599    5.5606 P.3       1 GTP        -1.1062
      7 O1B        -2.1083   -6.7062    6.2059 O.co2     1 GTP         0.3195
      8 O2B         0.5298   -6.6360    6.2735 O.co2     1 GTP         0.3195
      9 O3A        -0.7002   -6.1970    4.1186 O.3       1 GTP         0.4672
     10 PA         -1.7206   -6.2776    2.8449 P.3       1 GTP        -1.1062
     11 O1A        -1.6495   -7.6739    2.2663 O.co2     1 GTP         0.3195
     12 O2A        -3.0460   -5.6590    3.2330 O.co2     1 GTP         0.3195
     13 O5'        -0.9724   -5.2440    1.8220 O.3       1 GTP         0.1618
     14 C5'        -0.7840   -3.8935    2.2172 C.3       1 GTP         0.1504
     15 C4'        -0.0724   -3.1466    1.1027 C.3       1 GTP         0.1111
     16 O4'        -0.8674   -3.1929   -0.0945 O.3       1 GTP        -0.1436
     17 C3'         0.1338   -1.6715    1.4027 C.3       1 GTP         0.1111
     18 O3'         1.2893   -1.4445    2.1808 O.3       1 GTP        -0.2728
     19 C2'         0.2158   -1.0724    0.0128 C.3       1 GTP         0.1111
     20 O2'         1.5141   -1.2448   -0.5513 O.3       1 GTP        -0.2728
     21 C1'        -0.7897   -1.9176   -0.7583 C.3       1 GTP         0.2693
     22 N9         -2.1040   -1.3333   -0.7704 N.pl3     1 GTP        -0.3222
     23 C8         -3.0597   -1.5109    0.1345 C.ar      1 GTP         0.1640
     24 N7         -4.1618   -0.8291   -0.1607 N.pl3     1 GTP        -0.3688
     25 C5         -3.8764   -0.1805   -1.3310 C.ar      1 GTP         0.0648
     26 C6         -4.7187    0.7111   -2.1152 C.ar      1 GTP         0.3597
     27 O6         -5.8617    1.0043   -1.7939 O.2       1 GTP        -0.2755
     28 N1         -4.0405    1.1608   -3.2468 N.pl3     1 GTP        -0.1604
     29 C2         -2.7239    0.8013   -3.5822 C.ar      1 GTP         0.4468
     30 N2         -2.2399    1.3534   -4.7394 N.pl3     1 GTP        -0.5618
     31 N3         -2.0053   -0.0071   -2.8402 N.2       1 GTP        -0.4283
     32 C4         -2.6290   -0.4727   -1.7210 C.ar      1 GTP         0.2226
     33 H5'        -1.7618   -3.4448    2.4164 H         1 GTP        -0.0393
     34 H5''       -0.1874   -3.8744    3.1341 H         1 GTP        -0.0393
     35 H4'         0.8874   -3.6466    0.8805 H         1 GTP        -0.0393
     36 H3'        -0.7376   -1.2333    1.9867 H         1 GTP        -0.0393
     37 HO3'        1.3408   -0.4870    2.3219 H         1 GTP         0.2010
     38 H2'        -0.0384   -0.0310    0.0096 H         1 GTP        -0.0393
     39 HO2'        2.1463   -0.7958    0.0370 H         1 GTP         0.2010
     40 H1'        -0.4769   -2.1002   -1.8093 H         1 GTP        -0.0393
     41 H8         -2.9610   -2.1316    1.0079 H         1 GTP         0.0000
     42 HN1        -4.5320    1.7923   -3.8726 H         1 GTP         0.0865
     43 HN21       -1.3128    1.1277   -5.0171 H         1 GTP         0.2048
     44 HN22       -2.8342    1.9586   -5.2572 H         1 GTP         0.2048
     45 H45        -5.0195   -0.8034    0.3729 H         1 GTP         0.2048
@<TRIPOS>BOND
     1    1    2 2
     2    1    3 1
     3    1    4 1
     4    1    5 1
     5    5    6 1
     6    6    7 2
     7    6    8 1
     8    6    9 1
     9    9   10 1
    10   10   11 2
    11   10   12 1
    12   10   13 1
    13   13   14 1
    14   14   15 1
    15   14   33 1
    16   14   34 1
    17   15   16 1
    18   15   17 1
    19   15   35 1
    20   16   21 1
    21   17   18 1
    22   17   19 1
    23   17   36 1
    24   18   37 1
    25   19   20 1
    26   19   21 1
    27   19   38 1
    28   20   39 1
    29   21   22 1
    30   21   40 1
    31   22   23 ar
    32   22   32 ar
    33   23   24 ar
    34   23   41 1
    35   24   25 ar
    36   24   45 1
    37   25   26 ar
    38   25   32 ar
    39   26   27 2
    40   26   28 ar
    41   28   29 ar
    42   28   42 1
    43   29   30 1
    44   29   31 ar
    45   30   43 1
    46   30   44 1
    47   31   32 ar
@<TRIPOS>SUBSTRUCTURE
     1 GTP         1 GROUP 0 A     ****
@<TRIPOS>MOLECULE
[[[5-(2-amino-6-oxo-7,8-dihydro-1~{H}-purin-8-ylium-9-yl)-3,4-dihydroxy-tetrahydrofuran-2-yl]methoxy-oxido-phosphoryl]oxy-oxido-phosphoryl] phosphate
   45    47     1     0     0
SMALL
USER_CHARGES

@<TRIPOS>ATOM
      1 PG         -1.3827    1.1921   -5.3106 P.3       1 GTP        -1.1921
      2 O1G        -2.2749    2.4288   -5.2934 O.co2     1 GTP         0.3195
      3 O2G        -1.7006    0.2025   -6.4265 O.co2     1 GTP         0.3195
      4 O3G        -1.1778    0.5487   -3.9430 O.co2     1 GTP         0.3195
      5 O3B         0.1103    1.7751   -5.6990 O.3       1 GTP         0.4672
      6 PB          1.0433    2.8718   -4.9272 P.3       1 GTP        -1.1062
      7 O1B         1.9881    3.4981   -5.9285 O.co2     1 GTP         0.3195
      8 O2B         0.1710    3.7172   -4.0262 O.co2     1 GTP         0.3195
      9 O3A         1.8764    1.8638   -3.9499 O.3       1 GTP         0.4672
     10 PA          2.8629    0.6171   -4.3271 P.3       1 GTP        -1.1062
     11 O1A         2.0304   -0.4703   -4.9706 O.co2     1 GTP         0.3195
     12 O2A         4.1038    1.1560   -5.0054 O.co2     1 GTP         0.3195
     13 O5'         3.2903    0.1346   -2.8241 O.3       1 GTP         0.1618
     14 C5'         2.2816   -0.2918   -1.9206 C.3       1 GTP         0.1504
     15 C4'         2.7248    0.0226   -0.4980 C.3       1 GTP         0.1111
     16 O4'         2.4697    1.4219   -0.2462 O.3       1 GTP        -0.1436
     17 C3'         1.9404   -0.7419    0.5596 C.3       1 GTP         0.1111
     18 O3'         2.7418   -0.8086    1.7389 O.3       1 GTP        -0.2728
     19 C2'         0.7477    0.1630    0.7858 C.3       1 GTP         0.1111
     20 O2'         0.1373   -0.0577    2.0407 O.3       1 GTP        -0.2728
     21 C1'         1.3733    1.5427    0.6747 C.3       1 GTP         0.2693
     22 N9          0.4520    2.5240    0.1767 N.pl3     1 GTP        -0.3222
     23 C8          0.5671    3.2221   -0.9473 C.ar      1 GTP         0.1640
     24 N7         -0.4560    4.0508   -1.1290 N.pl3     1 GTP        -0.3688
     25 C5         -1.2671    3.8585   -0.0441 C.ar      1 GTP         0.0648
     26 C6         -2.5318    4.5014    0.2817 C.ar      1 GTP         0.3597
     27 O6         -3.0527    5.3493   -0.4293 O.2       1 GTP        -0.2755
     28 N1         -3.0357    4.0149    1.4868 N.pl3     1 GTP        -0.1604
     29 C2         -2.4069    3.0373    2.2768 C.ar      1 GTP         0.4468
     30 N2         -3.0679    2.6964    3.4278 N.pl3     1 GTP        -0.5618
     31 N3         -1.2653    2.4872    1.9379 N.2       1 GTP        -0.4283
     32 C4         -0.7342    2.9334    0.7643 C.ar      1 GTP         0.2226
     33 H5'         1.3514    0.2330   -2.1577 H         1 GTP        -0.0393
     34 H5''        2.1280   -1.3678   -2.0460 H         1 GTP        -0.0393
     35 H4'         3.8044   -0.1397   -0.4040 H         1 GTP        -0.0393
     36 H3'         1.6764   -1.7639    0.2728 H         1 GTP        -0.0393
     37 HO3'        3.5554   -1.2733    1.4914 H         1 GTP         0.2010
     38 H2'        -0.0011    0.0027    0.0003 H         1 GTP        -0.0393
     39 HO2'       -0.1563   -0.9855    2.0596 H         1 GTP         0.2010
     40 H1'         1.7826    1.9024    1.6451 H         1 GTP        -0.0393
     41 H8          1.3888    3.1325   -1.6361 H         1 GTP         0.0000
     42 HN1        -3.9188    4.3932    1.8170 H         1 GTP         0.0865
     43 HN21       -2.6609    2.0087    4.0186 H         1 GTP         0.2048
     44 HN22       -3.9293    3.1496    3.6283 H         1 GTP         0.2048
     45 H45        -0.5938    4.6820   -1.9060 H         1 GTP         0.2048
@<TRIPOS>BOND
     1    1    2 2
     2    1    3 1
     3    1    4 1
     4    1    5 1
     5    5    6 1
     6    6    7 2
     7    6    8 1
     8    6    9 1
     9    9   10 1
    10   10   11 2
    11   10   12 1
    12   10   13 1
    13   13   14 1
    14   14   15 1
    15   14   33 1
    16   14   34 1
    17   15   16 1
    18   15   17 1
    19   15   35 1
    20   16   21 1
    21   17   18 1
    22   17   19 1
    23   17   36 1
    24   18   37 1
    25   19   20 1
    26   19   21 1
    27   19   38 1
    28   20   39 1
    29   21   22 1
    30   21   40 1
    31   22   23 ar
    32   22   32 ar
    33   23   24 ar
    34   23   41 1
    35   24   25 ar
    36   24   45 1
    37   25   26 ar
    38   25   32 ar
    39   26   27 2
    40   26   28 ar
    41   28   29 ar
    42   28   42 1
    43   29   30 1
    44   29   31 ar
    45   30   43 1
    46   30   44 1
    47   31   32 ar
@<TRIPOS>SUBSTRUCTURE
     1 GTP         1 GROUP 0 A     ****
@<TRIPOS>MOLECULE
[[[5-(2-amino-6-oxo-7,8-dihydro-1~{H}-purin-8-ylium-9-yl)-3,4-dihydroxy-tetrahydrofuran-2-yl]methoxy-oxido-phosphoryl]oxy-oxido-phosphoryl] phosphate
   45    47     1     0     0
SMALL
USER_CHARGES

@<TRIPOS>ATOM
      1 PG         -3.0008   -6.6880    7.5041 P.3       1 GTP        -1.1921
      2 O1G        -2.0367   -6.2211    8.5897 O.co2     1 GTP         0.3195
      3 O2G        -4.2746   -5.8567    7.3941 O.co2     1 GTP         0.3195
      4 O3G        -3.2327   -8.1951    7.4786 O.co2     1 GTP         0.3195
      5 O3B        -2.1989   -6.3892    6.0943 O.3       1 GTP         0.4672
      6 PB         -0.7641   -6.9599    5.5606 P.3       1 GTP        -1.1062
      7 O1B         0.3336   -6.4338    6.4582 O.co2     1 GTP         0.3195
      8 O2B        -0.9000   -8.4355    5.2581 O.co2     1 GTP         0.3195
      9 O3A        -0.7002   -6.1970    4.1186 O.3       1 GTP         0.4672
     10 PA         -1.7206   -6.2776    2.8449 P.3       1 GTP        -1.1062
     11 O1A        -1.6495   -7.6739    2.2663 O.co2     1 GTP         0.3195
     12 O2A        -3.0460   -5.6590    3.2330 O.co2     1 GTP         0.3195
     13 O5'        -0.9724   -5.2440    1.8220 O.3       1 GTP         0.1618
     14 C5'        -0.7840   -3.8935    2.2172 C.3       1 GTP         0.1504
     15 C4'        -0.0724   -3.1466    1.1027 C.3       1 GTP         0.1111
     16 O4'        -0.8674   -3.1929   -0.0945 O.3       1 GTP        -0.1436
     17 C3'         0.1338   -1.6715    1.4027 C.3       1 GTP         0.1111
     18 O3'         1.2893   -1.4445    2.1808 O.3       1 GTP        -0.2728
     19 C2'         0.2158   -1.0724    0.0128 C.3       1 GTP         0.1111
     20 O2'         1.5141   -1.2448   -0.5513 O.3       1 GTP        -0.2728
     21 C1'        -0.7897   -1.9176   -0.7583 C.3       1 GTP         0.2693
     22 N9         -2.1040   -1.3333   -0.7704 N.pl3     1 GTP        -0.3222
     23 C8         -3.0597   -1.5109    0.1345 C.ar      1 GTP         0.1640
     24 N7         -4.1618   -0.8291   -0.1607 N.pl3     1 GTP        -0.3688
     25 C5         -3.8764   -0.1805   -1.3310 C.ar      1 GTP         0.0648
     26 C6         -4.7187    0.7111   -2.1152 C.ar      1 GTP         0.3597
     27 O6         -5.8617    1.0043   -1.7939 O.2       1 GTP        -0.2755
     28 N1         -4.0405    1.1608   -3.2468 N.pl3     1 GTP        -0.1604
     29 C2         -2.7239    0.8013   -3.5822 C.ar      1 GTP         0.4468
     30 N2         -2.2399    1.3534   -4.7394 N.pl3     1 GTP        -0.5618
     31 N3         -2.0053   -0.0071   -2.8402 N.2       1 GTP        -0.4283
     32 C4         -2.6290   -0.4727   -1.7210 C.ar      1 GTP         0.2226
     33 H5'        -1.7618   -3.4448    2.4164 H         1 GTP        -0.0393
     34 H5''       -0.1874   -3.8744    3.1341 H         1 GTP        -0.0393
     35 H4'         0.8874   -3.6466    0.8805 H         1 GTP        -0.0393
     36 H3'        -0.7376   -1.2333    1.9867 H         1 GTP        -0.0393
     37 HO3'        1.3408   -0.4870    2.3219 H         1 GTP         0.2010
     38 H2'        -0.0384   -0.0310    0.0096 H         1 GTP        -0.0393
     39 HO2'        2.1463   -0.7958    0.0370 H         1 GTP         0.2010
     40 H1'        -0.4769   -2.1002   -1.8093 H         1 GTP        -0.0393
     41 H8         -2.9610   -2.1316    1.0079 H         1 GTP         0.0000
     42 HN1        -4.5320    1.7923   -3.8726 H         1 GTP         0.0865
     43 HN21       -1.3128    1.1277   -5.0171 H         1 GTP         0.2048
     44 HN22       -2.8342    1.9586   -5.2572 H         1 GTP         0.2048
     45 H45        -5.0195   -0.8034    0.3729 H         1 GTP         0.2048
@<TRIPOS>BOND
     1    1    2 2
     2    1    3 1
     3    1    4 1
     4    1    5 1
     5    5    6 1
     6    6    7 2
     7    6    8 1
     8    6    9 1
     9    9   10 1
    10   10   11 2
    11   10   12 1
    12   10   13 1
    13   13   14 1
    14   14   15 1
    15   14   33 1
    16   14   34 1
    17   15   16 1
    18   15   17 1
    19   15   35 1
    20   16   21 1
    21   17   18 1
    22   17   19 1
    23   17   36 1
    24   18   37 1
    25   19   20 1
    26   19   21 1
    27   19   38 1
    28   20   39 1
    29   21   22 1
    30   21   40 1
    31   22   23 ar
    32   22   32 ar
    33   23   24 ar
    34   23   41 1
    35   24   25 ar
    36   24   45 1
    37   25   26 ar
    38   25   32 ar
    39   26   27 2
    40   26   28 ar
    41   28   29 ar
    42   28   42 1
    43   29   30 1
    44   29   31 ar
    45   30   43 1
    46   30   44 1
    47   31   32 ar
@<TRIPOS>SUBSTRUCTURE
     1 GTP         1 GROUP 0 A     ****
@<TRIPOS>MOLECULE
[[[5-(2-amino-6-oxo-7,8-dihydro-1~{H}-purin-8-ylium-9-yl)-3,4-dihydroxy-tetrahydrofuran-2-yl]methoxy-oxido-phosphoryl]oxy-oxido-phosphoryl] phosphate
   45    47     1     0     0
SMALL
USER_CHARGES

@<TRIPOS>ATOM
      1 PG         -2.2720   -4.0114   -4.6150 P.3       1 GTP        -1.1921
      2 O1G        -3.2569   -4.3775   -3.5097 O.co2     1 GTP         0.3195
      3 O2G        -2.6644   -2.7801   -5.4247 O.co2     1 GTP         0.3195
      4 O3G        -1.8099   -5.1946   -5.4592 O.co2     1 GTP         0.3195
      5 O3B        -0.9106   -3.5484   -3.8076 O.3       1 GTP         0.4672
      6 PB          0.0269   -4.3847   -2.7631 P.3       1 GTP        -1.1062
      7 O1B        -0.7778   -4.6828   -1.5177 O.co2     1 GTP         0.3195
      8 O2B         0.7540   -5.4766   -3.5158 O.co2     1 GTP         0.3195
      9 O3A         1.1373   -3.2347   -2.4311 O.3       1 GTP         0.4672
     10 PA          2.1639   -2.4504   -3.4314 P.3       1 GTP        -1.1062
     11 O1A         3.1601   -3.4529   -3.9719 O.co2     1 GTP         0.3195
     12 O2A         1.3665   -1.5618   -4.3612 O.co2     1 GTP         0.3195
     13 O5'         2.9216   -1.4836   -2.3516 O.3       1 GTP         0.1618
     14 C5'         2.2816   -0.2918   -1.9206 C.3       1 GTP         0.1504
     15 C4'         2.7248    0.0226   -0.4980 C.3       1 GTP         0.1111
     16 O4'         2.4697    1.4219   -0.2462 O.3       1 GTP        -0.1436
     17 C3'         1.9404   -0.7419    0.5596 C.3       1 GTP         0.1111
     18 O3'         2.7418   -0.8086    1.7389 O.3       1 GTP        -0.2728
     19 C2'         0.7477    0.1630    0.7858 C.3       1 GTP         0.1111
     20 O2'         0.1373   -0.0577    2.0407 O.3       1 GTP        -0.2728
     21 C1'         1.3733    1.5427    0.6747 C.3       1 GTP         0.2693
     22 N9          0.4520    2.5240    0.1767 N.pl3     1 GTP        -0.3222
     23 C8         -0.2009    2.4849   -0.9792 C.ar      1 GTP         0.1640
     24 N7         -0.9840    3.5454   -1.1481 N.pl3     1 GTP        -0.3688
     25 C5         -0.8090    4.3005   -0.0206 C.ar      1 GTP         0.0648
     26 C6         -1.4206    5.5724    0.3362 C.ar      1 GTP         0.3597
     27 O6         -2.2199    6.1544   -0.3836 O.2       1 GTP        -0.2755
     28 N1         -0.9680    6.0043    1.5817 N.pl3     1 GTP        -0.1604
     29 C2         -0.0474    5.3055    2.3814 C.ar      1 GTP         0.4468
     30 N2          0.2680    5.9024    3.5740 N.pl3     1 GTP        -0.5618
     31 N3          0.4755    4.1601    2.0138 N.2       1 GTP        -0.4283
     32 C4          0.0611    3.6981    0.8001 C.ar      1 GTP         0.2226
     33 H5'         2.5589    0.5217   -2.5976 H         1 GTP        -0.0393
     34 H5''        1.1982   -0.4388   -1.9617 H         1 GTP        -0.0393
     35 H4'         3.8044   -0.1397   -0.4040 H         1 GTP        -0.0393
     36 H3'         1.6764   -1.7639    0.2728 H         1 GTP        -0.0393
     37 HO3'        2.2232   -1.2979    2.3953 H         1 GTP         0.2010
     38 H2'        -0.0011    0.0027    0.0003 H         1 GTP        -0.0393
     39 HO2'       -0.6141    0.5574    2.1082 H         1 GTP         0.2010
     40 H1'         1.7826    1.9024    1.6451 H         1 GTP        -0.0393
     41 H8         -0.1126    1.6906   -1.6997 H         1 GTP         0.0000
     42 HN1        -1.3285    6.8855    1.9361 H         1 GTP         0.0865
     43 HN21        0.9153    5.4446    4.1732 H         1 GTP         0.2048
     44 HN22       -0.1624    6.7706    3.7948 H         1 GTP         0.2048
     45 H45        -1.5768    3.7405   -1.9429 H         1 GTP         0.2048
@<TRIPOS>BOND
     1    1    2 2
     2    1    3 1
     3    1    4 1
     4    1    5 1
     5    5    6 1
     6    6    7 2
     7    6    8 1
     8    6    9 1
     9    9   10 1
    10   10   11 2
    11   10   12 1
    12   10   13 1
    13   13   14 1
    14   14   15 1
    15   14   33 1
    16   14   34 1
    17   15   16 1
    18   15   17 1
    19   15   35 1
    20   16   21 1
    21   17   18 1
    22   17   19 1
    23   17   36 1
    24   18   37 1
    25   19   20 1
    26   19   21 1
    27   19   38 1
    28   20   39 1
    29   21   22 1
    30   21   40 1
    31   22   23 ar
    32   22   32 ar
    33   23   24 ar
    34   23   41 1
    35   24   25 ar
    36   24   45 1
    37   25   26 ar
    38   25   32 ar
    39   26   27 2
    40   26   28 ar
    41   28   29 ar
    42   28   42 1
    43   29   30 1
    44   29   31 ar
    45   30   43 1
    46   30   44 1
    47   31   32 ar
@<TRIPOS>SUBSTRUCTURE
     1 GTP         1 GROUP 0 A     ****
@<TRIPOS>MOLECULE
[[[5-(2-amino-6-oxo-7,8-dihydro-1~{H}-purin-8-ylium-9-yl)-3,4-dihydroxy-tetrahydrofuran-2-yl]methoxy-oxido-phosphoryl]oxy-oxido-phosphoryl] phosphate
   45    47     1     0     0
SMALL
USER_CHARGES

@<TRIPOS>ATOM
      1 PG         -1.9024   -0.9180    8.5187 P.3       1 GTP        -1.1921
      2 O1G        -2.9347   -1.8391    9.1604 O.co2     1 GTP         0.3195
      3 O2G        -0.5339   -0.9419    9.1911 O.co2     1 GTP         0.3195
      4 O3G        -2.4211    0.4814    8.2045 O.co2     1 GTP         0.3195
      5 O3B        -1.6354   -1.5816    7.0327 O.3       1 GTP         0.4672
      6 PB         -2.6750   -1.8565    5.8028 P.3       1 GTP        -1.1062
      7 O1B        -3.6822   -2.8968    6.2398 O.co2     1 GTP         0.3195
      8 O2B        -3.1092   -0.5319    5.2162 O.co2     1 GTP         0.3195
      9 O3A        -1.6392   -2.5195    4.7291 O.3       1 GTP         0.4672
     10 PA         -0.7207   -3.8652    4.8536 P.3       1 GTP        -1.1062
     11 O1A         0.3213   -3.6323    5.9257 O.co2     1 GTP         0.3195
     12 O2A        -1.6240   -5.0787    4.8921 O.co2     1 GTP         0.3195
     13 O5'         0.0118   -3.8395    3.3916 O.3       1 GTP         0.1618
     14 C5'        -0.7840   -3.8935    2.2172 C.3       1 GTP         0.1504
     15 C4'        -0.0724   -3.1466    1.1027 C.3       1 GTP         0.1111
     16 O4'        -0.8674   -3.1929   -0.0945 O.3       1 GTP        -0.1436
     17 C3'         0.1338   -1.6715    1.4027 C.3       1 GTP         0.1111
     18 O3'         1.2893   -1.4445    2.1808 O.3       1 GTP        -0.2728
     19 C2'         0.2158   -1.0724    0.0128 C.3       1 GTP         0.1111
     20 O2'         1.5141   -1.2448   -0.5513 O.3       1 GTP        -0.2728
     21 C1'        -0.7897   -1.9176   -0.7583 C.3       1 GTP         0.2693
     22 N9         -2.1040   -1.3333   -0.7704 N.pl3     1 GTP        -0.3222
     23 C8         -3.0597   -1.5109    0.1345 C.ar      1 GTP         0.1640
     24 N7         -4.1618   -0.8291   -0.1607 N.pl3     1 GTP        -0.3688
     25 C5         -3.8764   -0.1805   -1.3310 C.ar      1 GTP         0.0648
     26 C6         -4.7187    0.7111   -2.1152 C.ar      1 GTP         0.3597
     27 O6         -5.8617    1.0043   -1.7939 O.2       1 GTP        -0.2755
     28 N1         -4.0405    1.1608   -3.2468 N.pl3     1 GTP        -0.1604
     29 C2         -2.7239    0.8013   -3.5822 C.ar      1 GTP         0.4468
     30 N2         -2.2399    1.3534   -4.7394 N.pl3     1 GTP        -0.5618
     31 N3         -2.0053   -0.0071   -2.8402 N.2       1 GTP        -0.4283
     32 C4         -2.6290   -0.4727   -1.7210 C.ar      1 GTP         0.2226
     33 H5'        -0.9348   -4.9415    1.9415 H         1 GTP        -0.0393
     34 H5''       -1.7548   -3.4350    2.4278 H         1 GTP        -0.0393
     35 H4'         0.8874   -3.6466    0.8805 H         1 GTP        -0.0393
     36 H3'        -0.7376   -1.2333    1.9867 H         1 GTP        -0.0393
     37 HO3'        1.1626   -1.9325    3.0084 H         1 GTP         0.2010
     38 H2'        -0.0384   -0.0310    0.0096 H         1 GTP        -0.0393
     39 HO2'        2.1463   -0.7958    0.0370 H         1 GTP         0.2010
     40 H1'        -0.4769   -2.1002   -1.8093 H         1 GTP        -0.0393
     41 H8         -2.9610   -2.1316    1.0079 H         1 GTP         0.0000
     42 HN1        -4.5320    1.7923   -3.8726 H         1 GTP         0.0865
     43 HN21       -1.3128    1.1277   -5.0171 H         1 GTP         0.2048
     44 HN22       -2.8342    1.9586   -5.2572 H         1 GTP         0.2048
     45 H45        -5.0195   -0.8034    0.3729 H         1 GTP         0.2048
@<TRIPOS>BOND
     1    1    2 2
     2    1    3 1
     3    1    4 1
     4    1    5 1
     5    5    6 1
     6    6    7 2
     7    6    8 1
     8    6    9 1
     9    9   10 1
    10   10   11 2
    11   10   12 1
    12   10   13 1
    13   13   14 1
    14   14   15 1
    15   14   33 1
    16   14   34 1
    17   15   16 1
    18   15   17 1
    19   15   35 1
    20   16   21 1
    21   17   18 1
    22   17   19 1
    23   17   36 1
    24   18   37 1
    25   19   20 1
    26   19   21 1
    27   19   38 1
    28   20   39 1
    29   21   22 1
    30   21   40 1
    31   22   23 ar
    32   22   32 ar
    33   23   24 ar
    34   23   41 1
    35   24   25 ar
    36   24   45 1
    37   25   26 ar
    38   25   32 ar
    39   26   27 2
    40   26   28 ar
    41   28   29 ar
    42   28   42 1
    43   29   30 1
    44   29   31 ar
    45   30   43 1
    46   30   44 1
    47   31   32 ar
@<TRIPOS>SUBSTRUCTURE
     1 GTP         1 GROUP 0 A     ****
@<TRIPOS>MOLECULE
[[[5-(2-amino-6-oxo-7,8-dihydro-1~{H}-purin-8-ylium-9-yl)-3,4-dihydroxy-tetrahydrofuran-2-yl]methoxy-oxido-phosphoryl]oxy-oxido-phosphoryl] phosphate
   45    47     1     0     0
SMALL
USER_CHARGES

@<TRIPOS>ATOM
      1 PG         -5.0781   -3.2365    6.8867 P.3       1 GTP        -1.1921
      2 O1G        -5.9812   -2.1124    6.3901 O.co2     1 GTP         0.3195
      3 O2G        -5.5978   -4.6389    6.5888 O.co2     1 GTP         0.3195
      4 O3G        -4.5687   -3.0473    8.3117 O.co2     1 GTP         0.3195
      5 O3B        -3.7192   -3.1029    5.9619 O.3       1 GTP         0.4672
      6 PB         -2.6750   -1.8565    5.8028 P.3       1 GTP        -1.1062
      7 O1B        -3.3973   -0.6959    5.1557 O.co2     1 GTP         0.3195
      8 O2B        -1.9042   -1.6887    7.0931 O.co2     1 GTP         0.3195
      9 O3A        -1.6392   -2.5195    4.7291 O.3       1 GTP         0.4672
     10 PA         -0.7207   -3.8652    4.8536 P.3       1 GTP        -1.1062
     11 O1A         0.3213   -3.6323    5.9257 O.co2     1 GTP         0.3195
     12 O2A        -1.6240   -5.0787    4.8921 O.co2     1 GTP         0.3195
     13 O5'         0.0118   -3.8395    3.3916 O.3       1 GTP         0.1618
     14 C5'        -0.7840   -3.8935    2.2172 C.3       1 GTP         0.1504
     15 C4'        -0.0724   -3.1466    1.1027 C.3       1 GTP         0.1111
     16 O4'        -0.8674   -3.1929   -0.0945 O.3       1 GTP        -0.1436
     17 C3'         0.1338   -1.6715    1.4027 C.3       1 GTP         0.1111
     18 O3'         1.2893   -1.4445    2.1808 O.3       1 GTP        -0.2728
     19 C2'         0.2158   -1.0724    0.0128 C.3       1 GTP         0.1111
     20 O2'         1.5141   -1.2448   -0.5513 O.3       1 GTP        -0.2728
     21 C1'        -0.7897   -1.9176   -0.7583 C.3       1 GTP         0.2693
     22 N9         -2.1040   -1.3333   -0.7704 N.pl3     1 GTP        -0.3222
     23 C8         -3.0597   -1.5109    0.1345 C.ar      1 GTP         0.1640
     24 N7         -4.1618   -0.8291   -0.1607 N.pl3     1 GTP        -0.3688
     25 C5         -3.8764   -0.1805   -1.3310 C.ar      1 GTP         0.0648
     26 C6         -4.7187    0.7111   -2.1152 C.ar      1 GTP         0.3597
     27 O6         -5.8617    1.0043   -1.7939 O.2       1 GTP        -0.2755
     28 N1         -4.0405    1.1608   -3.2468 N.pl3     1 GTP        -0.1604
     29 C2         -2.7239    0.8013   -3.5822 C.ar      1 GTP         0.4468
     30 N2         -2.2399    1.3534   -4.7394 N.pl3     1 GTP        -0.5618
     31 N3         -2.0053   -0.0071   -2.8402 N.2       1 GTP        -0.4283
     32 C4         -2.6290   -0.4727   -1.7210 C.ar      1 GTP         0.2226
     33 H5'        -0.9348   -4.9415    1.9415 H         1 GTP        -0.0393
     34 H5''       -1.7548   -3.4350    2.4278 H         1 GTP        -0.0393
     35 H4'         0.8874   -3.6466    0.8805 H         1 GTP        -0.0393
     36 H3'        -0.7376   -1.2333    1.9867 H         1 GTP        -0.0393
     37 HO3'        1.1626   -1.9325    3.0084 H         1 GTP         0.2010
     38 H2'        -0.0384   -0.0310    0.0096 H         1 GTP        -0.0393
     39 HO2'        2.1463   -0.7958    0.0370 H         1 GTP         0.2010
     40 H1'        -0.4769   -2.1002   -1.8093 H         1 GTP        -0.0393
     41 H8         -2.9610   -2.1316    1.0079 H         1 GTP         0.0000
     42 HN1        -4.5320    1.7923   -3.8726 H         1 GTP         0.0865
     43 HN21       -1.3128    1.1277   -5.0171 H         1 GTP         0.2048
     44 HN22       -2.8342    1.9586   -5.2572 H         1 GTP         0.2048
     45 H45        -5.0195   -0.8034    0.3729 H         1 GTP         0.2048
@<TRIPOS>BOND
     1    1    2 2
     2    1    3 1
     3    1    4 1
     4    1    5 1
     5    5    6 1
     6    6    7 2
     7    6    8 1
     8    6    9 1
     9    9   10 1
    10   10   11 2
    11   10   12 1
    12   10   13 1
    13   13   14 1
    14   14   15 1
    15   14   33 1
    16   14   34 1
    17   15   16 1
    18   15   17 1
    19   15   35 1
    20   16   21 1
    21   17   18 1
    22   17   19 1
    23   17   36 1
    24   18   37 1
    25   19   20 1
    26   19   21 1
    27   19   38 1
    28   20   39 1
    29   21   22 1
    30   21   40 1
    31   22   23 ar
    32   22   32 ar
    33   23   24 ar
    34   23   41 1
    35   24   25 ar
    36   24   45 1
    37   25   26 ar
    38   25   32 ar
    39   26   27 2
    40   26   28 ar
    41   28   29 ar
    42   28   42 1
    43   29   30 1
    44   29   31 ar
    45   30   43 1
    46   30   44 1
    47   31   32 ar
@<TRIPOS>SUBSTRUCTURE
     1 GTP         1 GROUP 0 A     ****
@<TRIPOS>MOLECULE
[[[5-(2-amino-6-oxo-7,8-dihydro-1~{H}-purin-8-ylium-9-yl)-3,4-dihydroxy-tetrahydrofuran-2-yl]methoxy-oxido-phosphoryl]oxy-oxido-phosphoryl] phosphate
   45    47     1     0     0
SMALL
USER_CHARGES

@<TRIPOS>ATOM
      1 PG          6.9484    2.1264    0.1120 P.3       1 GTP        -1.1921
      2 O1G         5.4642    2.3664   -0.1435 O.co2     1 GTP         0.3195
      3 O2G         7.3262    2.0358    1.5867 O.co2     1 GTP         0.3195
      4 O3G         7.8770    3.0055   -0.7192 O.co2     1 GTP         0.3195
      5 O3B         7.2193    0.6072   -0.4698 O.3       1 GTP         0.4672
      6 PB          7.0200    0.0084   -1.9767 P.3       1 GTP        -1.1062
      7 O1B         7.7896    0.8732   -2.9500 O.co2     1 GTP         0.3195
      8 O2B         7.1978   -1.4931   -1.9402 O.co2     1 GTP         0.3195
      9 O3A         5.4200    0.2796   -2.1555 O.3       1 GTP         0.4672
     10 PA          4.4374   -0.0458   -3.4198 P.3       1 GTP        -1.1062
     11 O1A         4.8565    0.8248   -4.5842 O.co2     1 GTP         0.3195
     12 O2A         4.3080   -1.5458   -3.5723 O.co2     1 GTP         0.3195
     13 O5'         3.0213    0.5153   -2.8245 O.3       1 GTP         0.1618
     14 C5'         2.2816   -0.2918   -1.9206 C.3       1 GTP         0.1504
     15 C4'         2.7248    0.0226   -0.4980 C.3       1 GTP         0.1111
     16 O4'         2.4697    1.4219   -0.2462 O.3       1 GTP        -0.1436
     17 C3'         1.9404   -0.7419    0.5596 C.3       1 GTP         0.1111
     18 O3'         2.7418   -0.8086    1.7389 O.3       1 GTP        -0.2728
     19 C2'         0.7477    0.1630    0.7858 C.3       1 GTP         0.1111
     20 O2'         0.1373   -0.0577    2.0407 O.3       1 GTP        -0.2728
     21 C1'         1.3733    1.5427    0.6747 C.3       1 GTP         0.2693
     22 N9          0.4520    2.5240    0.1767 N.pl3     1 GTP        -0.3222
     23 C8          0.2203    2.8205   -1.0970 C.ar      1 GTP         0.1640
     24 N7         -0.6947    3.7752   -1.2304 N.pl3     1 GTP        -0.3688
     25 C5         -1.0607    4.0987    0.0476 C.ar      1 GTP         0.0648
     26 C6         -2.0310    5.0839    0.5029 C.ar      1 GTP         0.3597
     27 O6         -2.6779    5.7867   -0.2609 O.2       1 GTP        -0.2755
     28 N1         -2.1030    5.0975    1.8948 N.pl3     1 GTP        -0.1604
     29 C2         -1.3422    4.2721    2.7403 C.ar      1 GTP         0.4468
     30 N2         -1.5624    4.4419    4.0823 N.pl3     1 GTP        -0.5618
     31 N3         -0.4796    3.3981    2.2792 N.2       1 GTP        -0.4283
     32 C4         -0.3754    3.3496    0.9208 C.ar      1 GTP         0.2226
     33 H5'         1.2163   -0.0770   -2.0471 H         1 GTP        -0.0393
     34 H5''        2.4655   -1.3443   -2.1563 H         1 GTP        -0.0393
     35 H4'         3.8044   -0.1397   -0.4040 H         1 GTP        -0.0393
     36 H3'         1.6764   -1.7639    0.2728 H         1 GTP        -0.0393
     37 HO3'        2.2232   -1.2979    2.3953 H         1 GTP         0.2010
     38 H2'        -0.0011    0.0027    0.0003 H         1 GTP        -0.0393
     39 HO2'       -0.6141    0.5574    2.1082 H         1 GTP         0.2010
     40 H1'         1.7826    1.9024    1.6451 H         1 GTP        -0.0393
     41 H8          0.7110    2.3472   -1.9295 H         1 GTP         0.0000
     42 HN1        -2.7504    5.7495    2.3282 H         1 GTP         0.0865
     43 HN21       -1.0467    3.8796    4.7190 H         1 GTP         0.2048
     44 HN22       -2.2294    5.1209    4.3680 H         1 GTP         0.2048
     45 H45        -1.0382    4.1687   -2.0954 H         1 GTP         0.2048
@<TRIPOS>BOND
     1    1    2 2
     2    1    3 1
     3    1    4 1
     4    1    5 1
     5    5    6 1
     6    6    7 2
     7    6    8 1
     8    6    9 1
     9    9   10 1
    10   10   11 2
    11   10   12 1
    12   10   13 1
    13   13   14 1
    14   14   15 1
    15   14   33 1
    16   14   34 1
    17   15   16 1
    18   15   17 1
    19   15   35 1
    20   16   21 1
    21   17   18 1
    22   17   19 1
    23   17   36 1
    24   18   37 1
    25   19   20 1
    26   19   21 1
    27   19   38 1
    28   20   39 1
    29   21   22 1
    30   21   40 1
    31   22   23 ar
    32   22   32 ar
    33   23   24 ar
    34   23   41 1
    35   24   25 ar
    36   24   45 1
    37   25   26 ar
    38   25   32 ar
    39   26   27 2
    40   26   28 ar
    41   28   29 ar
    42   28   42 1
    43   29   30 1
    44   29   31 ar
    45   30   43 1
    46   30   44 1
    47   31   32 ar
@<TRIPOS>SUBSTRUCTURE
     1 GTP         1 GROUP 0 A     ****
@<TRIPOS>MOLECULE
[[[5-(2-amino-6-oxo-7,8-dihydro-1~{H}-purin-8-ylium-9-yl)-3,4-dihydroxy-tetrahydrofuran-2-yl]methoxy-oxido-phosphoryl]oxy-oxido-phosphoryl] phosphate
   45    47     1     0     0
SMALL
USER_CHARGES

@<TRIPOS>ATOM
      1 PG          6.1183    3.3015    0.1109 P.3       1 GTP        -1.1921
      2 O1G         7.2639    3.8696   -0.7201 O.co2     1 GTP         0.3195
      3 O2G         6.1578    3.6897    1.5851 O.co2     1 GTP         0.3195
      4 O3G         5.8355    1.8239   -0.1400 O.co2     1 GTP         0.3195
      5 O3B         4.7774    4.0636   -0.4731 O.3       1 GTP         0.4672
      6 PB          4.1477    4.0739   -1.9805 P.3       1 GTP        -1.1062
      7 O1B         2.8297    4.8152   -1.9526 O.co2     1 GTP         0.3195
      8 O2B         5.2355    4.4303   -2.9690 O.co2     1 GTP         0.3195
      9 O3A         3.8689    2.4750   -2.1576 O.3       1 GTP         0.4672
     10 PA          3.2351    1.6560   -3.4214 P.3       1 GTP        -1.1062
     11 O1A         1.7871    2.0671   -3.5765 O.co2     1 GTP         0.3195
     12 O2A         4.1965    1.7253   -4.5880 O.co2     1 GTP         0.3195
     13 O5'         3.2903    0.1346   -2.8241 O.3       1 GTP         0.1618
     14 C5'         2.2816   -0.2918   -1.9206 C.3       1 GTP         0.1504
     15 C4'         2.7248    0.0226   -0.4980 C.3       1 GTP         0.1111
     16 O4'         2.4697    1.4219   -0.2462 O.3       1 GTP        -0.1436
     17 C3'         1.9404   -0.7419    0.5596 C.3       1 GTP         0.1111
     18 O3'         2.7418   -0.8086    1.7389 O.3       1 GTP        -0.2728
     19 C2'         0.7477    0.1630    0.7858 C.3       1 GTP         0.1111
     20 O2'         0.1373   -0.0577    2.0407 O.3       1 GTP        -0.2728
     21 C1'         1.3733    1.5427    0.6747 C.3       1 GTP         0.2693
     22 N9          0.4520    2.5240    0.1767 N.pl3     1 GTP        -0.3222
     23 C8         -0.2009    2.4849   -0.9792 C.ar      1 GTP         0.1640
     24 N7         -0.9840    3.5454   -1.1481 N.pl3     1 GTP        -0.3688
     25 C5         -0.8090    4.3005   -0.0206 C.ar      1 GTP         0.0648
     26 C6         -1.4206    5.5724    0.3362 C.ar      1 GTP         0.3597
     27 O6         -2.2199    6.1544   -0.3836 O.2       1 GTP        -0.2755
     28 N1         -0.9680    6.0043    1.5817 N.pl3     1 GTP        -0.1604
     29 C2         -0.0474    5.3055    2.3814 C.ar      1 GTP         0.4468
     30 N2          0.2680    5.9024    3.5740 N.pl3     1 GTP        -0.5618
     31 N3          0.4755    4.1601    2.0138 N.2       1 GTP        -0.4283
     32 C4          0.0611    3.6981    0.8001 C.ar      1 GTP         0.2226
     33 H5'         1.3514    0.2330   -2.1577 H         1 GTP        -0.0393
     34 H5''        2.1280   -1.3678   -2.0460 H         1 GTP        -0.0393
     35 H4'         3.8044   -0.1397   -0.4040 H         1 GTP        -0.0393
     36 H3'         1.6764   -1.7639    0.2728 H         1 GTP        -0.0393
     37 HO3'        2.2232   -1.2979    2.3953 H         1 GTP         0.2010
     38 H2'        -0.0011    0.0027    0.0003 H         1 GTP        -0.0393
     39 HO2'       -0.6141    0.5574    2.1082 H         1 GTP         0.2010
     40 H1'         1.7826    1.9024    1.6451 H         1 GTP        -0.0393
     41 H8         -0.1126    1.6906   -1.6997 H         1 GTP         0.0000
     42 HN1        -1.3285    6.8855    1.9361 H         1 GTP         0.0865
     43 HN21        0.9153    5.4446    4.1732 H         1 GTP         0.2048
     44 HN22       -0.1624    6.7706    3.7948 H         1 GTP         0.2048
     45 H45        -1.5768    3.7405   -1.9429 H         1 GTP         0.2048
@<TRIPOS>BOND
     1    1    2 2
     2    1    3 1
     3    1    4 1
     4    1    5 1
     5    5    6 1
     6    6    7 2
     7    6    8 1
     8    6    9 1
     9    9   10 1
    10   10   11 2
    11   10   12 1
    12   10   13 1
    13   13   14 1
    14   14   15 1
    15   14   33 1
    16   14   34 1
    17   15   16 1
    18   15   17 1
    19   15   35 1
    20   16   21 1
    21   17   18 1
    22   17   19 1
    23   17   36 1
    24   18   37 1
    25   19   20 1
    26   19   21 1
    27   19   38 1
    28   20   39 1
    29   21   22 1
    30   21   40 1
    31   22   23 ar
    32   22   32 ar
    33   23   24 ar
    34   23   41 1
    35   24   25 ar
    36   24   45 1
    37   25   26 ar
    38   25   32 ar
    39   26   27 2
    40   26   28 ar
    41   28   29 ar
    42   28   42 1
    43   29   30 1
    44   29   31 ar
    45   30   43 1
    46   30   44 1
    47   31   32 ar
@<TRIPOS>SUBSTRUCTURE
     1 GTP         1 GROUP 0 A     ****
@<TRIPOS>MOLECULE
[[[5-(2-amino-6-oxo-7,8-dihydro-1~{H}-purin-8-ylium-9-yl)-3,4-dihydroxy-tetrahydrofuran-2-yl]methoxy-oxido-phosphoryl]oxy-oxido-phosphoryl] phosphate
   45    47     1     0     0
SMALL
USER_CHARGES

@<TRIPOS>ATOM
      1 PG         -1.2294  -10.1651    3.7704 P.3       1 GTP        -1.1921
      2 O1G        -2.7085  -10.2910    4.1202 O.co2     1 GTP         0.3195
      3 O2G        -0.8811  -10.5894    2.3477 O.co2     1 GTP         0.3195
      4 O3G        -0.2853  -10.7124    4.8358 O.co2     1 GTP         0.3195
      5 O3B        -0.9454   -8.5406    3.7898 O.3       1 GTP         0.4672
      6 PB         -1.1140   -7.4591    5.0027 P.3       1 GTP        -1.1062
      7 O1B        -2.5805   -7.3473    5.3551 O.co2     1 GTP         0.3195
      8 O2B        -0.0650   -7.7310    6.0577 O.co2     1 GTP         0.3195
      9 O3A        -0.6389   -6.1095    4.2164 O.3       1 GTP         0.4672
     10 PA         -0.5242   -4.5704    4.7529 P.3       1 GTP        -1.1062
     11 O1A        -1.9184   -4.0686    5.0597 O.co2     1 GTP         0.3195
     12 O2A         0.5809   -4.4868    5.7833 O.co2     1 GTP         0.3195
     13 O5'         0.0118   -3.8395    3.3916 O.3       1 GTP         0.1618
     14 C5'        -0.7840   -3.8935    2.2172 C.3       1 GTP         0.1504
     15 C4'        -0.0724   -3.1466    1.1027 C.3       1 GTP         0.1111
     16 O4'        -0.8674   -3.1929   -0.0945 O.3       1 GTP        -0.1436
     17 C3'         0.1338   -1.6715    1.4027 C.3       1 GTP         0.1111
     18 O3'         1.2893   -1.4445    2.1808 O.3       1 GTP        -0.2728
     19 C2'         0.2158   -1.0724    0.0128 C.3       1 GTP         0.1111
     20 O2'         1.5141   -1.2448   -0.5513 O.3       1 GTP        -0.2728
     21 C1'        -0.7897   -1.9176   -0.7583 C.3       1 GTP         0.2693
     22 N9         -2.1040   -1.3333   -0.7704 N.pl3     1 GTP        -0.3222
     23 C8         -3.0597   -1.5109    0.1345 C.ar      1 GTP         0.1640
     24 N7         -4.1618   -0.8291   -0.1607 N.pl3     1 GTP        -0.3688
     25 C5         -3.8764   -0.1805   -1.3310 C.ar      1 GTP         0.0648
     26 C6         -4.7187    0.7111   -2.1152 C.ar      1 GTP         0.3597
     27 O6         -5.8617    1.0043   -1.7939 O.2       1 GTP        -0.2755
     28 N1         -4.0405    1.1608   -3.2468 N.pl3     1 GTP        -0.1604
     29 C2         -2.7239    0.8013   -3.5822 C.ar      1 GTP         0.4468
     30 N2         -2.2399    1.3534   -4.7394 N.pl3     1 GTP        -0.5618
     31 N3         -2.0053   -0.0071   -2.8402 N.2       1 GTP        -0.4283
     32 C4         -2.6290   -0.4727   -1.7210 C.ar      1 GTP         0.2226
     33 H5'        -0.9348   -4.9415    1.9415 H         1 GTP        -0.0393
     34 H5''       -1.7548   -3.4350    2.4278 H         1 GTP        -0.0393
     35 H4'         0.8874   -3.6466    0.8805 H         1 GTP        -0.0393
     36 H3'        -0.7376   -1.2333    1.9867 H         1 GTP        -0.0393
     37 HO3'        1.1626   -1.9325    3.0084 H         1 GTP         0.2010
     38 H2'        -0.0384   -0.0310    0.0096 H         1 GTP        -0.0393
     39 HO2'        2.1463   -0.7958    0.0370 H         1 GTP         0.2010
     40 H1'        -0.4769   -2.1002   -1.8093 H         1 GTP        -0.0393
     41 H8         -2.9610   -2.1316    1.0079 H         1 GTP         0.0000
     42 HN1        -4.5320    1.7923   -3.8726 H         1 GTP         0.0865
     43 HN21       -1.3128    1.1277   -5.0171 H         1 GTP         0.2048
     44 HN22       -2.8342    1.9586   -5.2572 H         1 GTP         0.2048
     45 H45        -5.0195   -0.8034    0.3729 H         1 GTP         0.2048
@<TRIPOS>BOND
     1    1    2 2
     2    1    3 1
     3    1    4 1
     4    1    5 1
     5    5    6 1
     6    6    7 2
     7    6    8 1
     8    6    9 1
     9    9   10 1
    10   10   11 2
    11   10   12 1
    12   10   13 1
    13   13   14 1
    14   14   15 1
    15   14   33 1
    16   14   34 1
    17   15   16 1
    18   15   17 1
    19   15   35 1
    20   16   21 1
    21   17   18 1
    22   17   19 1
    23   17   36 1
    24   18   37 1
    25   19   20 1
    26   19   21 1
    27   19   38 1
    28   20   39 1
    29   21   22 1
    30   21   40 1
    31   22   23 ar
    32   22   32 ar
    33   23   24 ar
    34   23   41 1
    35   24   25 ar
    36   24   45 1
    37   25   26 ar
    38   25   32 ar
    39   26   27 2
    40   26   28 ar
    41   28   29 ar
    42   28   42 1
    43   29   30 1
    44   29   31 ar
    45   30   43 1
    46   30   44 1
    47   31   32 ar
@<TRIPOS>SUBSTRUCTURE
     1 GTP         1 GROUP 0 A     ****
@<TRIPOS>MOLECULE
[[[5-(2-amino-6-oxo-7,8-dihydro-1~{H}-purin-8-ylium-9-yl)-3,4-dihydroxy-tetrahydrofuran-2-yl]methoxy-oxido-phosphoryl]oxy-oxido-phosphoryl] phosphate
   45    47     1     0     0
SMALL
USER_CHARGES

@<TRIPOS>ATOM
      1 PG          5.0712    0.5048   -7.7110 P.3       1 GTP        -1.1921
      2 O1G         3.9050    1.0239   -8.5454 O.co2     1 GTP         0.3195
      3 O2G         5.9909    1.5939   -7.1692 O.co2     1 GTP         0.3195
      4 O3G         5.8028   -0.6827   -8.3279 O.co2     1 GTP         0.3195
      5 O3B         4.3569   -0.1284   -6.3661 O.3       1 GTP         0.4672
      6 PB          3.2607   -1.3318   -6.2266 P.3       1 GTP        -1.1062
      7 O1B         1.9676   -0.8902   -6.8751 O.co2     1 GTP         0.3195
      8 O2B         3.9187   -2.6450   -6.5872 O.co2     1 GTP         0.3195
      9 O3A         3.0822   -1.3351   -4.6038 O.3       1 GTP         0.4672
     10 PA          2.1375   -2.2725   -3.6560 P.3       1 GTP        -1.1062
     11 O1A         0.6906   -1.9446   -3.9539 O.co2     1 GTP         0.3195
     12 O2A         2.6428   -3.6980   -3.7095 O.co2     1 GTP         0.3195
     13 O5'         2.5245   -1.6648   -2.1878 O.3       1 GTP         0.1618
     14 C5'         2.2816   -0.2918   -1.9206 C.3       1 GTP         0.1504
     15 C4'         2.7248    0.0226   -0.4980 C.3       1 GTP         0.1111
     16 O4'         2.4697    1.4219   -0.2462 O.3       1 GTP        -0.1436
     17 C3'         1.9404   -0.7419    0.5596 C.3       1 GTP         0.1111
     18 O3'         2.7418   -0.8086    1.7389 O.3       1 GTP        -0.2728
     19 C2'         0.7477    0.1630    0.7858 C.3       1 GTP         0.1111
     20 O2'         0.1373   -0.0577    2.0407 O.3       1 GTP        -0.2728
     21 C1'         1.3733    1.5427    0.6747 C.3       1 GTP         0.2693
     22 N9          0.4520    2.5240    0.1767 N.pl3     1 GTP        -0.3222
     23 C8         -0.3350    3.3125    0.8998 C.ar      1 GTP         0.1640
     24 N7         -1.0716    4.1171    0.1405 N.pl3     1 GTP        -0.3688
     25 C5         -0.7219    3.8110   -1.1464 C.ar      1 GTP         0.0648
     26 C6         -1.2133    4.3827   -2.3917 C.ar      1 GTP         0.3597
     27 O6         -2.0567    5.2674   -2.4335 O.2       1 GTP        -0.2755
     28 N1         -0.5926    3.7846   -3.4870 N.pl3     1 GTP        -0.1604
     29 C2          0.3749    2.7691   -3.3983 C.ar      1 GTP         0.4468
     30 N2          0.8624    2.3146   -4.5959 N.pl3     1 GTP        -0.5618
     31 N3          0.7851    2.2875   -2.2493 N.2       1 GTP        -0.4283
     32 C4          0.2042    2.8436   -1.1486 C.ar      1 GTP         0.2226
     33 H5'         2.8432    0.3119   -2.6398 H         1 GTP        -0.0393
     34 H5''        1.2128   -0.0927   -2.0428 H         1 GTP        -0.0393
     35 H4'         3.8044   -0.1397   -0.4040 H         1 GTP        -0.0393
     36 H3'         1.6764   -1.7639    0.2728 H         1 GTP        -0.0393
     37 HO3'        2.2232   -1.2979    2.3953 H         1 GTP         0.2010
     38 H2'        -0.0011    0.0027    0.0003 H         1 GTP        -0.0393
     39 HO2'       -0.6141    0.5574    2.1082 H         1 GTP         0.2010
     40 H1'         1.7826    1.9024    1.6451 H         1 GTP        -0.0393
     41 H8         -0.3766    3.3075    1.9750 H         1 GTP         0.0000
     42 HN1        -0.8580    4.1049   -4.4138 H         1 GTP         0.0865
     43 HN21        1.5490    1.5963   -4.5827 H         1 GTP         0.2048
     44 HN22        0.5109    2.7205   -5.4321 H         1 GTP         0.2048
     45 H45        -1.7420    4.8034    0.4575 H         1 GTP         0.2048
@<TRIPOS>BOND
     1    1    2 2
     2    1    3 1
     3    1    4 1
     4    1    5 1
     5    5    6 1
     6    6    7 2
     7    6    8 1
     8    6    9 1
     9    9   10 1
    10   10   11 2
    11   10   12 1
    12   10   13 1
    13   13   14 1
    14   14   15 1
    15   14   33 1
    16   14   34 1
    17   15   16 1
    18   15   17 1
    19   15   35 1
    20   16   21 1
    21   17   18 1
    22   17   19 1
    23   17   36 1
    24   18   37 1
    25   19   20 1
    26   19   21 1
    27   19   38 1
    28   20   39 1
    29   21   22 1
    30   21   40 1
    31   22   23 ar
    32   22   32 ar
    33   23   24 ar
    34   23   41 1
    35   24   25 ar
    36   24   45 1
    37   25   26 ar
    38   25   32 ar
    39   26   27 2
    40   26   28 ar
    41   28   29 ar
    42   28   42 1
    43   29   30 1
    44   29   31 ar
    45   30   43 1
    46   30   44 1
    47   31   32 ar
@<TRIPOS>SUBSTRUCTURE
     1 GTP         1 GROUP 0 A     ****
@<TRIPOS>MOLECULE
[[[5-(2-amino-6-oxo-7,8-dihydro-1~{H}-purin-8-ylium-9-yl)-3,4-dihydroxy-tetrahydrofuran-2-yl]methoxy-oxido-phosphoryl]oxy-oxido-phosphoryl] phosphate
   45    47     1     0     0
SMALL
USER_CHARGES

@<TRIPOS>ATOM
      1 PG         -4.2194   -6.7842   -2.2057 P.3       1 GTP        -1.1921
      2 O1G        -2.7386   -6.4308   -2.2970 O.co2     1 GTP         0.3195
      3 O2G        -4.5095   -8.2813   -2.1973 O.co2     1 GTP         0.3195
      4 O3G        -5.1142   -5.9784   -3.1417 O.co2     1 GTP         0.3195
      5 O3B        -4.6651   -6.2766   -0.7013 O.3       1 GTP         0.4672
      6 PB         -4.6177   -4.7836   -0.0394 P.3       1 GTP        -1.1062
      7 O1B        -4.6569   -3.7573   -1.1496 O.co2     1 GTP         0.3195
      8 O2B        -5.5816   -4.7274    1.1247 O.co2     1 GTP         0.3195
      9 O3A        -3.1183   -4.8314    0.6047 O.3       1 GTP         0.4672
     10 PA         -2.4913   -5.8423    1.7249 P.3       1 GTP        -1.1062
     11 O1A        -3.1988   -5.5936    3.0391 O.co2     1 GTP         0.3195
     12 O2A        -2.3987   -7.2343    1.1384 O.co2     1 GTP         0.3195
     13 O5'        -0.9724   -5.2440    1.8220 O.3       1 GTP         0.1618
     14 C5'        -0.7840   -3.8935    2.2172 C.3       1 GTP         0.1504
     15 C4'        -0.0724   -3.1466    1.1027 C.3       1 GTP         0.1111
     16 O4'        -0.8674   -3.1929   -0.0945 O.3       1 GTP        -0.1436
     17 C3'         0.1338   -1.6715    1.4027 C.3       1 GTP         0.1111
     18 O3'         1.2893   -1.4445    2.1808 O.3       1 GTP        -0.2728
     19 C2'         0.2158   -1.0724    0.0128 C.3       1 GTP         0.1111
     20 O2'         1.5141   -1.2448   -0.5513 O.3       1 GTP        -0.2728
     21 C1'        -0.7897   -1.9176   -0.7583 C.3       1 GTP         0.2693
     22 N9         -2.1040   -1.3333   -0.7704 N.pl3     1 GTP        -0.3222
     23 C8         -3.0597   -1.5109    0.1345 C.ar      1 GTP         0.1640
     24 N7         -4.1618   -0.8291   -0.1607 N.pl3     1 GTP        -0.3688
     25 C5         -3.8764   -0.1805   -1.3310 C.ar      1 GTP         0.0648
     26 C6         -4.7187    0.7111   -2.1152 C.ar      1 GTP         0.3597
     27 O6         -5.8617    1.0043   -1.7939 O.2       1 GTP        -0.2755
     28 N1         -4.0405    1.1608   -3.2468 N.pl3     1 GTP        -0.1604
     29 C2         -2.7239    0.8013   -3.5822 C.ar      1 GTP         0.4468
     30 N2         -2.2399    1.3534   -4.7394 N.pl3     1 GTP        -0.5618
     31 N3         -2.0053   -0.0071   -2.8402 N.2       1 GTP        -0.4283
     32 C4         -2.6290   -0.4727   -1.7210 C.ar      1 GTP         0.2226
     33 H5'        -1.7618   -3.4448    2.4164 H         1 GTP        -0.0393
     34 H5''       -0.1874   -3.8744    3.1341 H         1 GTP        -0.0393
     35 H4'         0.8874   -3.6466    0.8805 H         1 GTP        -0.0393
     36 H3'        -0.7376   -1.2333    1.9867 H         1 GTP        -0.0393
     37 HO3'        1.3408   -0.4870    2.3219 H         1 GTP         0.2010
     38 H2'        -0.0384   -0.0310    0.0096 H         1 GTP        -0.0393
     39 HO2'        2.1463   -0.7958    0.0370 H         1 GTP         0.2010
     40 H1'        -0.4769   -2.1002   -1.8093 H         1 GTP        -0.0393
     41 H8         -2.9610   -2.1316    1.0079 H         1 GTP         0.0000
     42 HN1        -4.5320    1.7923   -3.8726 H         1 GTP         0.0865
     43 HN21       -1.3128    1.1277   -5.0171 H         1 GTP         0.2048
     44 HN22       -2.8342    1.9586   -5.2572 H         1 GTP         0.2048
     45 H45        -5.0195   -0.8034    0.3729 H         1 GTP         0.2048
@<TRIPOS>BOND
     1    1    2 2
     2    1    3 1
     3    1    4 1
     4    1    5 1
     5    5    6 1
     6    6    7 2
     7    6    8 1
     8    6    9 1
     9    9   10 1
    10   10   11 2
    11   10   12 1
    12   10   13 1
    13   13   14 1
    14   14   15 1
    15   14   33 1
    16   14   34 1
    17   15   16 1
    18   15   17 1
    19   15   35 1
    20   16   21 1
    21   17   18 1
    22   17   19 1
    23   17   36 1
    24   18   37 1
    25   19   20 1
    26   19   21 1
    27   19   38 1
    28   20   39 1
    29   21   22 1
    30   21   40 1
    31   22   23 ar
    32   22   32 ar
    33   23   24 ar
    34   23   41 1
    35   24   25 ar
    36   24   45 1
    37   25   26 ar
    38   25   32 ar
    39   26   27 2
    40   26   28 ar
    41   28   29 ar
    42   28   42 1
    43   29   30 1
    44   29   31 ar
    45   30   43 1
    46   30   44 1
    47   31   32 ar
@<TRIPOS>SUBSTRUCTURE
     1 GTP         1 GROUP 0 A     ****
@<TRIPOS>MOLECULE
[[[5-(2-amino-6-oxo-7,8-dihydro-1~{H}-purin-8-ylium-9-yl)-3,4-dihydroxy-tetrahydrofuran-2-yl]methoxy-oxido-phosphoryl]oxy-oxido-phosphoryl] phosphate
   45    47     1     0     0
SMALL
USER_CHARGES

@<TRIPOS>ATOM
      1 PG          1.8958   -3.4945   -7.4224 P.3       1 GTP        -1.1921
      2 O1G         2.5009   -2.8700   -8.6752 O.co2     1 GTP         0.3195
      3 O2G         2.7300   -4.6164   -6.8131 O.co2     1 GTP         0.3195
      4 O3G         0.4084   -3.8116   -7.5366 O.co2     1 GTP         0.3195
      5 O3B         1.9561   -2.2887   -6.2989 O.3       1 GTP         0.4672
      6 PB          1.2770   -0.8029   -6.3151 P.3       1 GTP        -1.1062
      7 O1B         1.9086    0.0092   -7.4237 O.co2     1 GTP         0.3195
      8 O2B        -0.2240   -0.9434   -6.1935 O.co2     1 GTP         0.3195
      9 O3A         1.8081   -0.2577   -4.8708 O.3       1 GTP         0.4672
     10 PA          3.3347   -0.0507   -4.3265 P.3       1 GTP        -1.1062
     11 O1A         3.9865   -1.4112   -4.2092 O.co2     1 GTP         0.3195
     12 O2A         3.9917    1.0658   -5.1088 O.co2     1 GTP         0.3195
     13 O5'         3.0213    0.5153   -2.8245 O.3       1 GTP         0.1618
     14 C5'         2.2816   -0.2918   -1.9206 C.3       1 GTP         0.1504
     15 C4'         2.7248    0.0226   -0.4980 C.3       1 GTP         0.1111
     16 O4'         2.4697    1.4219   -0.2462 O.3       1 GTP        -0.1436
     17 C3'         1.9404   -0.7419    0.5596 C.3       1 GTP         0.1111
     18 O3'         2.7418   -0.8086    1.7389 O.3       1 GTP        -0.2728
     19 C2'         0.7477    0.1630    0.7858 C.3       1 GTP         0.1111
     20 O2'         0.1373   -0.0577    2.0407 O.3       1 GTP        -0.2728
     21 C1'         1.3733    1.5427    0.6747 C.3       1 GTP         0.2693
     22 N9          0.4520    2.5240    0.1767 N.pl3     1 GTP        -0.3222
     23 C8         -0.6818    2.9109    0.7501 C.ar      1 GTP         0.1640
     24 N7         -1.3103    3.8415    0.0391 N.pl3     1 GTP        -0.3688
     25 C5         -0.5155    4.0512   -1.0547 C.ar      1 GTP         0.0648
     26 C6         -0.7125    4.9651   -2.1705 C.ar      1 GTP         0.3597
     27 O6         -1.6819    5.7047   -2.2651 O.2       1 GTP        -0.2755
     28 N1          0.3401    4.8672   -3.0790 N.pl3     1 GTP        -0.1604
     29 C2          1.4396    4.0039   -2.9348 C.ar      1 GTP         0.4468
     30 N2          2.3679    4.0602   -3.9414 N.pl3     1 GTP        -0.5618
     31 N3          1.5708    3.1983   -1.9080 N.2       1 GTP        -0.4283
     32 C4          0.5630    3.2599   -0.9921 C.ar      1 GTP         0.2226
     33 H5'         1.2163   -0.0770   -2.0471 H         1 GTP        -0.0393
     34 H5''        2.4655   -1.3443   -2.1563 H         1 GTP        -0.0393
     35 H4'         3.8044   -0.1397   -0.4040 H         1 GTP        -0.0393
     36 H3'         1.6764   -1.7639    0.2728 H         1 GTP        -0.0393
     37 HO3'        2.2232   -1.2979    2.3953 H         1 GTP         0.2010
     38 H2'        -0.0011    0.0027    0.0003 H         1 GTP        -0.0393
     39 HO2'       -0.1563   -0.9855    2.0596 H         1 GTP         0.2010
     40 H1'         1.7826    1.9024    1.6451 H         1 GTP        -0.0393
     41 H8         -1.0545    2.5222    1.6816 H         1 GTP         0.0000
     42 HN1         0.3104    5.4612   -3.9026 H         1 GTP         0.0865
     43 HN21        3.1632    3.4672   -3.8824 H         1 GTP         0.2048
     44 HN22        2.2108    4.6918   -4.6924 H         1 GTP         0.2048
     45 H45        -2.1863    4.2902    0.2681 H         1 GTP         0.2048
@<TRIPOS>BOND
     1    1    2 2
     2    1    3 1
     3    1    4 1
     4    1    5 1
     5    5    6 1
     6    6    7 2
     7    6    8 1
     8    6    9 1
     9    9   10 1
    10   10   11 2
    11   10   12 1
    12   10   13 1
    13   13   14 1
    14   14   15 1
    15   14   33 1
    16   14   34 1
    17   15   16 1
    18   15   17 1
    19   15   35 1
    20   16   21 1
    21   17   18 1
    22   17   19 1
    23   17   36 1
    24   18   37 1
    25   19   20 1
    26   19   21 1
    27   19   38 1
    28   20   39 1
    29   21   22 1
    30   21   40 1
    31   22   23 ar
    32   22   32 ar
    33   23   24 ar
    34   23   41 1
    35   24   25 ar
    36   24   45 1
    37   25   26 ar
    38   25   32 ar
    39   26   27 2
    40   26   28 ar
    41   28   29 ar
    42   28   42 1
    43   29   30 1
    44   29   31 ar
    45   30   43 1
    46   30   44 1
    47   31   32 ar
@<TRIPOS>SUBSTRUCTURE
     1 GTP         1 GROUP 0 A     ****
@<TRIPOS>MOLECULE
[[[5-(2-amino-6-oxo-7,8-dihydro-1~{H}-purin-8-ylium-9-yl)-3,4-dihydroxy-tetrahydrofuran-2-yl]methoxy-oxido-phosphoryl]oxy-oxido-phosphoryl] phosphate
   45    47     1     0     0
SMALL
USER_CHARGES

@<TRIPOS>ATOM
      1 PG          4.9274    1.0120   -6.2126 P.3       1 GTP        -1.1921
      2 O1G         4.1681    1.6072   -5.0315 O.co2     1 GTP         0.3195
      3 O2G         6.4453    1.0599   -6.0730 O.co2     1 GTP         0.3195
      4 O3G         4.4099    1.4550   -7.5771 O.co2     1 GTP         0.3195
      5 O3B         4.5660   -0.5962   -6.1576 O.3       1 GTP         0.4672
      6 PB          3.1205   -1.3518   -6.2513 P.3       1 GTP        -1.1062
      7 O1B         2.1486   -0.4545   -6.9847 O.co2     1 GTP         0.3195
      8 O2B         3.3394   -2.7891   -6.6678 O.co2     1 GTP         0.3195
      9 O3A         2.7398   -1.3839   -4.6640 O.3       1 GTP         0.4672
     10 PA          3.5298   -2.0738   -3.4112 P.3       1 GTP        -1.1062
     11 O1A         3.4911   -3.5755   -3.5934 O.co2     1 GTP         0.3195
     12 O2A         4.8387   -1.3468   -3.1911 O.co2     1 GTP         0.3195
     13 O5'         2.5245   -1.6648   -2.1878 O.3       1 GTP         0.1618
     14 C5'         2.2816   -0.2918   -1.9206 C.3       1 GTP         0.1504
     15 C4'         2.7248    0.0226   -0.4980 C.3       1 GTP         0.1111
     16 O4'         2.4697    1.4219   -0.2462 O.3       1 GTP        -0.1436
     17 C3'         1.9404   -0.7419    0.5596 C.3       1 GTP         0.1111
     18 O3'         2.7418   -0.8086    1.7389 O.3       1 GTP        -0.2728
     19 C2'         0.7477    0.1630    0.7858 C.3       1 GTP         0.1111
     20 O2'         0.1373   -0.0577    2.0407 O.3       1 GTP        -0.2728
     21 C1'         1.3733    1.5427    0.6747 C.3       1 GTP         0.2693
     22 N9          0.4520    2.5240    0.1767 N.pl3     1 GTP        -0.3222
     23 C8          0.2203    2.8205   -1.0970 C.ar      1 GTP         0.1640
     24 N7         -0.6947    3.7752   -1.2304 N.pl3     1 GTP        -0.3688
     25 C5         -1.0607    4.0987    0.0476 C.ar      1 GTP         0.0648
     26 C6         -2.0310    5.0839    0.5029 C.ar      1 GTP         0.3597
     27 O6         -2.6779    5.7867   -0.2609 O.2       1 GTP        -0.2755
     28 N1         -2.1030    5.0975    1.8948 N.pl3     1 GTP        -0.1604
     29 C2         -1.3422    4.2721    2.7403 C.ar      1 GTP         0.4468
     30 N2         -1.5624    4.4419    4.0823 N.pl3     1 GTP        -0.5618
     31 N3         -0.4796    3.3981    2.2792 N.2       1 GTP        -0.4283
     32 C4         -0.3754    3.3496    0.9208 C.ar      1 GTP         0.2226
     33 H5'         2.8432    0.3119   -2.6398 H         1 GTP        -0.0393
     34 H5''        1.2128   -0.0927   -2.0428 H         1 GTP        -0.0393
     35 H4'         3.8044   -0.1397   -0.4040 H         1 GTP        -0.0393
     36 H3'         1.6764   -1.7639    0.2728 H         1 GTP        -0.0393
     37 HO3'        3.5554   -1.2733    1.4914 H         1 GTP         0.2010
     38 H2'        -0.0011    0.0027    0.0003 H         1 GTP        -0.0393
     39 HO2'       -0.6141    0.5574    2.1082 H         1 GTP         0.2010
     40 H1'         1.7826    1.9024    1.6451 H         1 GTP        -0.0393
     41 H8          0.7110    2.3472   -1.9295 H         1 GTP         0.0000
     42 HN1        -2.7504    5.7495    2.3282 H         1 GTP         0.0865
     43 HN21       -1.0467    3.8796    4.7190 H         1 GTP         0.2048
     44 HN22       -2.2294    5.1209    4.3680 H         1 GTP         0.2048
     45 H45        -1.0382    4.1687   -2.0954 H         1 GTP         0.2048
@<TRIPOS>BOND
     1    1    2 2
     2    1    3 1
     3    1    4 1
     4    1    5 1
     5    5    6 1
     6    6    7 2
     7    6    8 1
     8    6    9 1
     9    9   10 1
    10   10   11 2
    11   10   12 1
    12   10   13 1
    13   13   14 1
    14   14   15 1
    15   14   33 1
    16   14   34 1
    17   15   16 1
    18   15   17 1
    19   15   35 1
    20   16   21 1
    21   17   18 1
    22   17   19 1
    23   17   36 1
    24   18   37 1
    25   19   20 1
    26   19   21 1
    27   19   38 1
    28   20   39 1
    29   21   22 1
    30   21   40 1
    31   22   23 ar
    32   22   32 ar
    33   23   24 ar
    34   23   41 1
    35   24   25 ar
    36   24   45 1
    37   25   26 ar
    38   25   32 ar
    39   26   27 2
    40   26   28 ar
    41   28   29 ar
    42   28   42 1
    43   29   30 1
    44   29   31 ar
    45   30   43 1
    46   30   44 1
    47   31   32 ar
@<TRIPOS>SUBSTRUCTURE
     1 GTP         1 GROUP 0 A     ****
@<TRIPOS>MOLECULE
[[[5-(2-amino-6-oxo-7,8-dihydro-1~{H}-purin-8-ylium-9-yl)-3,4-dihydroxy-tetrahydrofuran-2-yl]methoxy-oxido-phosphoryl]oxy-oxido-phosphoryl] phosphate
   45    47     1     0     0
SMALL
USER_CHARGES

@<TRIPOS>ATOM
      1 PG         -2.5963   -1.6302   -2.8336 P.3       1 GTP        -1.1921
      2 O1G        -2.9505   -0.7165   -4.0022 O.co2     1 GTP         0.3195
      3 O2G        -3.8013   -2.1902   -2.0852 O.co2     1 GTP         0.3195
      4 O3G        -1.4930   -1.0910   -1.9292 O.co2     1 GTP         0.3195
      5 O3B        -1.9116   -2.9511   -3.5452 O.3       1 GTP         0.4672
      6 PB         -0.5872   -3.0645   -4.4950 P.3       1 GTP        -1.1062
      7 O1B        -0.3090   -4.5255   -4.7701 O.co2     1 GTP         0.3195
      8 O2B        -0.6937   -2.0544   -5.6156 O.co2     1 GTP         0.3195
      9 O3A         0.5298   -2.4844   -3.4552 O.3       1 GTP         0.4672
     10 PA          2.1375   -2.2725   -3.6560 P.3       1 GTP        -1.1062
     11 O1A         2.7815   -3.6336   -3.8061 O.co2     1 GTP         0.3195
     12 O2A         2.3687   -1.1815   -4.6788 O.co2     1 GTP         0.3195
     13 O5'         2.5245   -1.6648   -2.1878 O.3       1 GTP         0.1618
     14 C5'         2.2816   -0.2918   -1.9206 C.3       1 GTP         0.1504
     15 C4'         2.7248    0.0226   -0.4980 C.3       1 GTP         0.1111
     16 O4'         2.4697    1.4219   -0.2462 O.3       1 GTP        -0.1436
     17 C3'         1.9404   -0.7419    0.5596 C.3       1 GTP         0.1111
     18 O3'         2.7418   -0.8086    1.7389 O.3       1 GTP        -0.2728
     19 C2'         0.7477    0.1630    0.7858 C.3       1 GTP         0.1111
     20 O2'         0.1373   -0.0577    2.0407 O.3       1 GTP        -0.2728
     21 C1'         1.3733    1.5427    0.6747 C.3       1 GTP         0.2693
     22 N9          0.4520    2.5240    0.1767 N.pl3     1 GTP        -0.3222
     23 C8         -0.3350    3.3125    0.8998 C.ar      1 GTP         0.1640
     24 N7         -1.0716    4.1171    0.1405 N.pl3     1 GTP        -0.3688
     25 C5         -0.7219    3.8110   -1.1464 C.ar      1 GTP         0.0648
     26 C6         -1.2133    4.3827   -2.3917 C.ar      1 GTP         0.3597
     27 O6         -2.0567    5.2674   -2.4335 O.2       1 GTP        -0.2755
     28 N1         -0.5926    3.7846   -3.4870 N.pl3     1 GTP        -0.1604
     29 C2          0.3749    2.7691   -3.3983 C.ar      1 GTP         0.4468
     30 N2          0.8624    2.3146   -4.5959 N.pl3     1 GTP        -0.5618
     31 N3          0.7851    2.2875   -2.2493 N.2       1 GTP        -0.4283
     32 C4          0.2042    2.8436   -1.1486 C.ar      1 GTP         0.2226
     33 H5'         2.8432    0.3119   -2.6398 H         1 GTP        -0.0393
     34 H5''        1.2128   -0.0927   -2.0428 H         1 GTP        -0.0393
     35 H4'         3.8044   -0.1397   -0.4040 H         1 GTP        -0.0393
     36 H3'         1.6764   -1.7639    0.2728 H         1 GTP        -0.0393
     37 HO3'        2.2232   -1.2979    2.3953 H         1 GTP         0.2010
     38 H2'        -0.0011    0.0027    0.0003 H         1 GTP        -0.0393
     39 HO2'       -0.6141    0.5574    2.1082 H         1 GTP         0.2010
     40 H1'         1.7826    1.9024    1.6451 H         1 GTP        -0.0393
     41 H8         -0.3766    3.3075    1.9750 H         1 GTP         0.0000
     42 HN1        -0.8580    4.1049   -4.4138 H         1 GTP         0.0865
     43 HN21        1.5490    1.5963   -4.5827 H         1 GTP         0.2048
     44 HN22        0.5109    2.7205   -5.4321 H         1 GTP         0.2048
     45 H45        -1.7420    4.8034    0.4575 H         1 GTP         0.2048
@<TRIPOS>BOND
     1    1    2 2
     2    1    3 1
     3    1    4 1
     4    1    5 1
     5    5    6 1
     6    6    7 2
     7    6    8 1
     8    6    9 1
     9    9   10 1
    10   10   11 2
    11   10   12 1
    12   10   13 1
    13   13   14 1
    14   14   15 1
    15   14   33 1
    16   14   34 1
    17   15   16 1
    18   15   17 1
    19   15   35 1
    20   16   21 1
    21   17   18 1
    22   17   19 1
    23   17   36 1
    24   18   37 1
    25   19   20 1
    26   19   21 1
    27   19   38 1
    28   20   39 1
    29   21   22 1
    30   21   40 1
    31   22   23 ar
    32   22   32 ar
    33   23   24 ar
    34   23   41 1
    35   24   25 ar
    36   24   45 1
    37   25   26 ar
    38   25   32 ar
    39   26   27 2
    40   26   28 ar
    41   28   29 ar
    42   28   42 1
    43   29   30 1
    44   29   31 ar
    45   30   43 1
    46   30   44 1
    47   31   32 ar
@<TRIPOS>SUBSTRUCTURE
     1 GTP         1 GROUP 0 A     ****
@<TRIPOS>MOLECULE
[[[5-(2-amino-6-oxo-7,8-dihydro-1~{H}-purin-8-ylium-9-yl)-3,4-dihydroxy-tetrahydrofuran-2-yl]methoxy-oxido-phosphoryl]oxy-oxido-phosphoryl] phosphate
   45    47     1     0     0
SMALL
USER_CHARGES

@<TRIPOS>ATOM
      1 PG          7.8803   -2.3514    1.3536 P.3       1 GTP        -1.1921
      2 O1G         8.8917   -1.3540    0.7982 O.co2     1 GTP         0.3195
      3 O2G         7.3348   -1.9927    2.7318 O.co2     1 GTP         0.3195
      4 O3G         8.2945   -3.8116    1.2048 O.co2     1 GTP         0.3195
      5 O3B         6.5778   -2.2077    0.3522 O.3       1 GTP         0.4672
      6 PB          6.4604   -2.4473   -1.2595 P.3       1 GTP        -1.1062
      7 O1B         7.2958   -1.4051   -1.9690 O.co2     1 GTP         0.3195
      8 O2B         6.6183   -3.9225   -1.5535 O.co2     1 GTP         0.3195
      9 O3A         4.8769   -2.1037   -1.4595 O.3       1 GTP         0.4672
     10 PA          3.9665   -2.1124   -2.8163 P.3       1 GTP        -1.1062
     11 O1A         4.4633   -1.0128   -3.7294 O.co2     1 GTP         0.3195
     12 O2A         3.8288   -3.5360   -3.3105 O.co2     1 GTP         0.3195
     13 O5'         2.5245   -1.6648   -2.1878 O.3       1 GTP         0.1618
     14 C5'         2.2816   -0.2918   -1.9206 C.3       1 GTP         0.1504
     15 C4'         2.7248    0.0226   -0.4980 C.3       1 GTP         0.1111
     16 O4'         2.4697    1.4219   -0.2462 O.3       1 GTP        -0.1436
     17 C3'         1.9404   -0.7419    0.5596 C.3       1 GTP         0.1111
     18 O3'         2.7418   -0.8086    1.7389 O.3       1 GTP        -0.2728
     19 C2'         0.7477    0.1630    0.7858 C.3       1 GTP         0.1111
     20 O2'         0.1373   -0.0577    2.0407 O.3       1 GTP        -0.2728
     21 C1'         1.3733    1.5427    0.6747 C.3       1 GTP         0.2693
     22 N9          0.4520    2.5240    0.1767 N.pl3     1 GTP        -0.3222
     23 C8          0.2203    2.8205   -1.0970 C.ar      1 GTP         0.1640
     24 N7         -0.6947    3.7752   -1.2304 N.pl3     1 GTP        -0.3688
     25 C5         -1.0607    4.0987    0.0476 C.ar      1 GTP         0.0648
     26 C6         -2.0310    5.0839    0.5029 C.ar      1 GTP         0.3597
     27 O6         -2.6779    5.7867   -0.2609 O.2       1 GTP        -0.2755
     28 N1         -2.1030    5.0975    1.8948 N.pl3     1 GTP        -0.1604
     29 C2         -1.3422    4.2721    2.7403 C.ar      1 GTP         0.4468
     30 N2         -1.5624    4.4419    4.0823 N.pl3     1 GTP        -0.5618
     31 N3         -0.4796    3.3981    2.2792 N.2       1 GTP        -0.4283
     32 C4         -0.3754    3.3496    0.9208 C.ar      1 GTP         0.2226
     33 H5'         2.8432    0.3119   -2.6398 H         1 GTP        -0.0393
     34 H5''        1.2128   -0.0927   -2.0428 H         1 GTP        -0.0393
     35 H4'         3.8044   -0.1397   -0.4040 H         1 GTP        -0.0393
     36 H3'         1.6764   -1.7639    0.2728 H         1 GTP        -0.0393
     37 HO3'        2.2232   -1.2979    2.3953 H         1 GTP         0.2010
     38 H2'        -0.0011    0.0027    0.0003 H         1 GTP        -0.0393
     39 HO2'       -0.6141    0.5574    2.1082 H         1 GTP         0.2010
     40 H1'         1.7826    1.9024    1.6451 H         1 GTP        -0.0393
     41 H8          0.7110    2.3472   -1.9295 H         1 GTP         0.0000
     42 HN1        -2.7504    5.7495    2.3282 H         1 GTP         0.0865
     43 HN21       -1.0467    3.8796    4.7190 H         1 GTP         0.2048
     44 HN22       -2.2294    5.1209    4.3680 H         1 GTP         0.2048
     45 H45        -1.0382    4.1687   -2.0954 H         1 GTP         0.2048
@<TRIPOS>BOND
     1    1    2 2
     2    1    3 1
     3    1    4 1
     4    1    5 1
     5    5    6 1
     6    6    7 2
     7    6    8 1
     8    6    9 1
     9    9   10 1
    10   10   11 2
    11   10   12 1
    12   10   13 1
    13   13   14 1
    14   14   15 1
    15   14   33 1
    16   14   34 1
    17   15   16 1
    18   15   17 1
    19   15   35 1
    20   16   21 1
    21   17   18 1
    22   17   19 1
    23   17   36 1
    24   18   37 1
    25   19   20 1
    26   19   21 1
    27   19   38 1
    28   20   39 1
    29   21   22 1
    30   21   40 1
    31   22   23 ar
    32   22   32 ar
    33   23   24 ar
    34   23   41 1
    35   24   25 ar
    36   24   45 1
    37   25   26 ar
    38   25   32 ar
    39   26   27 2
    40   26   28 ar
    41   28   29 ar
    42   28   42 1
    43   29   30 1
    44   29   31 ar
    45   30   43 1
    46   30   44 1
    47   31   32 ar
@<TRIPOS>SUBSTRUCTURE
     1 GTP         1 GROUP 0 A     ****
@<TRIPOS>MOLECULE
[[[5-(2-amino-6-oxo-7,8-dihydro-1~{H}-purin-8-ylium-9-yl)-3,4-dihydroxy-tetrahydrofuran-2-yl]methoxy-oxido-phosphoryl]oxy-oxido-phosphoryl] phosphate
   45    47     1     0     0
SMALL
USER_CHARGES

@<TRIPOS>ATOM
      1 PG         -2.9160   -9.5701   -0.0660 P.3       1 GTP        -1.1921
      2 O1G        -2.2344   -8.9791   -1.2956 O.co2     1 GTP         0.3195
      3 O2G        -2.1975  -10.7741    0.5338 O.co2     1 GTP         0.3195
      4 O3G        -4.4236   -9.7492   -0.2112 O.co2     1 GTP         0.3195
      5 O3B        -2.7680   -8.3962    1.0828 O.3       1 GTP         0.4672
      6 PB         -3.3103   -6.8551    1.0860 P.3       1 GTP        -1.1062
      7 O1B        -2.5879   -6.0824    0.0050 O.co2     1 GTP         0.3195
      8 O2B        -4.8197   -6.8616    1.1799 O.co2     1 GTP         0.3195
      9 O3A        -2.7587   -6.3876    2.5499 O.3       1 GTP         0.4672
     10 PA         -1.2298   -6.3297    3.1234 P.3       1 GTP        -1.1062
     11 O1A        -1.2579   -5.6749    4.4872 O.co2     1 GTP         0.3195
     12 O2A        -0.5727   -7.6772    2.9167 O.co2     1 GTP         0.3195
     13 O5'        -0.5687   -5.2869    2.0510 O.3       1 GTP         0.1618
     14 C5'        -0.7840   -3.8935    2.2172 C.3       1 GTP         0.1504
     15 C4'        -0.0724   -3.1466    1.1027 C.3       1 GTP         0.1111
     16 O4'        -0.8674   -3.1929   -0.0945 O.3       1 GTP        -0.1436
     17 C3'         0.1338   -1.6715    1.4027 C.3       1 GTP         0.1111
     18 O3'         1.2893   -1.4445    2.1808 O.3       1 GTP        -0.2728
     19 C2'         0.2158   -1.0724    0.0128 C.3       1 GTP         0.1111
     20 O2'         1.5141   -1.2448   -0.5513 O.3       1 GTP        -0.2728
     21 C1'        -0.7897   -1.9176   -0.7583 C.3       1 GTP         0.2693
     22 N9         -2.1040   -1.3333   -0.7704 N.pl3     1 GTP        -0.3222
     23 C8         -3.0597   -1.5109    0.1345 C.ar      1 GTP         0.1640
     24 N7         -4.1618   -0.8291   -0.1607 N.pl3     1 GTP        -0.3688
     25 C5         -3.8764   -0.1805   -1.3310 C.ar      1 GTP         0.0648
     26 C6         -4.7187    0.7111   -2.1152 C.ar      1 GTP         0.3597
     27 O6         -5.8617    1.0043   -1.7939 O.2       1 GTP        -0.2755
     28 N1         -4.0405    1.1608   -3.2468 N.pl3     1 GTP        -0.1604
     29 C2         -2.7239    0.8013   -3.5822 C.ar      1 GTP         0.4468
     30 N2         -2.2399    1.3534   -4.7394 N.pl3     1 GTP        -0.5618
     31 N3         -2.0053   -0.0071   -2.8402 N.2       1 GTP        -0.4283
     32 C4         -2.6290   -0.4727   -1.7210 C.ar      1 GTP         0.2226
     33 H5'        -1.8598   -3.6968    2.1850 H         1 GTP        -0.0393
     34 H5''       -0.3933   -3.5903    3.1931 H         1 GTP        -0.0393
     35 H4'         0.8874   -3.6466    0.8805 H         1 GTP        -0.0393
     36 H3'        -0.7376   -1.2333    1.9867 H         1 GTP        -0.0393
     37 HO3'        1.3408   -0.4870    2.3219 H         1 GTP         0.2010
     38 H2'        -0.0384   -0.0310    0.0096 H         1 GTP        -0.0393
     39 HO2'        2.1463   -0.7958    0.0370 H         1 GTP         0.2010
     40 H1'        -0.4769   -2.1002   -1.8093 H         1 GTP        -0.0393
     41 H8         -2.9610   -2.1316    1.0079 H         1 GTP         0.0000
     42 HN1        -4.5320    1.7923   -3.8726 H         1 GTP         0.0865
     43 HN21       -1.3128    1.1277   -5.0171 H         1 GTP         0.2048
     44 HN22       -2.8342    1.9586   -5.2572 H         1 GTP         0.2048
     45 H45        -5.0195   -0.8034    0.3729 H         1 GTP         0.2048
@<TRIPOS>BOND
     1    1    2 2
     2    1    3 1
     3    1    4 1
     4    1    5 1
     5    5    6 1
     6    6    7 2
     7    6    8 1
     8    6    9 1
     9    9   10 1
    10   10   11 2
    11   10   12 1
    12   10   13 1
    13   13   14 1
    14   14   15 1
    15   14   33 1
    16   14   34 1
    17   15   16 1
    18   15   17 1
    19   15   35 1
    20   16   21 1
    21   17   18 1
    22   17   19 1
    23   17   36 1
    24   18   37 1
    25   19   20 1
    26   19   21 1
    27   19   38 1
    28   20   39 1
    29   21   22 1
    30   21   40 1
    31   22   23 ar
    32   22   32 ar
    33   23   24 ar
    34   23   41 1
    35   24   25 ar
    36   24   45 1
    37   25   26 ar
    38   25   32 ar
    39   26   27 2
    40   26   28 ar
    41   28   29 ar
    42   28   42 1
    43   29   30 1
    44   29   31 ar
    45   30   43 1
    46   30   44 1
    47   31   32 ar
@<TRIPOS>SUBSTRUCTURE
     1 GTP         1 GROUP 0 A     ****
@<TRIPOS>MOLECULE
[[[5-(2-amino-6-oxo-7,8-dihydro-1~{H}-purin-8-ylium-9-yl)-3,4-dihydroxy-tetrahydrofuran-2-yl]methoxy-oxido-phosphoryl]oxy-oxido-phosphoryl] phosphate
   45    47     1     0     0
SMALL
USER_CHARGES

@<TRIPOS>ATOM
      1 PG          0.8098   -3.5565   -5.0985 P.3       1 GTP        -1.1921
      2 O1G        -0.6922   -3.3168   -5.2103 O.co2     1 GTP         0.3195
      3 O2G         1.2612   -4.9412   -5.5505 O.co2     1 GTP         0.3195
      4 O3G         1.4203   -3.0992   -3.7778 O.co2     1 GTP         0.3195
      5 O3B         1.4674   -2.5325   -6.2116 O.3       1 GTP         0.4672
      6 PB          1.3777   -0.9051   -6.3239 P.3       1 GTP        -1.1062
      7 O1B         2.2753   -0.4446   -7.4507 O.co2     1 GTP         0.3195
      8 O2B        -0.0723   -0.4825   -6.2439 O.co2     1 GTP         0.3195
      9 O3A         2.0542   -0.5072   -4.8922 O.3       1 GTP         0.4672
     10 PA          2.3343    0.9640   -4.2391 P.3       1 GTP        -1.1062
     11 O1A         3.3728    1.6695   -5.0839 O.co2     1 GTP         0.3195
     12 O2A         1.0104    1.6224   -3.9169 O.co2     1 GTP         0.3195
     13 O5'         3.0213    0.5153   -2.8245 O.3       1 GTP         0.1618
     14 C5'         2.2816   -0.2918   -1.9206 C.3       1 GTP         0.1504
     15 C4'         2.7248    0.0226   -0.4980 C.3       1 GTP         0.1111
     16 O4'         2.4697    1.4219   -0.2462 O.3       1 GTP        -0.1436
     17 C3'         1.9404   -0.7419    0.5596 C.3       1 GTP         0.1111
     18 O3'         2.7418   -0.8086    1.7389 O.3       1 GTP        -0.2728
     19 C2'         0.7477    0.1630    0.7858 C.3       1 GTP         0.1111
     20 O2'         0.1373   -0.0577    2.0407 O.3       1 GTP        -0.2728
     21 C1'         1.3733    1.5427    0.6747 C.3       1 GTP         0.2693
     22 N9          0.4520    2.5240    0.1767 N.pl3     1 GTP        -0.3222
     23 C8         -0.8613    2.5511    0.3730 C.ar      1 GTP         0.1640
     24 N7         -1.4346    3.5939   -0.2188 N.pl3     1 GTP        -0.3688
     25 C5         -0.4099    4.2657   -0.8276 C.ar      1 GTP         0.0648
     26 C6         -0.4554    5.4854   -1.6209 C.ar      1 GTP         0.3597
     27 O6         -1.4907    6.0944   -1.8508 O.2       1 GTP        -0.2755
     28 N1          0.8205    5.8357   -2.0593 N.pl3     1 GTP        -0.1604
     29 C2          1.9890    5.1091   -1.7730 C.ar      1 GTP         0.4468
     30 N2          3.1452    5.6230   -2.2997 N.pl3     1 GTP        -0.5618
     31 N3          1.9765    4.0139   -1.0514 N.2       1 GTP        -0.4283
     32 C4          0.7480    3.6324   -0.6003 C.ar      1 GTP         0.2226
     33 H5'         1.2163   -0.0770   -2.0471 H         1 GTP        -0.0393
     34 H5''        2.4655   -1.3443   -2.1563 H         1 GTP        -0.0393
     35 H4'         3.8044   -0.1397   -0.4040 H         1 GTP        -0.0393
     36 H3'         1.6764   -1.7639    0.2728 H         1 GTP        -0.0393
     37 HO3'        2.2232   -1.2979    2.3953 H         1 GTP         0.2010
     38 H2'        -0.0011    0.0027    0.0003 H         1 GTP        -0.0393
     39 HO2'       -0.1563   -0.9855    2.0596 H         1 GTP         0.2010
     40 H1'         1.7826    1.9024    1.6451 H         1 GTP        -0.0393
     41 H8         -1.4050    1.8187    0.9438 H         1 GTP         0.0000
     42 HN1         0.9121    6.6744   -2.6251 H         1 GTP         0.0865
     43 HN21        3.9971    5.1427   -2.1235 H         1 GTP         0.2048
     44 HN22        3.0881    6.4564   -2.8380 H         1 GTP         0.2048
     45 H45        -2.4173    3.8294   -0.2127 H         1 GTP         0.2048
@<TRIPOS>BOND
     1    1    2 2
     2    1    3 1
     3    1    4 1
     4    1    5 1
     5    5    6 1
     6    6    7 2
     7    6    8 1
     8    6    9 1
     9    9   10 1
    10   10   11 2
    11   10   12 1
    12   10   13 1
    13   13   14 1
    14   14   15 1
    15   14   33 1
    16   14   34 1
    17   15   16 1
    18   15   17 1
    19   15   35 1
    20   16   21 1
    21   17   18 1
    22   17   19 1
    23   17   36 1
    24   18   37 1
    25   19   20 1
    26   19   21 1
    27   19   38 1
    28   20   39 1
    29   21   22 1
    30   21   40 1
    31   22   23 ar
    32   22   32 ar
    33   23   24 ar
    34   23   41 1
    35   24   25 ar
    36   24   45 1
    37   25   26 ar
    38   25   32 ar
    39   26   27 2
    40   26   28 ar
    41   28   29 ar
    42   28   42 1
    43   29   30 1
    44   29   31 ar
    45   30   43 1
    46   30   44 1
    47   31   32 ar
@<TRIPOS>SUBSTRUCTURE
     1 GTP         1 GROUP 0 A     ****
@<TRIPOS>MOLECULE
[[[5-(2-amino-6-oxo-7,8-dihydro-1~{H}-purin-8-ylium-9-yl)-3,4-dihydroxy-tetrahydrofuran-2-yl]methoxy-oxido-phosphoryl]oxy-oxido-phosphoryl] phosphate
   45    47     1     0     0
SMALL
USER_CHARGES

@<TRIPOS>ATOM
      1 PG         -5.0160   -5.4963    6.8502 P.3       1 GTP        -1.1921
      2 O1G        -5.3449   -6.9704    7.0617 O.co2     1 GTP         0.3195
      3 O2G        -4.1313   -4.8875    7.9329 O.co2     1 GTP         0.3195
      4 O3G        -6.2152   -4.6363    6.4648 O.co2     1 GTP         0.3195
      5 O3B        -4.0708   -5.4819    5.4989 O.3       1 GTP         0.4672
      6 PB         -4.3993   -5.9907    3.9816 P.3       1 GTP        -1.1062
      7 O1B        -4.5890   -7.4911    4.0016 O.co2     1 GTP         0.3195
      8 O2B        -5.4282   -5.0710    3.3629 O.co2     1 GTP         0.3195
      9 O3A        -2.9734   -5.6321    3.2719 O.3       1 GTP         0.4672
     10 PA         -2.4913   -5.8423    1.7249 P.3       1 GTP        -1.1062
     11 O1A        -2.4139   -7.3280    1.4486 O.co2     1 GTP         0.3195
     12 O2A        -3.2901   -4.9213    0.8284 O.co2     1 GTP         0.3195
     13 O5'        -0.9724   -5.2440    1.8220 O.3       1 GTP         0.1618
     14 C5'        -0.7840   -3.8935    2.2172 C.3       1 GTP         0.1504
     15 C4'        -0.0724   -3.1466    1.1027 C.3       1 GTP         0.1111
     16 O4'        -0.8674   -3.1929   -0.0945 O.3       1 GTP        -0.1436
     17 C3'         0.1338   -1.6715    1.4027 C.3       1 GTP         0.1111
     18 O3'         1.2893   -1.4445    2.1808 O.3       1 GTP        -0.2728
     19 C2'         0.2158   -1.0724    0.0128 C.3       1 GTP         0.1111
     20 O2'         1.5141   -1.2448   -0.5513 O.3       1 GTP        -0.2728
     21 C1'        -0.7897   -1.9176   -0.7583 C.3       1 GTP         0.2693
     22 N9         -2.1040   -1.3333   -0.7704 N.pl3     1 GTP        -0.3222
     23 C8         -3.0597   -1.5109    0.1345 C.ar      1 GTP         0.1640
     24 N7         -4.1618   -0.8291   -0.1607 N.pl3     1 GTP        -0.3688
     25 C5         -3.8764   -0.1805   -1.3310 C.ar      1 GTP         0.0648
     26 C6         -4.7187    0.7111   -2.1152 C.ar      1 GTP         0.3597
     27 O6         -5.8617    1.0043   -1.7939 O.2       1 GTP        -0.2755
     28 N1         -4.0405    1.1608   -3.2468 N.pl3     1 GTP        -0.1604
     29 C2         -2.7239    0.8013   -3.5822 C.ar      1 GTP         0.4468
     30 N2         -2.2399    1.3534   -4.7394 N.pl3     1 GTP        -0.5618
     31 N3         -2.0053   -0.0071   -2.8402 N.2       1 GTP        -0.4283
     32 C4         -2.6290   -0.4727   -1.7210 C.ar      1 GTP         0.2226
     33 H5'        -1.7618   -3.4448    2.4164 H         1 GTP        -0.0393
     34 H5''       -0.1874   -3.8744    3.1341 H         1 GTP        -0.0393
     35 H4'         0.8874   -3.6466    0.8805 H         1 GTP        -0.0393
     36 H3'        -0.7376   -1.2333    1.9867 H         1 GTP        -0.0393
     37 HO3'        1.3408   -0.4870    2.3219 H         1 GTP         0.2010
     38 H2'        -0.0384   -0.0310    0.0096 H         1 GTP        -0.0393
     39 HO2'        2.1463   -0.7958    0.0370 H         1 GTP         0.2010
     40 H1'        -0.4769   -2.1002   -1.8093 H         1 GTP        -0.0393
     41 H8         -2.9610   -2.1316    1.0079 H         1 GTP         0.0000
     42 HN1        -4.5320    1.7923   -3.8726 H         1 GTP         0.0865
     43 HN21       -1.3128    1.1277   -5.0171 H         1 GTP         0.2048
     44 HN22       -2.8342    1.9586   -5.2572 H         1 GTP         0.2048
     45 H45        -5.0195   -0.8034    0.3729 H         1 GTP         0.2048
@<TRIPOS>BOND
     1    1    2 2
     2    1    3 1
     3    1    4 1
     4    1    5 1
     5    5    6 1
     6    6    7 2
     7    6    8 1
     8    6    9 1
     9    9   10 1
    10   10   11 2
    11   10   12 1
    12   10   13 1
    13   13   14 1
    14   14   15 1
    15   14   33 1
    16   14   34 1
    17   15   16 1
    18   15   17 1
    19   15   35 1
    20   16   21 1
    21   17   18 1
    22   17   19 1
    23   17   36 1
    24   18   37 1
    25   19   20 1
    26   19   21 1
    27   19   38 1
    28   20   39 1
    29   21   22 1
    30   21   40 1
    31   22   23 ar
    32   22   32 ar
    33   23   24 ar
    34   23   41 1
    35   24   25 ar
    36   24   45 1
    37   25   26 ar
    38   25   32 ar
    39   26   27 2
    40   26   28 ar
    41   28   29 ar
    42   28   42 1
    43   29   30 1
    44   29   31 ar
    45   30   43 1
    46   30   44 1
    47   31   32 ar
@<TRIPOS>SUBSTRUCTURE
     1 GTP         1 GROUP 0 A     ****
@<TRIPOS>MOLECULE
[[[5-(2-amino-6-oxo-7,8-dihydro-1~{H}-purin-8-ylium-9-yl)-3,4-dihydroxy-tetrahydrofuran-2-yl]methoxy-oxido-phosphoryl]oxy-oxido-phosphoryl] phosphate
   45    47     1     0     0
SMALL
USER_CHARGES

@<TRIPOS>ATOM
      1 PG          3.7800   -6.0613    3.6625 P.3       1 GTP        -1.1921
      2 O1G         3.0369   -5.3735    2.5221 O.co2     1 GTP         0.3195
      3 O2G         4.8694   -5.2106    4.3069 O.co2     1 GTP         0.3195
      4 O3G         4.2024   -7.4951    3.3598 O.co2     1 GTP         0.3195
      5 O3B         2.6427   -6.2272    4.8452 O.3       1 GTP         0.4672
      6 PB          1.2149   -7.0210    4.8257 P.3       1 GTP        -1.1062
      7 O1B         1.4596   -8.4528    4.4044 O.co2     1 GTP         0.3195
      8 O2B         0.4455   -6.6868    6.0842 O.co2     1 GTP         0.3195
      9 O3A         0.4842   -6.2133    3.6096 O.3       1 GTP         0.4672
     10 PA         -1.0041   -6.4128    2.9654 P.3       1 GTP        -1.1062
     11 O1A        -1.0498   -7.7624    2.2826 O.co2     1 GTP         0.3195
     12 O2A        -2.0442   -6.0209    3.9924 O.co2     1 GTP         0.3195
     13 O5'        -0.9724   -5.2440    1.8220 O.3       1 GTP         0.1618
     14 C5'        -0.7840   -3.8935    2.2172 C.3       1 GTP         0.1504
     15 C4'        -0.0724   -3.1466    1.1027 C.3       1 GTP         0.1111
     16 O4'        -0.8674   -3.1929   -0.0945 O.3       1 GTP        -0.1436
     17 C3'         0.1338   -1.6715    1.4027 C.3       1 GTP         0.1111
     18 O3'         1.2893   -1.4445    2.1808 O.3       1 GTP        -0.2728
     19 C2'         0.2158   -1.0724    0.0128 C.3       1 GTP         0.1111
     20 O2'         1.5141   -1.2448   -0.5513 O.3       1 GTP        -0.2728
     21 C1'        -0.7897   -1.9176   -0.7583 C.3       1 GTP         0.2693
     22 N9         -2.1040   -1.3333   -0.7704 N.pl3     1 GTP        -0.3222
     23 C8         -3.0597   -1.5109    0.1345 C.ar      1 GTP         0.1640
     24 N7         -4.1618   -0.8291   -0.1607 N.pl3     1 GTP        -0.3688
     25 C5         -3.8764   -0.1805   -1.3310 C.ar      1 GTP         0.0648
     26 C6         -4.7187    0.7111   -2.1152 C.ar      1 GTP         0.3597
     27 O6         -5.8617    1.0043   -1.7939 O.2       1 GTP        -0.2755
     28 N1         -4.0405    1.1608   -3.2468 N.pl3     1 GTP        -0.1604
     29 C2         -2.7239    0.8013   -3.5822 C.ar      1 GTP         0.4468
     30 N2         -2.2399    1.3534   -4.7394 N.pl3     1 GTP        -0.5618
     31 N3         -2.0053   -0.0071   -2.8402 N.2       1 GTP        -0.4283
     32 C4         -2.6290   -0.4727   -1.7210 C.ar      1 GTP         0.2226
     33 H5'        -1.7618   -3.4448    2.4164 H         1 GTP        -0.0393
     34 H5''       -0.1874   -3.8744    3.1341 H         1 GTP        -0.0393
     35 H4'         0.8874   -3.6466    0.8805 H         1 GTP        -0.0393
     36 H3'        -0.7376   -1.2333    1.9867 H         1 GTP        -0.0393
     37 HO3'        1.3408   -0.4870    2.3219 H         1 GTP         0.2010
     38 H2'        -0.0384   -0.0310    0.0096 H         1 GTP        -0.0393
     39 HO2'        2.1463   -0.7958    0.0370 H         1 GTP         0.2010
     40 H1'        -0.4769   -2.1002   -1.8093 H         1 GTP        -0.0393
     41 H8         -2.9610   -2.1316    1.0079 H         1 GTP         0.0000
     42 HN1        -4.5320    1.7923   -3.8726 H         1 GTP         0.0865
     43 HN21       -1.3128    1.1277   -5.0171 H         1 GTP         0.2048
     44 HN22       -2.8342    1.9586   -5.2572 H         1 GTP         0.2048
     45 H45        -5.0195   -0.8034    0.3729 H         1 GTP         0.2048
@<TRIPOS>BOND
     1    1    2 2
     2    1    3 1
     3    1    4 1
     4    1    5 1
     5    5    6 1
     6    6    7 2
     7    6    8 1
     8    6    9 1
     9    9   10 1
    10   10   11 2
    11   10   12 1
    12   10   13 1
    13   13   14 1
    14   14   15 1
    15   14   33 1
    16   14   34 1
    17   15   16 1
    18   15   17 1
    19   15   35 1
    20   16   21 1
    21   17   18 1
    22   17   19 1
    23   17   36 1
    24   18   37 1
    25   19   20 1
    26   19   21 1
    27   19   38 1
    28   20   39 1
    29   21   22 1
    30   21   40 1
    31   22   23 ar
    32   22   32 ar
    33   23   24 ar
    34   23   41 1
    35   24   25 ar
    36   24   45 1
    37   25   26 ar
    38   25   32 ar
    39   26   27 2
    40   26   28 ar
    41   28   29 ar
    42   28   42 1
    43   29   30 1
    44   29   31 ar
    45   30   43 1
    46   30   44 1
    47   31   32 ar
@<TRIPOS>SUBSTRUCTURE
     1 GTP         1 GROUP 0 A     ****
@<TRIPOS>MOLECULE
[[[5-(2-amino-6-oxo-7,8-dihydro-1~{H}-purin-8-ylium-9-yl)-3,4-dihydroxy-tetrahydrofuran-2-yl]methoxy-oxido-phosphoryl]oxy-oxido-phosphoryl] phosphate
   45    47     1     0     0
SMALL
USER_CHARGES

@<TRIPOS>ATOM
      1 PG          3.0749   -7.8442    5.5490 P.3       1 GTP        -1.1921
      2 O1G         4.0821   -7.0084    4.7663 O.co2     1 GTP         0.3195
      3 O2G         3.0560   -7.5653    7.0482 O.co2     1 GTP         0.3195
      4 O3G         3.0759   -9.3260    5.1879 O.co2     1 GTP         0.3195
      5 O3B         1.6071   -7.3109    5.0190 O.3       1 GTP         0.4672
      6 PB          0.9703   -7.3099    3.5145 P.3       1 GTP        -1.1062
      7 O1B         1.7798   -6.3747    2.6439 O.co2     1 GTP         0.3195
      8 O2B         0.6878   -8.7353    3.0955 O.co2     1 GTP         0.3195
      9 O3A        -0.4769   -6.6301    3.8443 O.3       1 GTP         0.4672
     10 PA         -1.7206   -6.2776    2.8449 P.3       1 GTP        -1.1062
     11 O1A        -2.0911   -7.5330    2.0857 O.co2     1 GTP         0.3195
     12 O2A        -2.7624   -5.4909    3.6102 O.co2     1 GTP         0.3195
     13 O5'        -0.9724   -5.2440    1.8220 O.3       1 GTP         0.1618
     14 C5'        -0.7840   -3.8935    2.2172 C.3       1 GTP         0.1504
     15 C4'        -0.0724   -3.1466    1.1027 C.3       1 GTP         0.1111
     16 O4'        -0.8674   -3.1929   -0.0945 O.3       1 GTP        -0.1436
     17 C3'         0.1338   -1.6715    1.4027 C.3       1 GTP         0.1111
     18 O3'         1.2893   -1.4445    2.1808 O.3       1 GTP        -0.2728
     19 C2'         0.2158   -1.0724    0.0128 C.3       1 GTP         0.1111
     20 O2'         1.5141   -1.2448   -0.5513 O.3       1 GTP        -0.2728
     21 C1'        -0.7897   -1.9176   -0.7583 C.3       1 GTP         0.2693
     22 N9         -2.1040   -1.3333   -0.7704 N.pl3     1 GTP        -0.3222
     23 C8         -3.0597   -1.5109    0.1345 C.ar      1 GTP         0.1640
     24 N7         -4.1618   -0.8291   -0.1607 N.pl3     1 GTP        -0.3688
     25 C5         -3.8764   -0.1805   -1.3310 C.ar      1 GTP         0.0648
     26 C6         -4.7187    0.7111   -2.1152 C.ar      1 GTP         0.3597
     27 O6         -5.8617    1.0043   -1.7939 O.2       1 GTP        -0.2755
     28 N1         -4.0405    1.1608   -3.2468 N.pl3     1 GTP        -0.1604
     29 C2         -2.7239    0.8013   -3.5822 C.ar      1 GTP         0.4468
     30 N2         -2.2399    1.3534   -4.7394 N.pl3     1 GTP        -0.5618
     31 N3         -2.0053   -0.0071   -2.8402 N.2       1 GTP        -0.4283
     32 C4         -2.6290   -0.4727   -1.7210 C.ar      1 GTP         0.2226
     33 H5'        -1.7618   -3.4448    2.4164 H         1 GTP        -0.0393
     34 H5''       -0.1874   -3.8744    3.1341 H         1 GTP        -0.0393
     35 H4'         0.8874   -3.6466    0.8805 H         1 GTP        -0.0393
     36 H3'        -0.7376   -1.2333    1.9867 H         1 GTP        -0.0393
     37 HO3'        1.3408   -0.4870    2.3219 H         1 GTP         0.2010
     38 H2'        -0.0384   -0.0310    0.0096 H         1 GTP        -0.0393
     39 HO2'        2.1463   -0.7958    0.0370 H         1 GTP         0.2010
     40 H1'        -0.4769   -2.1002   -1.8093 H         1 GTP        -0.0393
     41 H8         -2.9610   -2.1316    1.0079 H         1 GTP         0.0000
     42 HN1        -4.5320    1.7923   -3.8726 H         1 GTP         0.0865
     43 HN21       -1.3128    1.1277   -5.0171 H         1 GTP         0.2048
     44 HN22       -2.8342    1.9586   -5.2572 H         1 GTP         0.2048
     45 H45        -5.0195   -0.8034    0.3729 H         1 GTP         0.2048
@<TRIPOS>BOND
     1    1    2 2
     2    1    3 1
     3    1    4 1
     4    1    5 1
     5    5    6 1
     6    6    7 2
     7    6    8 1
     8    6    9 1
     9    9   10 1
    10   10   11 2
    11   10   12 1
    12   10   13 1
    13   13   14 1
    14   14   15 1
    15   14   33 1
    16   14   34 1
    17   15   16 1
    18   15   17 1
    19   15   35 1
    20   16   21 1
    21   17   18 1
    22   17   19 1
    23   17   36 1
    24   18   37 1
    25   19   20 1
    26   19   21 1
    27   19   38 1
    28   20   39 1
    29   21   22 1
    30   21   40 1
    31   22   23 ar
    32   22   32 ar
    33   23   24 ar
    34   23   41 1
    35   24   25 ar
    36   24   45 1
    37   25   26 ar
    38   25   32 ar
    39   26   27 2
    40   26   28 ar
    41   28   29 ar
    42   28   42 1
    43   29   30 1
    44   29   31 ar
    45   30   43 1
    46   30   44 1
    47   31   32 ar
@<TRIPOS>SUBSTRUCTURE
     1 GTP         1 GROUP 0 A     ****
@<TRIPOS>MOLECULE
[[[5-(2-amino-6-oxo-7,8-dihydro-1~{H}-purin-8-ylium-9-yl)-3,4-dihydroxy-tetrahydrofuran-2-yl]methoxy-oxido-phosphoryl]oxy-oxido-phosphoryl] phosphate
   45    47     1     0     0
SMALL
USER_CHARGES

@<TRIPOS>ATOM
      1 PG          5.3468   -5.3354   -4.5223 P.3       1 GTP        -1.1921
      2 O1G         5.7207   -5.4666   -3.0496 O.co2     1 GTP         0.3195
      3 O2G         4.3924   -6.4123   -5.0274 O.co2     1 GTP         0.3195
      4 O3G         6.5289   -5.0630   -5.4467 O.co2     1 GTP         0.3195
      5 O3B         4.4629   -3.9448   -4.5935 O.3       1 GTP         0.4672
      6 PB          4.8777   -2.4150   -4.1978 P.3       1 GTP        -1.1062
      7 O1B         5.1223   -2.3471   -2.7067 O.co2     1 GTP         0.3195
      8 O2B         5.8982   -1.9060   -5.1912 O.co2     1 GTP         0.3195
      9 O3A         3.4725   -1.6636   -4.5533 O.3       1 GTP         0.4672
     10 PA          3.0683   -0.0853   -4.4294 P.3       1 GTP        -1.1062
     11 O1A         4.0982    0.7298   -5.1807 O.co2     1 GTP         0.3195
     12 O2A         1.5900    0.0704   -4.7130 O.co2     1 GTP         0.3195
     13 O5'         3.2903    0.1346   -2.8241 O.3       1 GTP         0.1618
     14 C5'         2.2816   -0.2918   -1.9206 C.3       1 GTP         0.1504
     15 C4'         2.7248    0.0226   -0.4980 C.3       1 GTP         0.1111
     16 O4'         2.4697    1.4219   -0.2462 O.3       1 GTP        -0.1436
     17 C3'         1.9404   -0.7419    0.5596 C.3       1 GTP         0.1111
     18 O3'         2.7418   -0.8086    1.7389 O.3       1 GTP        -0.2728
     19 C2'         0.7477    0.1630    0.7858 C.3       1 GTP         0.1111
     20 O2'         0.1373   -0.0577    2.0407 O.3       1 GTP        -0.2728
     21 C1'         1.3733    1.5427    0.6747 C.3       1 GTP         0.2693
     22 N9          0.4520    2.5240    0.1767 N.pl3     1 GTP        -0.3222
     23 C8          0.5671    3.2221   -0.9473 C.ar      1 GTP         0.1640
     24 N7         -0.4560    4.0508   -1.1290 N.pl3     1 GTP        -0.3688
     25 C5         -1.2671    3.8585   -0.0441 C.ar      1 GTP         0.0648
     26 C6         -2.5318    4.5014    0.2817 C.ar      1 GTP         0.3597
     27 O6         -3.0527    5.3493   -0.4293 O.2       1 GTP        -0.2755
     28 N1         -3.0357    4.0149    1.4868 N.pl3     1 GTP        -0.1604
     29 C2         -2.4069    3.0373    2.2768 C.ar      1 GTP         0.4468
     30 N2         -3.0679    2.6964    3.4278 N.pl3     1 GTP        -0.5618
     31 N3         -1.2653    2.4872    1.9379 N.2       1 GTP        -0.4283
     32 C4         -0.7342    2.9334    0.7643 C.ar      1 GTP         0.2226
     33 H5'         1.3514    0.2330   -2.1577 H         1 GTP        -0.0393
     34 H5''        2.1280   -1.3678   -2.0460 H         1 GTP        -0.0393
     35 H4'         3.8044   -0.1397   -0.4040 H         1 GTP        -0.0393
     36 H3'         1.6764   -1.7639    0.2728 H         1 GTP        -0.0393
     37 HO3'        3.5554   -1.2733    1.4914 H         1 GTP         0.2010
     38 H2'        -0.0011    0.0027    0.0003 H         1 GTP        -0.0393
     39 HO2'        0.8082    0.1199    2.7232 H         1 GTP         0.2010
     40 H1'         1.7826    1.9024    1.6451 H         1 GTP        -0.0393
     41 H8          1.3888    3.1325   -1.6361 H         1 GTP         0.0000
     42 HN1        -3.9188    4.3932    1.8170 H         1 GTP         0.0865
     43 HN21       -2.6609    2.0087    4.0186 H         1 GTP         0.2048
     44 HN22       -3.9293    3.1496    3.6283 H         1 GTP         0.2048
     45 H45        -0.5938    4.6820   -1.9060 H         1 GTP         0.2048
@<TRIPOS>BOND
     1    1    2 2
     2    1    3 1
     3    1    4 1
     4    1    5 1
     5    5    6 1
     6    6    7 2
     7    6    8 1
     8    6    9 1
     9    9   10 1
    10   10   11 2
    11   10   12 1
    12   10   13 1
    13   13   14 1
    14   14   15 1
    15   14   33 1
    16   14   34 1
    17   15   16 1
    18   15   17 1
    19   15   35 1
    20   16   21 1
    21   17   18 1
    22   17   19 1
    23   17   36 1
    24   18   37 1
    25   19   20 1
    26   19   21 1
    27   19   38 1
    28   20   39 1
    29   21   22 1
    30   21   40 1
    31   22   23 ar
    32   22   32 ar
    33   23   24 ar
    34   23   41 1
    35   24   25 ar
    36   24   45 1
    37   25   26 ar
    38   25   32 ar
    39   26   27 2
    40   26   28 ar
    41   28   29 ar
    42   28   42 1
    43   29   30 1
    44   29   31 ar
    45   30   43 1
    46   30   44 1
    47   31   32 ar
@<TRIPOS>SUBSTRUCTURE
     1 GTP         1 GROUP 0 A     ****
@<TRIPOS>MOLECULE
[[[5-(2-amino-6-oxo-7,8-dihydro-1~{H}-purin-8-ylium-9-yl)-3,4-dihydroxy-tetrahydrofuran-2-yl]methoxy-oxido-phosphoryl]oxy-oxido-phosphoryl] phosphate
   45    47     1     0     0
SMALL
USER_CHARGES

@<TRIPOS>ATOM
      1 PG          0.7668    3.2268   -6.8124 P.3       1 GTP        -1.1921
      2 O1G         0.4650    4.1460   -5.6335 O.co2     1 GTP         0.3195
      3 O2G         1.9177    3.6950   -7.6965 O.co2     1 GTP         0.3195
      4 O3G        -0.4679    2.7696   -7.5821 O.co2     1 GTP         0.3195
      5 O3B         1.3297    1.8431   -6.1135 O.3       1 GTP         0.4672
      6 PB          0.6058    0.8315   -5.0543 P.3       1 GTP        -1.1062
      7 O1B         0.3879    1.5662   -3.7504 O.co2     1 GTP         0.3195
      8 O2B        -0.5235    0.1081   -5.7534 O.co2     1 GTP         0.3195
      9 O3A         1.8081   -0.2577   -4.8708 O.3       1 GTP         0.4672
     10 PA          3.3347   -0.0507   -4.3265 P.3       1 GTP        -1.1062
     11 O1A         3.9865   -1.4112   -4.2092 O.co2     1 GTP         0.3195
     12 O2A         3.9917    1.0658   -5.1088 O.co2     1 GTP         0.3195
     13 O5'         3.0213    0.5153   -2.8245 O.3       1 GTP         0.1618
     14 C5'         2.2816   -0.2918   -1.9206 C.3       1 GTP         0.1504
     15 C4'         2.7248    0.0226   -0.4980 C.3       1 GTP         0.1111
     16 O4'         2.4697    1.4219   -0.2462 O.3       1 GTP        -0.1436
     17 C3'         1.9404   -0.7419    0.5596 C.3       1 GTP         0.1111
     18 O3'         2.7418   -0.8086    1.7389 O.3       1 GTP        -0.2728
     19 C2'         0.7477    0.1630    0.7858 C.3       1 GTP         0.1111
     20 O2'         0.1373   -0.0577    2.0407 O.3       1 GTP        -0.2728
     21 C1'         1.3733    1.5427    0.6747 C.3       1 GTP         0.2693
     22 N9          0.4520    2.5240    0.1767 N.pl3     1 GTP        -0.3222
     23 C8          0.5671    3.2221   -0.9473 C.ar      1 GTP         0.1640
     24 N7         -0.4560    4.0508   -1.1290 N.pl3     1 GTP        -0.3688
     25 C5         -1.2671    3.8585   -0.0441 C.ar      1 GTP         0.0648
     26 C6         -2.5318    4.5014    0.2817 C.ar      1 GTP         0.3597
     27 O6         -3.0527    5.3493   -0.4293 O.2       1 GTP        -0.2755
     28 N1         -3.0357    4.0149    1.4868 N.pl3     1 GTP        -0.1604
     29 C2         -2.4069    3.0373    2.2768 C.ar      1 GTP         0.4468
     30 N2         -3.0679    2.6964    3.4278 N.pl3     1 GTP        -0.5618
     31 N3         -1.2653    2.4872    1.9379 N.2       1 GTP        -0.4283
     32 C4         -0.7342    2.9334    0.7643 C.ar      1 GTP         0.2226
     33 H5'         1.2163   -0.0770   -2.0471 H         1 GTP        -0.0393
     34 H5''        2.4655   -1.3443   -2.1563 H         1 GTP        -0.0393
     35 H4'         3.8044   -0.1397   -0.4040 H         1 GTP        -0.0393
     36 H3'         1.6764   -1.7639    0.2728 H         1 GTP        -0.0393
     37 HO3'        3.5554   -1.2733    1.4914 H         1 GTP         0.2010
     38 H2'        -0.0011    0.0027    0.0003 H         1 GTP        -0.0393
     39 HO2'       -0.1563   -0.9855    2.0596 H         1 GTP         0.2010
     40 H1'         1.7826    1.9024    1.6451 H         1 GTP        -0.0393
     41 H8          1.3888    3.1325   -1.6361 H         1 GTP         0.0000
     42 HN1        -3.9188    4.3932    1.8170 H         1 GTP         0.0865
     43 HN21       -2.6609    2.0087    4.0186 H         1 GTP         0.2048
     44 HN22       -3.9293    3.1496    3.6283 H         1 GTP         0.2048
     45 H45        -0.5938    4.6820   -1.9060 H         1 GTP         0.2048
@<TRIPOS>BOND
     1    1    2 2
     2    1    3 1
     3    1    4 1
     4    1    5 1
     5    5    6 1
     6    6    7 2
     7    6    8 1
     8    6    9 1
     9    9   10 1
    10   10   11 2
    11   10   12 1
    12   10   13 1
    13   13   14 1
    14   14   15 1
    15   14   33 1
    16   14   34 1
    17   15   16 1
    18   15   17 1
    19   15   35 1
    20   16   21 1
    21   17   18 1
    22   17   19 1
    23   17   36 1
    24   18   37 1
    25   19   20 1
    26   19   21 1
    27   19   38 1
    28   20   39 1
    29   21   22 1
    30   21   40 1
    31   22   23 ar
    32   22   32 ar
    33   23   24 ar
    34   23   41 1
    35   24   25 ar
    36   24   45 1
    37   25   26 ar
    38   25   32 ar
    39   26   27 2
    40   26   28 ar
    41   28   29 ar
    42   28   42 1
    43   29   30 1
    44   29   31 ar
    45   30   43 1
    46   30   44 1
    47   31   32 ar
@<TRIPOS>SUBSTRUCTURE
     1 GTP         1 GROUP 0 A     ****
@<TRIPOS>MOLECULE
[[[5-(2-amino-6-oxo-7,8-dihydro-1~{H}-purin-8-ylium-9-yl)-3,4-dihydroxy-tetrahydrofuran-2-yl]methoxy-oxido-phosphoryl]oxy-oxido-phosphoryl] phosphate
   45    47     1     0     0
SMALL
USER_CHARGES

@<TRIPOS>ATOM
      1 PG          2.1896   -5.5196   -5.7424 P.3       1 GTP        -1.1921
      2 O1G         2.7205   -6.5970   -4.8026 O.co2     1 GTP         0.3195
      3 O2G         0.6692   -5.4715   -5.8492 O.co2     1 GTP         0.3195
      4 O3G         2.9140   -5.4454   -7.0825 O.co2     1 GTP         0.3195
      5 O3B         2.5889   -4.1020   -5.0002 O.3       1 GTP         0.4672
      6 PB          4.0533   -3.5124   -4.5797 P.3       1 GTP        -1.1062
      7 O1B         4.6469   -4.4009   -3.5093 O.co2     1 GTP         0.3195
      8 O2B         4.8235   -3.1603   -5.8327 O.co2     1 GTP         0.3195
      9 O3A         3.5834   -2.0978   -3.9137 O.3       1 GTP         0.4672
     10 PA          4.4792   -0.9077   -3.2423 P.3       1 GTP        -1.1062
     11 O1A         5.1201   -1.4478   -1.9825 O.co2     1 GTP         0.3195
     12 O2A         5.3102   -0.2460   -4.3201 O.co2     1 GTP         0.3195
     13 O5'         3.2903    0.1346   -2.8241 O.3       1 GTP         0.1618
     14 C5'         2.2816   -0.2918   -1.9206 C.3       1 GTP         0.1504
     15 C4'         2.7248    0.0226   -0.4980 C.3       1 GTP         0.1111
     16 O4'         2.4697    1.4219   -0.2462 O.3       1 GTP        -0.1436
     17 C3'         1.9404   -0.7419    0.5596 C.3       1 GTP         0.1111
     18 O3'         2.7418   -0.8086    1.7389 O.3       1 GTP        -0.2728
     19 C2'         0.7477    0.1630    0.7858 C.3       1 GTP         0.1111
     20 O2'         0.1373   -0.0577    2.0407 O.3       1 GTP        -0.2728
     21 C1'         1.3733    1.5427    0.6747 C.3       1 GTP         0.2693
     22 N9          0.4520    2.5240    0.1767 N.pl3     1 GTP        -0.3222
     23 C8          0.2203    2.8205   -1.0970 C.ar      1 GTP         0.1640
     24 N7         -0.6947    3.7752   -1.2304 N.pl3     1 GTP        -0.3688
     25 C5         -1.0607    4.0987    0.0476 C.ar      1 GTP         0.0648
     26 C6         -2.0310    5.0839    0.5029 C.ar      1 GTP         0.3597
     27 O6         -2.6779    5.7867   -0.2609 O.2       1 GTP        -0.2755
     28 N1         -2.1030    5.0975    1.8948 N.pl3     1 GTP        -0.1604
     29 C2         -1.3422    4.2721    2.7403 C.ar      1 GTP         0.4468
     30 N2         -1.5624    4.4419    4.0823 N.pl3     1 GTP        -0.5618
     31 N3         -0.4796    3.3981    2.2792 N.2       1 GTP        -0.4283
     32 C4         -0.3754    3.3496    0.9208 C.ar      1 GTP         0.2226
     33 H5'         1.3514    0.2330   -2.1577 H         1 GTP        -0.0393
     34 H5''        2.1280   -1.3678   -2.0460 H         1 GTP        -0.0393
     35 H4'         3.8044   -0.1397   -0.4040 H         1 GTP        -0.0393
     36 H3'         1.6764   -1.7639    0.2728 H         1 GTP        -0.0393
     37 HO3'        3.5554   -1.2733    1.4914 H         1 GTP         0.2010
     38 H2'        -0.0011    0.0027    0.0003 H         1 GTP        -0.0393
     39 HO2'       -0.6141    0.5574    2.1082 H         1 GTP         0.2010
     40 H1'         1.7826    1.9024    1.6451 H         1 GTP        -0.0393
     41 H8          0.7110    2.3472   -1.9295 H         1 GTP         0.0000
     42 HN1        -2.7504    5.7495    2.3282 H         1 GTP         0.0865
     43 HN21       -1.0467    3.8796    4.7190 H         1 GTP         0.2048
     44 HN22       -2.2294    5.1209    4.3680 H         1 GTP         0.2048
     45 H45        -1.0382    4.1687   -2.0954 H         1 GTP         0.2048
@<TRIPOS>BOND
     1    1    2 2
     2    1    3 1
     3    1    4 1
     4    1    5 1
     5    5    6 1
     6    6    7 2
     7    6    8 1
     8    6    9 1
     9    9   10 1
    10   10   11 2
    11   10   12 1
    12   10   13 1
    13   13   14 1
    14   14   15 1
    15   14   33 1
    16   14   34 1
    17   15   16 1
    18   15   17 1
    19   15   35 1
    20   16   21 1
    21   17   18 1
    22   17   19 1
    23   17   36 1
    24   18   37 1
    25   19   20 1
    26   19   21 1
    27   19   38 1
    28   20   39 1
    29   21   22 1
    30   21   40 1
    31   22   23 ar
    32   22   32 ar
    33   23   24 ar
    34   23   41 1
    35   24   25 ar
    36   24   45 1
    37   25   26 ar
    38   25   32 ar
    39   26   27 2
    40   26   28 ar
    41   28   29 ar
    42   28   42 1
    43   29   30 1
    44   29   31 ar
    45   30   43 1
    46   30   44 1
    47   31   32 ar
@<TRIPOS>SUBSTRUCTURE
     1 GTP         1 GROUP 0 A     ****
@<TRIPOS>MOLECULE
[[[5-(2-amino-6-oxo-7,8-dihydro-1~{H}-purin-8-ylium-9-yl)-3,4-dihydroxy-tetrahydrofuran-2-yl]methoxy-oxido-phosphoryl]oxy-oxido-phosphoryl] phosphate
   45    47     1     0     0
SMALL
USER_CHARGES

@<TRIPOS>ATOM
      1 PG          0.2226   -8.5444    7.4296 P.3       1 GTP        -1.1921
      2 O1G         0.4575   -9.8818    6.7353 O.co2     1 GTP         0.3195
      3 O2G         1.4342   -8.0051    8.1824 O.co2     1 GTP         0.3195
      4 O3G        -1.0854   -8.4651    8.2098 O.co2     1 GTP         0.3195
      5 O3B         0.0073   -7.4772    6.1908 O.3       1 GTP         0.4672
      6 PB         -1.1140   -7.4591    5.0027 P.3       1 GTP        -1.1062
      7 O1B        -0.8996   -8.6629    4.1124 O.co2     1 GTP         0.3195
      8 O2B        -2.4670   -7.1501    5.6036 O.co2     1 GTP         0.3195
      9 O3A        -0.6389   -6.1095    4.2164 O.3       1 GTP         0.4672
     10 PA         -0.5242   -4.5704    4.7529 P.3       1 GTP        -1.1062
     11 O1A        -1.9184   -4.0686    5.0597 O.co2     1 GTP         0.3195
     12 O2A         0.5809   -4.4868    5.7833 O.co2     1 GTP         0.3195
     13 O5'         0.0118   -3.8395    3.3916 O.3       1 GTP         0.1618
     14 C5'        -0.7840   -3.8935    2.2172 C.3       1 GTP         0.1504
     15 C4'        -0.0724   -3.1466    1.1027 C.3       1 GTP         0.1111
     16 O4'        -0.8674   -3.1929   -0.0945 O.3       1 GTP        -0.1436
     17 C3'         0.1338   -1.6715    1.4027 C.3       1 GTP         0.1111
     18 O3'         1.2893   -1.4445    2.1808 O.3       1 GTP        -0.2728
     19 C2'         0.2158   -1.0724    0.0128 C.3       1 GTP         0.1111
     20 O2'         1.5141   -1.2448   -0.5513 O.3       1 GTP        -0.2728
     21 C1'        -0.7897   -1.9176   -0.7583 C.3       1 GTP         0.2693
     22 N9         -2.1040   -1.3333   -0.7704 N.pl3     1 GTP        -0.3222
     23 C8         -3.0597   -1.5109    0.1345 C.ar      1 GTP         0.1640
     24 N7         -4.1618   -0.8291   -0.1607 N.pl3     1 GTP        -0.3688
     25 C5         -3.8764   -0.1805   -1.3310 C.ar      1 GTP         0.0648
     26 C6         -4.7187    0.7111   -2.1152 C.ar      1 GTP         0.3597
     27 O6         -5.8617    1.0043   -1.7939 O.2       1 GTP        -0.2755
     28 N1         -4.0405    1.1608   -3.2468 N.pl3     1 GTP        -0.1604
     29 C2         -2.7239    0.8013   -3.5822 C.ar      1 GTP         0.4468
     30 N2         -2.2399    1.3534   -4.7394 N.pl3     1 GTP        -0.5618
     31 N3         -2.0053   -0.0071   -2.8402 N.2       1 GTP        -0.4283
     32 C4         -2.6290   -0.4727   -1.7210 C.ar      1 GTP         0.2226
     33 H5'        -0.9348   -4.9415    1.9415 H         1 GTP        -0.0393
     34 H5''       -1.7548   -3.4350    2.4278 H         1 GTP        -0.0393
     35 H4'         0.8874   -3.6466    0.8805 H         1 GTP        -0.0393
     36 H3'        -0.7376   -1.2333    1.9867 H         1 GTP        -0.0393
     37 HO3'        1.1626   -1.9325    3.0084 H         1 GTP         0.2010
     38 H2'        -0.0384   -0.0310    0.0096 H         1 GTP        -0.0393
     39 HO2'        2.1463   -0.7958    0.0370 H         1 GTP         0.2010
     40 H1'        -0.4769   -2.1002   -1.8093 H         1 GTP        -0.0393
     41 H8         -2.9610   -2.1316    1.0079 H         1 GTP         0.0000
     42 HN1        -4.5320    1.7923   -3.8726 H         1 GTP         0.0865
     43 HN21       -1.3128    1.1277   -5.0171 H         1 GTP         0.2048
     44 HN22       -2.8342    1.9586   -5.2572 H         1 GTP         0.2048
     45 H45        -5.0195   -0.8034    0.3729 H         1 GTP         0.2048
@<TRIPOS>BOND
     1    1    2 2
     2    1    3 1
     3    1    4 1
     4    1    5 1
     5    5    6 1
     6    6    7 2
     7    6    8 1
     8    6    9 1
     9    9   10 1
    10   10   11 2
    11   10   12 1
    12   10   13 1
    13   13   14 1
    14   14   15 1
    15   14   33 1
    16   14   34 1
    17   15   16 1
    18   15   17 1
    19   15   35 1
    20   16   21 1
    21   17   18 1
    22   17   19 1
    23   17   36 1
    24   18   37 1
    25   19   20 1
    26   19   21 1
    27   19   38 1
    28   20   39 1
    29   21   22 1
    30   21   40 1
    31   22   23 ar
    32   22   32 ar
    33   23   24 ar
    34   23   41 1
    35   24   25 ar
    36   24   45 1
    37   25   26 ar
    38   25   32 ar
    39   26   27 2
    40   26   28 ar
    41   28   29 ar
    42   28   42 1
    43   29   30 1
    44   29   31 ar
    45   30   43 1
    46   30   44 1
    47   31   32 ar
@<TRIPOS>SUBSTRUCTURE
     1 GTP         1 GROUP 0 A     ****
@<TRIPOS>MOLECULE
[[[5-(2-amino-6-oxo-7,8-dihydro-1~{H}-purin-8-ylium-9-yl)-3,4-dihydroxy-tetrahydrofuran-2-yl]methoxy-oxido-phosphoryl]oxy-oxido-phosphoryl] phosphate
   45    47     1     0     0
SMALL
USER_CHARGES

@<TRIPOS>ATOM
      1 PG         -0.1089   -1.7234   -6.2584 P.3       1 GTP        -1.1921
      2 O1G        -1.0107   -0.6847   -5.5998 O.co2     1 GTP         0.3195
      3 O2G        -0.6882   -2.3478   -7.5234 O.co2     1 GTP         0.3195
      4 O3G         0.5017   -2.7284   -5.2873 O.co2     1 GTP         0.3195
      5 O3B         1.1872   -0.8544   -6.7922 O.3       1 GTP         0.4672
      6 PB          2.2538    0.0604   -5.9589 P.3       1 GTP        -1.1062
      7 O1B         3.3363    0.5298   -6.9052 O.co2     1 GTP         0.3195
      8 O2B         1.4945    1.0304   -5.0814 O.co2     1 GTP         0.3195
      9 O3A         2.8590   -1.0848   -4.9651 O.3       1 GTP         0.4672
     10 PA          4.0014   -0.9657   -3.8031 P.3       1 GTP        -1.1062
     11 O1A         4.0785   -2.2896   -3.0744 O.co2     1 GTP         0.3195
     12 O2A         5.2395   -0.3237   -4.3905 O.co2     1 GTP         0.3195
     13 O5'         3.2903    0.1346   -2.8241 O.3       1 GTP         0.1618
     14 C5'         2.2816   -0.2918   -1.9206 C.3       1 GTP         0.1504
     15 C4'         2.7248    0.0226   -0.4980 C.3       1 GTP         0.1111
     16 O4'         2.4697    1.4219   -0.2462 O.3       1 GTP        -0.1436
     17 C3'         1.9404   -0.7419    0.5596 C.3       1 GTP         0.1111
     18 O3'         2.7418   -0.8086    1.7389 O.3       1 GTP        -0.2728
     19 C2'         0.7477    0.1630    0.7858 C.3       1 GTP         0.1111
     20 O2'         0.1373   -0.0577    2.0407 O.3       1 GTP        -0.2728
     21 C1'         1.3733    1.5427    0.6747 C.3       1 GTP         0.2693
     22 N9          0.4520    2.5240    0.1767 N.pl3     1 GTP        -0.3222
     23 C8          0.2203    2.8205   -1.0970 C.ar      1 GTP         0.1640
     24 N7         -0.6947    3.7752   -1.2304 N.pl3     1 GTP        -0.3688
     25 C5         -1.0607    4.0987    0.0476 C.ar      1 GTP         0.0648
     26 C6         -2.0310    5.0839    0.5029 C.ar      1 GTP         0.3597
     27 O6         -2.6779    5.7867   -0.2609 O.2       1 GTP        -0.2755
     28 N1         -2.1030    5.0975    1.8948 N.pl3     1 GTP        -0.1604
     29 C2         -1.3422    4.2721    2.7403 C.ar      1 GTP         0.4468
     30 N2         -1.5624    4.4419    4.0823 N.pl3     1 GTP        -0.5618
     31 N3         -0.4796    3.3981    2.2792 N.2       1 GTP        -0.4283
     32 C4         -0.3754    3.3496    0.9208 C.ar      1 GTP         0.2226
     33 H5'         1.3514    0.2330   -2.1577 H         1 GTP        -0.0393
     34 H5''        2.1280   -1.3678   -2.0460 H         1 GTP        -0.0393
     35 H4'         3.8044   -0.1397   -0.4040 H         1 GTP        -0.0393
     36 H3'         1.6764   -1.7639    0.2728 H         1 GTP        -0.0393
     37 HO3'        2.2232   -1.2979    2.3953 H         1 GTP         0.2010
     38 H2'        -0.0011    0.0027    0.0003 H         1 GTP        -0.0393
     39 HO2'       -0.6141    0.5574    2.1082 H         1 GTP         0.2010
     40 H1'         1.7826    1.9024    1.6451 H         1 GTP        -0.0393
     41 H8          0.7110    2.3472   -1.9295 H         1 GTP         0.0000
     42 HN1        -2.7504    5.7495    2.3282 H         1 GTP         0.0865
     43 HN21       -1.0467    3.8796    4.7190 H         1 GTP         0.2048
     44 HN22       -2.2294    5.1209    4.3680 H         1 GTP         0.2048
     45 H45        -1.0382    4.1687   -2.0954 H         1 GTP         0.2048
@<TRIPOS>BOND
     1    1    2 2
     2    1    3 1
     3    1    4 1
     4    1    5 1
     5    5    6 1
     6    6    7 2
     7    6    8 1
     8    6    9 1
     9    9   10 1
    10   10   11 2
    11   10   12 1
    12   10   13 1
    13   13   14 1
    14   14   15 1
    15   14   33 1
    16   14   34 1
    17   15   16 1
    18   15   17 1
    19   15   35 1
    20   16   21 1
    21   17   18 1
    22   17   19 1
    23   17   36 1
    24   18   37 1
    25   19   20 1
    26   19   21 1
    27   19   38 1
    28   20   39 1
    29   21   22 1
    30   21   40 1
    31   22   23 ar
    32   22   32 ar
    33   23   24 ar
    34   23   41 1
    35   24   25 ar
    36   24   45 1
    37   25   26 ar
    38   25   32 ar
    39   26   27 2
    40   26   28 ar
    41   28   29 ar
    42   28   42 1
    43   29   30 1
    44   29   31 ar
    45   30   43 1
    46   30   44 1
    47   31   32 ar
@<TRIPOS>SUBSTRUCTURE
     1 GTP         1 GROUP 0 A     ****
@<TRIPOS>MOLECULE
[[[5-(2-amino-6-oxo-7,8-dihydro-1~{H}-purin-8-ylium-9-yl)-3,4-dihydroxy-tetrahydrofuran-2-yl]methoxy-oxido-phosphoryl]oxy-oxido-phosphoryl] phosphate
   45    47     1     0     0
SMALL
USER_CHARGES

@<TRIPOS>ATOM
      1 PG          3.4286   -3.7743   -7.9514 P.3       1 GTP        -1.1921
      2 O1G         4.8492   -3.3645   -8.3254 O.co2     1 GTP         0.3195
      3 O2G         3.2776   -5.2429   -7.5691 O.co2     1 GTP         0.3195
      4 O3G         2.3570   -3.2633   -8.9087 O.co2     1 GTP         0.3195
      5 O3B         3.1269   -2.9579   -6.5506 O.3       1 GTP         0.4672
      6 PB          3.1205   -1.3518   -6.2513 P.3       1 GTP        -1.1062
      7 O1B         4.5258   -0.8191   -6.4218 O.co2     1 GTP         0.3195
      8 O2B         1.9434   -0.7207   -6.9608 O.co2     1 GTP         0.3195
      9 O3A         2.7398   -1.3839   -4.6640 O.3       1 GTP         0.4672
     10 PA          3.5298   -2.0738   -3.4112 P.3       1 GTP        -1.1062
     11 O1A         3.4911   -3.5755   -3.5934 O.co2     1 GTP         0.3195
     12 O2A         4.8387   -1.3468   -3.1911 O.co2     1 GTP         0.3195
     13 O5'         2.5245   -1.6648   -2.1878 O.3       1 GTP         0.1618
     14 C5'         2.2816   -0.2918   -1.9206 C.3       1 GTP         0.1504
     15 C4'         2.7248    0.0226   -0.4980 C.3       1 GTP         0.1111
     16 O4'         2.4697    1.4219   -0.2462 O.3       1 GTP        -0.1436
     17 C3'         1.9404   -0.7419    0.5596 C.3       1 GTP         0.1111
     18 O3'         2.7418   -0.8086    1.7389 O.3       1 GTP        -0.2728
     19 C2'         0.7477    0.1630    0.7858 C.3       1 GTP         0.1111
     20 O2'         0.1373   -0.0577    2.0407 O.3       1 GTP        -0.2728
     21 C1'         1.3733    1.5427    0.6747 C.3       1 GTP         0.2693
     22 N9          0.4520    2.5240    0.1767 N.pl3     1 GTP        -0.3222
     23 C8         -0.2009    2.4849   -0.9792 C.ar      1 GTP         0.1640
     24 N7         -0.9840    3.5454   -1.1481 N.pl3     1 GTP        -0.3688
     25 C5         -0.8090    4.3005   -0.0206 C.ar      1 GTP         0.0648
     26 C6         -1.4206    5.5724    0.3362 C.ar      1 GTP         0.3597
     27 O6         -2.2199    6.1544   -0.3836 O.2       1 GTP        -0.2755
     28 N1         -0.9680    6.0043    1.5817 N.pl3     1 GTP        -0.1604
     29 C2         -0.0474    5.3055    2.3814 C.ar      1 GTP         0.4468
     30 N2          0.2680    5.9024    3.5740 N.pl3     1 GTP        -0.5618
     31 N3          0.4755    4.1601    2.0138 N.2       1 GTP        -0.4283
     32 C4          0.0611    3.6981    0.8001 C.ar      1 GTP         0.2226
     33 H5'         2.8432    0.3119   -2.6398 H         1 GTP        -0.0393
     34 H5''        1.2128   -0.0927   -2.0428 H         1 GTP        -0.0393
     35 H4'         3.8044   -0.1397   -0.4040 H         1 GTP        -0.0393
     36 H3'         1.6764   -1.7639    0.2728 H         1 GTP        -0.0393
     37 HO3'        3.5554   -1.2733    1.4914 H         1 GTP         0.2010
     38 H2'        -0.0011    0.0027    0.0003 H         1 GTP        -0.0393
     39 HO2'       -0.6141    0.5574    2.1082 H         1 GTP         0.2010
     40 H1'         1.7826    1.9024    1.6451 H         1 GTP        -0.0393
     41 H8         -0.1126    1.6906   -1.6997 H         1 GTP         0.0000
     42 HN1        -1.3285    6.8855    1.9361 H         1 GTP         0.0865
     43 HN21        0.9153    5.4446    4.1732 H         1 GTP         0.2048
     44 HN22       -0.1624    6.7706    3.7948 H         1 GTP         0.2048
     45 H45        -1.5768    3.7405   -1.9429 H         1 GTP         0.2048
@<TRIPOS>BOND
     1    1    2 2
     2    1    3 1
     3    1    4 1
     4    1    5 1
     5    5    6 1
     6    6    7 2
     7    6    8 1
     8    6    9 1
     9    9   10 1
    10   10   11 2
    11   10   12 1
    12   10   13 1
    13   13   14 1
    14   14   15 1
    15   14   33 1
    16   14   34 1
    17   15   16 1
    18   15   17 1
    19   15   35 1
    20   16   21 1
    21   17   18 1
    22   17   19 1
    23   17   36 1
    24   18   37 1
    25   19   20 1
    26   19   21 1
    27   19   38 1
    28   20   39 1
    29   21   22 1
    30   21   40 1
    31   22   23 ar
    32   22   32 ar
    33   23   24 ar
    34   23   41 1
    35   24   25 ar
    36   24   45 1
    37   25   26 ar
    38   25   32 ar
    39   26   27 2
    40   26   28 ar
    41   28   29 ar
    42   28   42 1
    43   29   30 1
    44   29   31 ar
    45   30   43 1
    46   30   44 1
    47   31   32 ar
@<TRIPOS>SUBSTRUCTURE
     1 GTP         1 GROUP 0 A     ****
@<TRIPOS>MOLECULE
[[[5-(2-amino-6-oxo-7,8-dihydro-1~{H}-purin-8-ylium-9-yl)-3,4-dihydroxy-tetrahydrofuran-2-yl]methoxy-oxido-phosphoryl]oxy-oxido-phosphoryl] phosphate
   45    47     1     0     0
SMALL
USER_CHARGES

@<TRIPOS>ATOM
      1 PG          7.0928   -1.3370   -5.7107 P.3       1 GTP        -1.1921
      2 O1G         7.2100   -2.7623   -6.2405 O.co2     1 GTP         0.3195
      3 O2G         7.3937   -0.2555   -6.7429 O.co2     1 GTP         0.3195
      4 O3G         7.7615   -1.1148   -4.3581 O.co2     1 GTP         0.3195
      5 O3B         5.4854   -1.1550   -5.3897 O.3       1 GTP         0.4672
      6 PB          4.5160   -1.9894   -4.3734 P.3       1 GTP        -1.1062
      7 O1B         4.3971   -3.4123   -4.8723 O.co2     1 GTP         0.3195
      8 O2B         4.9125   -1.6816   -2.9467 O.co2     1 GTP         0.3195
      9 O3A         3.1131   -1.1992   -4.6435 O.3       1 GTP         0.4672
     10 PA          2.7413    0.3775   -4.4298 P.3       1 GTP        -1.1062
     11 O1A         3.7595    1.2116   -5.1762 O.co2     1 GTP         0.3195
     12 O2A         1.2573    0.5705   -4.6542 O.co2     1 GTP         0.3195
     13 O5'         3.0213    0.5153   -2.8245 O.3       1 GTP         0.1618
     14 C5'         2.2816   -0.2918   -1.9206 C.3       1 GTP         0.1504
     15 C4'         2.7248    0.0226   -0.4980 C.3       1 GTP         0.1111
     16 O4'         2.4697    1.4219   -0.2462 O.3       1 GTP        -0.1436
     17 C3'         1.9404   -0.7419    0.5596 C.3       1 GTP         0.1111
     18 O3'         2.7418   -0.8086    1.7389 O.3       1 GTP        -0.2728
     19 C2'         0.7477    0.1630    0.7858 C.3       1 GTP         0.1111
     20 O2'         0.1373   -0.0577    2.0407 O.3       1 GTP        -0.2728
     21 C1'         1.3733    1.5427    0.6747 C.3       1 GTP         0.2693
     22 N9          0.4520    2.5240    0.1767 N.pl3     1 GTP        -0.3222
     23 C8          0.5671    3.2221   -0.9473 C.ar      1 GTP         0.1640
     24 N7         -0.4560    4.0508   -1.1290 N.pl3     1 GTP        -0.3688
     25 C5         -1.2671    3.8585   -0.0441 C.ar      1 GTP         0.0648
     26 C6         -2.5318    4.5014    0.2817 C.ar      1 GTP         0.3597
     27 O6         -3.0527    5.3493   -0.4293 O.2       1 GTP        -0.2755
     28 N1         -3.0357    4.0149    1.4868 N.pl3     1 GTP        -0.1604
     29 C2         -2.4069    3.0373    2.2768 C.ar      1 GTP         0.4468
     30 N2         -3.0679    2.6964    3.4278 N.pl3     1 GTP        -0.5618
     31 N3         -1.2653    2.4872    1.9379 N.2       1 GTP        -0.4283
     32 C4         -0.7342    2.9334    0.7643 C.ar      1 GTP         0.2226
     33 H5'         1.2163   -0.0770   -2.0471 H         1 GTP        -0.0393
     34 H5''        2.4655   -1.3443   -2.1563 H         1 GTP        -0.0393
     35 H4'         3.8044   -0.1397   -0.4040 H         1 GTP        -0.0393
     36 H3'         1.6764   -1.7639    0.2728 H         1 GTP        -0.0393
     37 HO3'        2.2232   -1.2979    2.3953 H         1 GTP         0.2010
     38 H2'        -0.0011    0.0027    0.0003 H         1 GTP        -0.0393
     39 HO2'       -0.1563   -0.9855    2.0596 H         1 GTP         0.2010
     40 H1'         1.7826    1.9024    1.6451 H         1 GTP        -0.0393
     41 H8          1.3888    3.1325   -1.6361 H         1 GTP         0.0000
     42 HN1        -3.9188    4.3932    1.8170 H         1 GTP         0.0865
     43 HN21       -2.6609    2.0087    4.0186 H         1 GTP         0.2048
     44 HN22       -3.9293    3.1496    3.6283 H         1 GTP         0.2048
     45 H45        -0.5938    4.6820   -1.9060 H         1 GTP         0.2048
@<TRIPOS>BOND
     1    1    2 2
     2    1    3 1
     3    1    4 1
     4    1    5 1
     5    5    6 1
     6    6    7 2
     7    6    8 1
     8    6    9 1
     9    9   10 1
    10   10   11 2
    11   10   12 1
    12   10   13 1
    13   13   14 1
    14   14   15 1
    15   14   33 1
    16   14   34 1
    17   15   16 1
    18   15   17 1
    19   15   35 1
    20   16   21 1
    21   17   18 1
    22   17   19 1
    23   17   36 1
    24   18   37 1
    25   19   20 1
    26   19   21 1
    27   19   38 1
    28   20   39 1
    29   21   22 1
    30   21   40 1
    31   22   23 ar
    32   22   32 ar
    33   23   24 ar
    34   23   41 1
    35   24   25 ar
    36   24   45 1
    37   25   26 ar
    38   25   32 ar
    39   26   27 2
    40   26   28 ar
    41   28   29 ar
    42   28   42 1
    43   29   30 1
    44   29   31 ar
    45   30   43 1
    46   30   44 1
    47   31   32 ar
@<TRIPOS>SUBSTRUCTURE
     1 GTP         1 GROUP 0 A     ****
@<TRIPOS>MOLECULE
[[[5-(2-amino-6-oxo-7,8-dihydro-1~{H}-purin-8-ylium-9-yl)-3,4-dihydroxy-tetrahydrofuran-2-yl]methoxy-oxido-phosphoryl]oxy-oxido-phosphoryl] phosphate
   45    47     1     0     0
SMALL
USER_CHARGES

@<TRIPOS>ATOM
      1 PG          4.9862   -3.9155   -4.5989 P.3       1 GTP        -1.1921
      2 O1G         5.0090   -2.9945   -3.3836 O.co2     1 GTP         0.3195
      3 O2G         4.8360   -5.3956   -4.2637 O.co2     1 GTP         0.3195
      4 O3G         6.0659   -3.6143   -5.6331 O.co2     1 GTP         0.3195
      5 O3B         3.5816   -3.5306   -5.3726 O.3       1 GTP         0.4672
      6 PB          3.0841   -2.1067   -6.0004 P.3       1 GTP        -1.1062
      7 O1B         4.1362   -1.6055   -6.9645 O.co2     1 GTP         0.3195
      8 O2B         1.6317   -2.2245   -6.4051 O.co2     1 GTP         0.3195
      9 O3A         3.1131   -1.1992   -4.6435 O.3       1 GTP         0.4672
     10 PA          2.7413    0.3775   -4.4298 P.3       1 GTP        -1.1062
     11 O1A         3.7595    1.2116   -5.1762 O.co2     1 GTP         0.3195
     12 O2A         1.2573    0.5705   -4.6542 O.co2     1 GTP         0.3195
     13 O5'         3.0213    0.5153   -2.8245 O.3       1 GTP         0.1618
     14 C5'         2.2816   -0.2918   -1.9206 C.3       1 GTP         0.1504
     15 C4'         2.7248    0.0226   -0.4980 C.3       1 GTP         0.1111
     16 O4'         2.4697    1.4219   -0.2462 O.3       1 GTP        -0.1436
     17 C3'         1.9404   -0.7419    0.5596 C.3       1 GTP         0.1111
     18 O3'         2.7418   -0.8086    1.7389 O.3       1 GTP        -0.2728
     19 C2'         0.7477    0.1630    0.7858 C.3       1 GTP         0.1111
     20 O2'         0.1373   -0.0577    2.0407 O.3       1 GTP        -0.2728
     21 C1'         1.3733    1.5427    0.6747 C.3       1 GTP         0.2693
     22 N9          0.4520    2.5240    0.1767 N.pl3     1 GTP        -0.3222
     23 C8         -0.8613    2.5511    0.3730 C.ar      1 GTP         0.1640
     24 N7         -1.4346    3.5939   -0.2188 N.pl3     1 GTP        -0.3688
     25 C5         -0.4099    4.2657   -0.8276 C.ar      1 GTP         0.0648
     26 C6         -0.4554    5.4854   -1.6209 C.ar      1 GTP         0.3597
     27 O6         -1.4907    6.0944   -1.8508 O.2       1 GTP        -0.2755
     28 N1          0.8205    5.8357   -2.0593 N.pl3     1 GTP        -0.1604
     29 C2          1.9890    5.1091   -1.7730 C.ar      1 GTP         0.4468
     30 N2          3.1452    5.6230   -2.2997 N.pl3     1 GTP        -0.5618
     31 N3          1.9765    4.0139   -1.0514 N.2       1 GTP        -0.4283
     32 C4          0.7480    3.6324   -0.6003 C.ar      1 GTP         0.2226
     33 H5'         1.2163   -0.0770   -2.0471 H         1 GTP        -0.0393
     34 H5''        2.4655   -1.3443   -2.1563 H         1 GTP        -0.0393
     35 H4'         3.8044   -0.1397   -0.4040 H         1 GTP        -0.0393
     36 H3'         1.6764   -1.7639    0.2728 H         1 GTP        -0.0393
     37 HO3'        2.2232   -1.2979    2.3953 H         1 GTP         0.2010
     38 H2'        -0.0011    0.0027    0.0003 H         1 GTP        -0.0393
     39 HO2'       -0.1563   -0.9855    2.0596 H         1 GTP         0.2010
     40 H1'         1.7826    1.9024    1.6451 H         1 GTP        -0.0393
     41 H8         -1.4050    1.8187    0.9438 H         1 GTP         0.0000
     42 HN1         0.9121    6.6744   -2.6251 H         1 GTP         0.0865
     43 HN21        3.9971    5.1427   -2.1235 H         1 GTP         0.2048
     44 HN22        3.0881    6.4564   -2.8380 H         1 GTP         0.2048
     45 H45        -2.4173    3.8294   -0.2127 H         1 GTP         0.2048
@<TRIPOS>BOND
     1    1    2 2
     2    1    3 1
     3    1    4 1
     4    1    5 1
     5    5    6 1
     6    6    7 2
     7    6    8 1
     8    6    9 1
     9    9   10 1
    10   10   11 2
    11   10   12 1
    12   10   13 1
    13   13   14 1
    14   14   15 1
    15   14   33 1
    16   14   34 1
    17   15   16 1
    18   15   17 1
    19   15   35 1
    20   16   21 1
    21   17   18 1
    22   17   19 1
    23   17   36 1
    24   18   37 1
    25   19   20 1
    26   19   21 1
    27   19   38 1
    28   20   39 1
    29   21   22 1
    30   21   40 1
    31   22   23 ar
    32   22   32 ar
    33   23   24 ar
    34   23   41 1
    35   24   25 ar
    36   24   45 1
    37   25   26 ar
    38   25   32 ar
    39   26   27 2
    40   26   28 ar
    41   28   29 ar
    42   28   42 1
    43   29   30 1
    44   29   31 ar
    45   30   43 1
    46   30   44 1
    47   31   32 ar
@<TRIPOS>SUBSTRUCTURE
     1 GTP         1 GROUP 0 A     ****
@<TRIPOS>MOLECULE
[[[5-(2-amino-6-oxo-7,8-dihydro-1~{H}-purin-8-ylium-9-yl)-3,4-dihydroxy-tetrahydrofuran-2-yl]methoxy-oxido-phosphoryl]oxy-oxido-phosphoryl] phosphate
   45    47     1     0     0
SMALL
USER_CHARGES

@<TRIPOS>ATOM
      1 PG          1.6146   -4.6662   -3.7967 P.3       1 GTP        -1.1921
      2 O1G         0.6782   -3.5251   -4.1799 O.co2     1 GTP         0.3195
      3 O2G         1.3359   -5.9789   -4.5211 O.co2     1 GTP         0.3195
      4 O3G         1.8388   -4.8149   -2.2955 O.co2     1 GTP         0.3195
      5 O3B         3.0867   -4.1919   -4.3694 O.3       1 GTP         0.4672
      6 PB          3.9771   -2.8699   -4.0109 P.3       1 GTP        -1.1062
      7 O1B         4.1736   -2.8068   -2.5126 O.co2     1 GTP         0.3195
      8 O2B         5.1463   -2.7865   -4.9666 O.co2     1 GTP         0.3195
      9 O3A         2.9217   -1.7121   -4.4705 O.3       1 GTP         0.4672
     10 PA          3.0683   -0.0853   -4.4294 P.3       1 GTP        -1.1062
     11 O1A         4.3403    0.2960   -5.1548 O.co2     1 GTP         0.3195
     12 O2A         1.7407    0.5404   -4.7982 O.co2     1 GTP         0.3195
     13 O5'         3.2903    0.1346   -2.8241 O.3       1 GTP         0.1618
     14 C5'         2.2816   -0.2918   -1.9206 C.3       1 GTP         0.1504
     15 C4'         2.7248    0.0226   -0.4980 C.3       1 GTP         0.1111
     16 O4'         2.4697    1.4219   -0.2462 O.3       1 GTP        -0.1436
     17 C3'         1.9404   -0.7419    0.5596 C.3       1 GTP         0.1111
     18 O3'         2.7418   -0.8086    1.7389 O.3       1 GTP        -0.2728
     19 C2'         0.7477    0.1630    0.7858 C.3       1 GTP         0.1111
     20 O2'         0.1373   -0.0577    2.0407 O.3       1 GTP        -0.2728
     21 C1'         1.3733    1.5427    0.6747 C.3       1 GTP         0.2693
     22 N9          0.4520    2.5240    0.1767 N.pl3     1 GTP        -0.3222
     23 C8          0.5671    3.2221   -0.9473 C.ar      1 GTP         0.1640
     24 N7         -0.4560    4.0508   -1.1290 N.pl3     1 GTP        -0.3688
     25 C5         -1.2671    3.8585   -0.0441 C.ar      1 GTP         0.0648
     26 C6         -2.5318    4.5014    0.2817 C.ar      1 GTP         0.3597
     27 O6         -3.0527    5.3493   -0.4293 O.2       1 GTP        -0.2755
     28 N1         -3.0357    4.0149    1.4868 N.pl3     1 GTP        -0.1604
     29 C2         -2.4069    3.0373    2.2768 C.ar      1 GTP         0.4468
     30 N2         -3.0679    2.6964    3.4278 N.pl3     1 GTP        -0.5618
     31 N3         -1.2653    2.4872    1.9379 N.2       1 GTP        -0.4283
     32 C4         -0.7342    2.9334    0.7643 C.ar      1 GTP         0.2226
     33 H5'         1.3514    0.2330   -2.1577 H         1 GTP        -0.0393
     34 H5''        2.1280   -1.3678   -2.0460 H         1 GTP        -0.0393
     35 H4'         3.8044   -0.1397   -0.4040 H         1 GTP        -0.0393
     36 H3'         1.6764   -1.7639    0.2728 H         1 GTP        -0.0393
     37 HO3'        3.5554   -1.2733    1.4914 H         1 GTP         0.2010
     38 H2'        -0.0011    0.0027    0.0003 H         1 GTP        -0.0393
     39 HO2'        0.8082    0.1199    2.7232 H         1 GTP         0.2010
     40 H1'         1.7826    1.9024    1.6451 H         1 GTP        -0.0393
     41 H8          1.3888    3.1325   -1.6361 H         1 GTP         0.0000
     42 HN1        -3.9188    4.3932    1.8170 H         1 GTP         0.0865
     43 HN21       -2.6609    2.0087    4.0186 H         1 GTP         0.2048
     44 HN22       -3.9293    3.1496    3.6283 H         1 GTP         0.2048
     45 H45        -0.5938    4.6820   -1.9060 H         1 GTP         0.2048
@<TRIPOS>BOND
     1    1    2 2
     2    1    3 1
     3    1    4 1
     4    1    5 1
     5    5    6 1
     6    6    7 2
     7    6    8 1
     8    6    9 1
     9    9   10 1
    10   10   11 2
    11   10   12 1
    12   10   13 1
    13   13   14 1
    14   14   15 1
    15   14   33 1
    16   14   34 1
    17   15   16 1
    18   15   17 1
    19   15   35 1
    20   16   21 1
    21   17   18 1
    22   17   19 1
    23   17   36 1
    24   18   37 1
    25   19   20 1
    26   19   21 1
    27   19   38 1
    28   20   39 1
    29   21   22 1
    30   21   40 1
    31   22   23 ar
    32   22   32 ar
    33   23   24 ar
    34   23   41 1
    35   24   25 ar
    36   24   45 1
    37   25   26 ar
    38   25   32 ar
    39   26   27 2
    40   26   28 ar
    41   28   29 ar
    42   28   42 1
    43   29   30 1
    44   29   31 ar
    45   30   43 1
    46   30   44 1
    47   31   32 ar
@<TRIPOS>SUBSTRUCTURE
     1 GTP         1 GROUP 0 A     ****
@<TRIPOS>MOLECULE
[[[5-(2-amino-6-oxo-7,8-dihydro-1~{H}-purin-8-ylium-9-yl)-3,4-dihydroxy-tetrahydrofuran-2-yl]methoxy-oxido-phosphoryl]oxy-oxido-phosphoryl] phosphate
   45    47     1     0     0
SMALL
USER_CHARGES

@<TRIPOS>ATOM
      1 PG         -4.8979   -9.4745    3.5368 P.3       1 GTP        -1.1921
      2 O1G        -6.2625   -9.1137    2.9593 O.co2     1 GTP         0.3195
      3 O2G        -4.1997  -10.6293    2.8266 O.co2     1 GTP         0.3195
      4 O3G        -4.8661   -9.5647    5.0589 O.co2     1 GTP         0.3195
      5 O3B        -3.9561   -8.1631    3.2005 O.3       1 GTP         0.4672
      6 PB         -4.1283   -6.6025    3.6521 P.3       1 GTP        -1.1062
      7 O1B        -5.3777   -6.0442    3.0080 O.co2     1 GTP         0.3195
      8 O2B        -3.8866   -6.4883    5.1407 O.co2     1 GTP         0.3195
      9 O3A        -2.8113   -5.9727    2.9209 O.3       1 GTP         0.4672
     10 PA         -1.2298   -6.3297    3.1234 P.3       1 GTP        -1.1062
     11 O1A        -0.8238   -5.9155    4.5209 O.co2     1 GTP         0.3195
     12 O2A        -0.9707   -7.7323    2.6177 O.co2     1 GTP         0.3195
     13 O5'        -0.5687   -5.2869    2.0510 O.3       1 GTP         0.1618
     14 C5'        -0.7840   -3.8935    2.2172 C.3       1 GTP         0.1504
     15 C4'        -0.0724   -3.1466    1.1027 C.3       1 GTP         0.1111
     16 O4'        -0.8674   -3.1929   -0.0945 O.3       1 GTP        -0.1436
     17 C3'         0.1338   -1.6715    1.4027 C.3       1 GTP         0.1111
     18 O3'         1.2893   -1.4445    2.1808 O.3       1 GTP        -0.2728
     19 C2'         0.2158   -1.0724    0.0128 C.3       1 GTP         0.1111
     20 O2'         1.5141   -1.2448   -0.5513 O.3       1 GTP        -0.2728
     21 C1'        -0.7897   -1.9176   -0.7583 C.3       1 GTP         0.2693
     22 N9         -2.1040   -1.3333   -0.7704 N.pl3     1 GTP        -0.3222
     23 C8         -3.0597   -1.5109    0.1345 C.ar      1 GTP         0.1640
     24 N7         -4.1618   -0.8291   -0.1607 N.pl3     1 GTP        -0.3688
     25 C5         -3.8764   -0.1805   -1.3310 C.ar      1 GTP         0.0648
     26 C6         -4.7187    0.7111   -2.1152 C.ar      1 GTP         0.3597
     27 O6         -5.8617    1.0043   -1.7939 O.2       1 GTP        -0.2755
     28 N1         -4.0405    1.1608   -3.2468 N.pl3     1 GTP        -0.1604
     29 C2         -2.7239    0.8013   -3.5822 C.ar      1 GTP         0.4468
     30 N2         -2.2399    1.3534   -4.7394 N.pl3     1 GTP        -0.5618
     31 N3         -2.0053   -0.0071   -2.8402 N.2       1 GTP        -0.4283
     32 C4         -2.6290   -0.4727   -1.7210 C.ar      1 GTP         0.2226
     33 H5'        -1.8598   -3.6968    2.1850 H         1 GTP        -0.0393
     34 H5''       -0.3933   -3.5903    3.1931 H         1 GTP        -0.0393
     35 H4'         0.8874   -3.6466    0.8805 H         1 GTP        -0.0393
     36 H3'        -0.7376   -1.2333    1.9867 H         1 GTP        -0.0393
     37 HO3'        1.1626   -1.9325    3.0084 H         1 GTP         0.2010
     38 H2'        -0.0384   -0.0310    0.0096 H         1 GTP        -0.0393
     39 HO2'        2.1463   -0.7958    0.0370 H         1 GTP         0.2010
     40 H1'        -0.4769   -2.1002   -1.8093 H         1 GTP        -0.0393
     41 H8         -2.9610   -2.1316    1.0079 H         1 GTP         0.0000
     42 HN1        -4.5320    1.7923   -3.8726 H         1 GTP         0.0865
     43 HN21       -1.3128    1.1277   -5.0171 H         1 GTP         0.2048
     44 HN22       -2.8342    1.9586   -5.2572 H         1 GTP         0.2048
     45 H45        -5.0195   -0.8034    0.3729 H         1 GTP         0.2048
@<TRIPOS>BOND
     1    1    2 2
     2    1    3 1
     3    1    4 1
     4    1    5 1
     5    5    6 1
     6    6    7 2
     7    6    8 1
     8    6    9 1
     9    9   10 1
    10   10   11 2
    11   10   12 1
    12   10   13 1
    13   13   14 1
    14   14   15 1
    15   14   33 1
    16   14   34 1
    17   15   16 1
    18   15   17 1
    19   15   35 1
    20   16   21 1
    21   17   18 1
    22   17   19 1
    23   17   36 1
    24   18   37 1
    25   19   20 1
    26   19   21 1
    27   19   38 1
    28   20   39 1
    29   21   22 1
    30   21   40 1
    31   22   23 ar
    32   22   32 ar
    33   23   24 ar
    34   23   41 1
    35   24   25 ar
    36   24   45 1
    37   25   26 ar
    38   25   32 ar
    39   26   27 2
    40   26   28 ar
    41   28   29 ar
    42   28   42 1
    43   29   30 1
    44   29   31 ar
    45   30   43 1
    46   30   44 1
    47   31   32 ar
@<TRIPOS>SUBSTRUCTURE
     1 GTP         1 GROUP 0 A     ****
@<TRIPOS>MOLECULE
[[[5-(2-amino-6-oxo-7,8-dihydro-1~{H}-purin-8-ylium-9-yl)-3,4-dihydroxy-tetrahydrofuran-2-yl]methoxy-oxido-phosphoryl]oxy-oxido-phosphoryl] phosphate
   45    47     1     0     0
SMALL
USER_CHARGES

@<TRIPOS>ATOM
      1 PG         -4.2188   -1.4639    5.1970 P.3       1 GTP        -1.1921
      2 O1G        -4.3818   -2.9193    4.7716 O.co2     1 GTP         0.3195
      3 O2G        -5.2964   -0.9635    6.1531 O.co2     1 GTP         0.3195
      4 O3G        -3.9060   -0.5078    4.0507 O.co2     1 GTP         0.3195
      5 O3B        -2.8399   -1.4582    6.1017 O.3       1 GTP         0.4672
      6 PB         -1.3147   -1.8791    5.6947 P.3       1 GTP        -1.1062
      7 O1B        -0.9041   -1.0952    4.4682 O.co2     1 GTP         0.3195
      8 O2B        -0.4587   -1.9040    6.9413 O.co2     1 GTP         0.3195
      9 O3A        -1.5754   -3.4372    5.2825 O.3       1 GTP         0.4672
     10 PA         -0.5242   -4.5704    4.7529 P.3       1 GTP        -1.1062
     11 O1A         0.6179   -4.6588    5.7415 O.co2     1 GTP         0.3195
     12 O2A        -1.2952   -5.8044    4.3370 O.co2     1 GTP         0.3195
     13 O5'         0.0118   -3.8395    3.3916 O.3       1 GTP         0.1618
     14 C5'        -0.7840   -3.8935    2.2172 C.3       1 GTP         0.1504
     15 C4'        -0.0724   -3.1466    1.1027 C.3       1 GTP         0.1111
     16 O4'        -0.8674   -3.1929   -0.0945 O.3       1 GTP        -0.1436
     17 C3'         0.1338   -1.6715    1.4027 C.3       1 GTP         0.1111
     18 O3'         1.2893   -1.4445    2.1808 O.3       1 GTP        -0.2728
     19 C2'         0.2158   -1.0724    0.0128 C.3       1 GTP         0.1111
     20 O2'         1.5141   -1.2448   -0.5513 O.3       1 GTP        -0.2728
     21 C1'        -0.7897   -1.9176   -0.7583 C.3       1 GTP         0.2693
     22 N9         -2.1040   -1.3333   -0.7704 N.pl3     1 GTP        -0.3222
     23 C8         -3.0597   -1.5109    0.1345 C.ar      1 GTP         0.1640
     24 N7         -4.1618   -0.8291   -0.1607 N.pl3     1 GTP        -0.3688
     25 C5         -3.8764   -0.1805   -1.3310 C.ar      1 GTP         0.0648
     26 C6         -4.7187    0.7111   -2.1152 C.ar      1 GTP         0.3597
     27 O6         -5.8617    1.0043   -1.7939 O.2       1 GTP        -0.2755
     28 N1         -4.0405    1.1608   -3.2468 N.pl3     1 GTP        -0.1604
     29 C2         -2.7239    0.8013   -3.5822 C.ar      1 GTP         0.4468
     30 N2         -2.2399    1.3534   -4.7394 N.pl3     1 GTP        -0.5618
     31 N3         -2.0053   -0.0071   -2.8402 N.2       1 GTP        -0.4283
     32 C4         -2.6290   -0.4727   -1.7210 C.ar      1 GTP         0.2226
     33 H5'        -0.9348   -4.9415    1.9415 H         1 GTP        -0.0393
     34 H5''       -1.7548   -3.4350    2.4278 H         1 GTP        -0.0393
     35 H4'         0.8874   -3.6466    0.8805 H         1 GTP        -0.0393
     36 H3'        -0.7376   -1.2333    1.9867 H         1 GTP        -0.0393
     37 HO3'        1.1626   -1.9325    3.0084 H         1 GTP         0.2010
     38 H2'        -0.0384   -0.0310    0.0096 H         1 GTP        -0.0393
     39 HO2'        2.1463   -0.7958    0.0370 H         1 GTP         0.2010
     40 H1'        -0.4769   -2.1002   -1.8093 H         1 GTP        -0.0393
     41 H8         -2.9610   -2.1316    1.0079 H         1 GTP         0.0000
     42 HN1        -4.5320    1.7923   -3.8726 H         1 GTP         0.0865
     43 HN21       -1.3128    1.1277   -5.0171 H         1 GTP         0.2048
     44 HN22       -2.8342    1.9586   -5.2572 H         1 GTP         0.2048
     45 H45        -5.0195   -0.8034    0.3729 H         1 GTP         0.2048
@<TRIPOS>BOND
     1    1    2 2
     2    1    3 1
     3    1    4 1
     4    1    5 1
     5    5    6 1
     6    6    7 2
     7    6    8 1
     8    6    9 1
     9    9   10 1
    10   10   11 2
    11   10   12 1
    12   10   13 1
    13   13   14 1
    14   14   15 1
    15   14   33 1
    16   14   34 1
    17   15   16 1
    18   15   17 1
    19   15   35 1
    20   16   21 1
    21   17   18 1
    22   17   19 1
    23   17   36 1
    24   18   37 1
    25   19   20 1
    26   19   21 1
    27   19   38 1
    28   20   39 1
    29   21   22 1
    30   21   40 1
    31   22   23 ar
    32   22   32 ar
    33   23   24 ar
    34   23   41 1
    35   24   25 ar
    36   24   45 1
    37   25   26 ar
    38   25   32 ar
    39   26   27 2
    40   26   28 ar
    41   28   29 ar
    42   28   42 1
    43   29   30 1
    44   29   31 ar
    45   30   43 1
    46   30   44 1
    47   31   32 ar
@<TRIPOS>SUBSTRUCTURE
     1 GTP         1 GROUP 0 A     ****
@<TRIPOS>MOLECULE
[[[5-(2-amino-6-oxo-7,8-dihydro-1~{H}-purin-8-ylium-9-yl)-3,4-dihydroxy-tetrahydrofuran-2-yl]methoxy-oxido-phosphoryl]oxy-oxido-phosphoryl] phosphate
   45    47     1     0     0
SMALL
USER_CHARGES

@<TRIPOS>ATOM
      1 PG          0.9548   -4.7960    6.6059 P.3       1 GTP        -1.1921
      2 O1G        -0.5213   -4.4557    6.4295 O.co2     1 GTP         0.3195
      3 O2G         1.3559   -5.1331    8.0381 O.co2     1 GTP         0.3195
      4 O3G         1.9072   -3.8379    5.8981 O.co2     1 GTP         0.3195
      5 O3B         1.1439   -6.2153    5.7875 O.3       1 GTP         0.4672
      6 PB          0.8886   -6.5611    4.2113 P.3       1 GTP        -1.1062
      7 O1B         1.6789   -5.5880    3.3650 O.co2     1 GTP         0.3195
      8 O2B         0.9974   -8.0559    4.0085 O.co2     1 GTP         0.3195
      9 O3A        -0.7002   -6.1970    4.1186 O.3       1 GTP         0.4672
     10 PA         -1.7206   -6.2776    2.8449 P.3       1 GTP        -1.1062
     11 O1A        -1.6495   -7.6739    2.2663 O.co2     1 GTP         0.3195
     12 O2A        -3.0460   -5.6590    3.2330 O.co2     1 GTP         0.3195
     13 O5'        -0.9724   -5.2440    1.8220 O.3       1 GTP         0.1618
     14 C5'        -0.7840   -3.8935    2.2172 C.3       1 GTP         0.1504
     15 C4'        -0.0724   -3.1466    1.1027 C.3       1 GTP         0.1111
     16 O4'        -0.8674   -3.1929   -0.0945 O.3       1 GTP        -0.1436
     17 C3'         0.1338   -1.6715    1.4027 C.3       1 GTP         0.1111
     18 O3'         1.2893   -1.4445    2.1808 O.3       1 GTP        -0.2728
     19 C2'         0.2158   -1.0724    0.0128 C.3       1 GTP         0.1111
     20 O2'         1.5141   -1.2448   -0.5513 O.3       1 GTP        -0.2728
     21 C1'        -0.7897   -1.9176   -0.7583 C.3       1 GTP         0.2693
     22 N9         -2.1040   -1.3333   -0.7704 N.pl3     1 GTP        -0.3222
     23 C8         -3.0597   -1.5109    0.1345 C.ar      1 GTP         0.1640
     24 N7         -4.1618   -0.8291   -0.1607 N.pl3     1 GTP        -0.3688
     25 C5         -3.8764   -0.1805   -1.3310 C.ar      1 GTP         0.0648
     26 C6         -4.7187    0.7111   -2.1152 C.ar      1 GTP         0.3597
     27 O6         -5.8617    1.0043   -1.7939 O.2       1 GTP        -0.2755
     28 N1         -4.0405    1.1608   -3.2468 N.pl3     1 GTP        -0.1604
     29 C2         -2.7239    0.8013   -3.5822 C.ar      1 GTP         0.4468
     30 N2         -2.2399    1.3534   -4.7394 N.pl3     1 GTP        -0.5618
     31 N3         -2.0053   -0.0071   -2.8402 N.2       1 GTP        -0.4283
     32 C4         -2.6290   -0.4727   -1.7210 C.ar      1 GTP         0.2226
     33 H5'        -1.7618   -3.4448    2.4164 H         1 GTP        -0.0393
     34 H5''       -0.1874   -3.8744    3.1341 H         1 GTP        -0.0393
     35 H4'         0.8874   -3.6466    0.8805 H         1 GTP        -0.0393
     36 H3'        -0.7376   -1.2333    1.9867 H         1 GTP        -0.0393
     37 HO3'        1.3408   -0.4870    2.3219 H         1 GTP         0.2010
     38 H2'        -0.0384   -0.0310    0.0096 H         1 GTP        -0.0393
     39 HO2'        2.1463   -0.7958    0.0370 H         1 GTP         0.2010
     40 H1'        -0.4769   -2.1002   -1.8093 H         1 GTP        -0.0393
     41 H8         -2.9610   -2.1316    1.0079 H         1 GTP         0.0000
     42 HN1        -4.5320    1.7923   -3.8726 H         1 GTP         0.0865
     43 HN21       -1.3128    1.1277   -5.0171 H         1 GTP         0.2048
     44 HN22       -2.8342    1.9586   -5.2572 H         1 GTP         0.2048
     45 H45        -5.0195   -0.8034    0.3729 H         1 GTP         0.2048
@<TRIPOS>BOND
     1    1    2 2
     2    1    3 1
     3    1    4 1
     4    1    5 1
     5    5    6 1
     6    6    7 2
     7    6    8 1
     8    6    9 1
     9    9   10 1
    10   10   11 2
    11   10   12 1
    12   10   13 1
    13   13   14 1
    14   14   15 1
    15   14   33 1
    16   14   34 1
    17   15   16 1
    18   15   17 1
    19   15   35 1
    20   16   21 1
    21   17   18 1
    22   17   19 1
    23   17   36 1
    24   18   37 1
    25   19   20 1
    26   19   21 1
    27   19   38 1
    28   20   39 1
    29   21   22 1
    30   21   40 1
    31   22   23 ar
    32   22   32 ar
    33   23   24 ar
    34   23   41 1
    35   24   25 ar
    36   24   45 1
    37   25   26 ar
    38   25   32 ar
    39   26   27 2
    40   26   28 ar
    41   28   29 ar
    42   28   42 1
    43   29   30 1
    44   29   31 ar
    45   30   43 1
    46   30   44 1
    47   31   32 ar
@<TRIPOS>SUBSTRUCTURE
     1 GTP         1 GROUP 0 A     ****
@<TRIPOS>MOLECULE
[[[5-(2-amino-6-oxo-7,8-dihydro-1~{H}-purin-8-ylium-9-yl)-3,4-dihydroxy-tetrahydrofuran-2-yl]methoxy-oxido-phosphoryl]oxy-oxido-phosphoryl] phosphate
   45    47     1     0     0
SMALL
USER_CHARGES

@<TRIPOS>ATOM
      1 PG         -5.8655   -3.4967    3.2858 P.3       1 GTP        -1.1921
      2 O1G        -4.5644   -2.7011    3.2799 O.co2     1 GTP         0.3195
      3 O2G        -6.7786   -3.2181    2.0965 O.co2     1 GTP         0.3195
      4 O3G        -6.5806   -3.5176    4.6327 O.co2     1 GTP         0.3195
      5 O3B        -5.3855   -5.0598    3.0707 O.3       1 GTP         0.4672
      6 PB         -4.3993   -5.9907    3.9816 P.3       1 GTP        -1.1062
      7 O1B        -4.4036   -5.4629    5.3990 O.co2     1 GTP         0.3195
      8 O2B        -4.6736   -7.4468    3.6784 O.co2     1 GTP         0.3195
      9 O3A        -2.9734   -5.6321    3.2719 O.3       1 GTP         0.4672
     10 PA         -2.4913   -5.8423    1.7249 P.3       1 GTP        -1.1062
     11 O1A        -2.4139   -7.3280    1.4486 O.co2     1 GTP         0.3195
     12 O2A        -3.2901   -4.9213    0.8284 O.co2     1 GTP         0.3195
     13 O5'        -0.9724   -5.2440    1.8220 O.3       1 GTP         0.1618
     14 C5'        -0.7840   -3.8935    2.2172 C.3       1 GTP         0.1504
     15 C4'        -0.0724   -3.1466    1.1027 C.3       1 GTP         0.1111
     16 O4'        -0.8674   -3.1929   -0.0945 O.3       1 GTP        -0.1436
     17 C3'         0.1338   -1.6715    1.4027 C.3       1 GTP         0.1111
     18 O3'         1.2893   -1.4445    2.1808 O.3       1 GTP        -0.2728
     19 C2'         0.2158   -1.0724    0.0128 C.3       1 GTP         0.1111
     20 O2'         1.5141   -1.2448   -0.5513 O.3       1 GTP        -0.2728
     21 C1'        -0.7897   -1.9176   -0.7583 C.3       1 GTP         0.2693
     22 N9         -2.1040   -1.3333   -0.7704 N.pl3     1 GTP        -0.3222
     23 C8         -3.0597   -1.5109    0.1345 C.ar      1 GTP         0.1640
     24 N7         -4.1618   -0.8291   -0.1607 N.pl3     1 GTP        -0.3688
     25 C5         -3.8764   -0.1805   -1.3310 C.ar      1 GTP         0.0648
     26 C6         -4.7187    0.7111   -2.1152 C.ar      1 GTP         0.3597
     27 O6         -5.8617    1.0043   -1.7939 O.2       1 GTP        -0.2755
     28 N1         -4.0405    1.1608   -3.2468 N.pl3     1 GTP        -0.1604
     29 C2         -2.7239    0.8013   -3.5822 C.ar      1 GTP         0.4468
     30 N2         -2.2399    1.3534   -4.7394 N.pl3     1 GTP        -0.5618
     31 N3         -2.0053   -0.0071   -2.8402 N.2       1 GTP        -0.4283
     32 C4         -2.6290   -0.4727   -1.7210 C.ar      1 GTP         0.2226
     33 H5'        -1.7618   -3.4448    2.4164 H         1 GTP        -0.0393
     34 H5''       -0.1874   -3.8744    3.1341 H         1 GTP        -0.0393
     35 H4'         0.8874   -3.6466    0.8805 H         1 GTP        -0.0393
     36 H3'        -0.7376   -1.2333    1.9867 H         1 GTP        -0.0393
     37 HO3'        1.3408   -0.4870    2.3219 H         1 GTP         0.2010
     38 H2'        -0.0384   -0.0310    0.0096 H         1 GTP        -0.0393
     39 HO2'        2.1463   -0.7958    0.0370 H         1 GTP         0.2010
     40 H1'        -0.4769   -2.1002   -1.8093 H         1 GTP        -0.0393
     41 H8         -2.9610   -2.1316    1.0079 H         1 GTP         0.0000
     42 HN1        -4.5320    1.7923   -3.8726 H         1 GTP         0.0865
     43 HN21       -1.3128    1.1277   -5.0171 H         1 GTP         0.2048
     44 HN22       -2.8342    1.9586   -5.2572 H         1 GTP         0.2048
     45 H45        -5.0195   -0.8034    0.3729 H         1 GTP         0.2048
@<TRIPOS>BOND
     1    1    2 2
     2    1    3 1
     3    1    4 1
     4    1    5 1
     5    5    6 1
     6    6    7 2
     7    6    8 1
     8    6    9 1
     9    9   10 1
    10   10   11 2
    11   10   12 1
    12   10   13 1
    13   13   14 1
    14   14   15 1
    15   14   33 1
    16   14   34 1
    17   15   16 1
    18   15   17 1
    19   15   35 1
    20   16   21 1
    21   17   18 1
    22   17   19 1
    23   17   36 1
    24   18   37 1
    25   19   20 1
    26   19   21 1
    27   19   38 1
    28   20   39 1
    29   21   22 1
    30   21   40 1
    31   22   23 ar
    32   22   32 ar
    33   23   24 ar
    34   23   41 1
    35   24   25 ar
    36   24   45 1
    37   25   26 ar
    38   25   32 ar
    39   26   27 2
    40   26   28 ar
    41   28   29 ar
    42   28   42 1
    43   29   30 1
    44   29   31 ar
    45   30   43 1
    46   30   44 1
    47   31   32 ar
@<TRIPOS>SUBSTRUCTURE
     1 GTP         1 GROUP 0 A     ****
@<TRIPOS>MOLECULE
[[[5-(2-amino-6-oxo-7,8-dihydro-1~{H}-purin-8-ylium-9-yl)-3,4-dihydroxy-tetrahydrofuran-2-yl]methoxy-oxido-phosphoryl]oxy-oxido-phosphoryl] phosphate
   45    47     1     0     0
SMALL
USER_CHARGES

@<TRIPOS>ATOM
      1 PG          2.0149   -2.3761   -7.1498 P.3       1 GTP        -1.1921
      2 O1G         3.0199   -2.0351   -8.2450 O.co2     1 GTP         0.3195
      3 O2G         0.8478   -3.2410   -7.6140 O.co2     1 GTP         0.3195
      4 O3G         1.6085   -1.1899   -6.2816 O.co2     1 GTP         0.3195
      5 O3B         2.8554   -3.3497   -6.1176 O.3       1 GTP         0.4672
      6 PB          4.2169   -3.0506   -5.2656 P.3       1 GTP        -1.1062
      7 O1B         4.4954   -4.2314   -4.3624 O.co2     1 GTP         0.3195
      8 O2B         5.2733   -2.5007   -6.1978 O.co2     1 GTP         0.3195
      9 O3A         3.6919   -1.7915   -4.3687 O.3       1 GTP         0.4672
     10 PA          4.4792   -0.9077   -3.2423 P.3       1 GTP        -1.1062
     11 O1A         4.7811   -1.8033   -2.0606 O.co2     1 GTP         0.3195
     12 O2A         5.5730   -0.1082   -3.9165 O.co2     1 GTP         0.3195
     13 O5'         3.2903    0.1346   -2.8241 O.3       1 GTP         0.1618
     14 C5'         2.2816   -0.2918   -1.9206 C.3       1 GTP         0.1504
     15 C4'         2.7248    0.0226   -0.4980 C.3       1 GTP         0.1111
     16 O4'         2.4697    1.4219   -0.2462 O.3       1 GTP        -0.1436
     17 C3'         1.9404   -0.7419    0.5596 C.3       1 GTP         0.1111
     18 O3'         2.7418   -0.8086    1.7389 O.3       1 GTP        -0.2728
     19 C2'         0.7477    0.1630    0.7858 C.3       1 GTP         0.1111
     20 O2'         0.1373   -0.0577    2.0407 O.3       1 GTP        -0.2728
     21 C1'         1.3733    1.5427    0.6747 C.3       1 GTP         0.2693
     22 N9          0.4520    2.5240    0.1767 N.pl3     1 GTP        -0.3222
     23 C8          0.2203    2.8205   -1.0970 C.ar      1 GTP         0.1640
     24 N7         -0.6947    3.7752   -1.2304 N.pl3     1 GTP        -0.3688
     25 C5         -1.0607    4.0987    0.0476 C.ar      1 GTP         0.0648
     26 C6         -2.0310    5.0839    0.5029 C.ar      1 GTP         0.3597
     27 O6         -2.6779    5.7867   -0.2609 O.2       1 GTP        -0.2755
     28 N1         -2.1030    5.0975    1.8948 N.pl3     1 GTP        -0.1604
     29 C2         -1.3422    4.2721    2.7403 C.ar      1 GTP         0.4468
     30 N2         -1.5624    4.4419    4.0823 N.pl3     1 GTP        -0.5618
     31 N3         -0.4796    3.3981    2.2792 N.2       1 GTP        -0.4283
     32 C4         -0.3754    3.3496    0.9208 C.ar      1 GTP         0.2226
     33 H5'         1.3514    0.2330   -2.1577 H         1 GTP        -0.0393
     34 H5''        2.1280   -1.3678   -2.0460 H         1 GTP        -0.0393
     35 H4'         3.8044   -0.1397   -0.4040 H         1 GTP        -0.0393
     36 H3'         1.6764   -1.7639    0.2728 H         1 GTP        -0.0393
     37 HO3'        3.5554   -1.2733    1.4914 H         1 GTP         0.2010
     38 H2'        -0.0011    0.0027    0.0003 H         1 GTP        -0.0393
     39 HO2'       -0.1563   -0.9855    2.0596 H         1 GTP         0.2010
     40 H1'         1.7826    1.9024    1.6451 H         1 GTP        -0.0393
     41 H8          0.7110    2.3472   -1.9295 H         1 GTP         0.0000
     42 HN1        -2.7504    5.7495    2.3282 H         1 GTP         0.0865
     43 HN21       -1.0467    3.8796    4.7190 H         1 GTP         0.2048
     44 HN22       -2.2294    5.1209    4.3680 H         1 GTP         0.2048
     45 H45        -1.0382    4.1687   -2.0954 H         1 GTP         0.2048
@<TRIPOS>BOND
     1    1    2 2
     2    1    3 1
     3    1    4 1
     4    1    5 1
     5    5    6 1
     6    6    7 2
     7    6    8 1
     8    6    9 1
     9    9   10 1
    10   10   11 2
    11   10   12 1
    12   10   13 1
    13   13   14 1
    14   14   15 1
    15   14   33 1
    16   14   34 1
    17   15   16 1
    18   15   17 1
    19   15   35 1
    20   16   21 1
    21   17   18 1
    22   17   19 1
    23   17   36 1
    24   18   37 1
    25   19   20 1
    26   19   21 1
    27   19   38 1
    28   20   39 1
    29   21   22 1
    30   21   40 1
    31   22   23 ar
    32   22   32 ar
    33   23   24 ar
    34   23   41 1
    35   24   25 ar
    36   24   45 1
    37   25   26 ar
    38   25   32 ar
    39   26   27 2
    40   26   28 ar
    41   28   29 ar
    42   28   42 1
    43   29   30 1
    44   29   31 ar
    45   30   43 1
    46   30   44 1
    47   31   32 ar
@<TRIPOS>SUBSTRUCTURE
     1 GTP         1 GROUP 0 A     ****
@<TRIPOS>MOLECULE
[[[5-(2-amino-6-oxo-7,8-dihydro-1~{H}-purin-8-ylium-9-yl)-3,4-dihydroxy-tetrahydrofuran-2-yl]methoxy-oxido-phosphoryl]oxy-oxido-phosphoryl] phosphate
   45    47     1     0     0
SMALL
USER_CHARGES

@<TRIPOS>ATOM
      1 PG         -0.4680    0.5837   -5.7641 P.3       1 GTP        -1.1921
      2 O1G         0.6269    1.6433   -5.6991 O.co2     1 GTP         0.3195
      3 O2G        -1.4546    0.7683   -6.9122 O.co2     1 GTP         0.3195
      4 O3G        -1.1211    0.2750   -4.4210 O.co2     1 GTP         0.3195
      5 O3B         0.3356   -0.8066   -6.1399 O.3       1 GTP         0.4672
      6 PB          1.5280   -1.5811   -5.3353 P.3       1 GTP        -1.1062
      7 O1B         1.8196   -2.8886   -6.0374 O.co2     1 GTP         0.3195
      8 O2B         2.6276   -0.5948   -5.0105 O.co2     1 GTP         0.3195
      9 O3A         0.7459   -1.8788   -3.9335 O.3       1 GTP         0.4672
     10 PA          1.2687   -2.6351   -2.5828 P.3       1 GTP        -1.1062
     11 O1A         0.1988   -2.5052   -1.5207 O.co2     1 GTP         0.3195
     12 O2A         1.8350   -3.9866   -2.9603 O.co2     1 GTP         0.3195
     13 O5'         2.5245   -1.6648   -2.1878 O.3       1 GTP         0.1618
     14 C5'         2.2816   -0.2918   -1.9206 C.3       1 GTP         0.1504
     15 C4'         2.7248    0.0226   -0.4980 C.3       1 GTP         0.1111
     16 O4'         2.4697    1.4219   -0.2462 O.3       1 GTP        -0.1436
     17 C3'         1.9404   -0.7419    0.5596 C.3       1 GTP         0.1111
     18 O3'         2.7418   -0.8086    1.7389 O.3       1 GTP        -0.2728
     19 C2'         0.7477    0.1630    0.7858 C.3       1 GTP         0.1111
     20 O2'         0.1373   -0.0577    2.0407 O.3       1 GTP        -0.2728
     21 C1'         1.3733    1.5427    0.6747 C.3       1 GTP         0.2693
     22 N9          0.4520    2.5240    0.1767 N.pl3     1 GTP        -0.3222
     23 C8          0.2203    2.8205   -1.0970 C.ar      1 GTP         0.1640
     24 N7         -0.6947    3.7752   -1.2304 N.pl3     1 GTP        -0.3688
     25 C5         -1.0607    4.0987    0.0476 C.ar      1 GTP         0.0648
     26 C6         -2.0310    5.0839    0.5029 C.ar      1 GTP         0.3597
     27 O6         -2.6779    5.7867   -0.2609 O.2       1 GTP        -0.2755
     28 N1         -2.1030    5.0975    1.8948 N.pl3     1 GTP        -0.1604
     29 C2         -1.3422    4.2721    2.7403 C.ar      1 GTP         0.4468
     30 N2         -1.5624    4.4419    4.0823 N.pl3     1 GTP        -0.5618
     31 N3         -0.4796    3.3981    2.2792 N.2       1 GTP        -0.4283
     32 C4         -0.3754    3.3496    0.9208 C.ar      1 GTP         0.2226
     33 H5'         2.8432    0.3119   -2.6398 H         1 GTP        -0.0393
     34 H5''        1.2128   -0.0927   -2.0428 H         1 GTP        -0.0393
     35 H4'         3.8044   -0.1397   -0.4040 H         1 GTP        -0.0393
     36 H3'         1.6764   -1.7639    0.2728 H         1 GTP        -0.0393
     37 HO3'        3.5554   -1.2733    1.4914 H         1 GTP         0.2010
     38 H2'        -0.0011    0.0027    0.0003 H         1 GTP        -0.0393
     39 HO2'       -0.6141    0.5574    2.1082 H         1 GTP         0.2010
     40 H1'         1.7826    1.9024    1.6451 H         1 GTP        -0.0393
     41 H8          0.7110    2.3472   -1.9295 H         1 GTP         0.0000
     42 HN1        -2.7504    5.7495    2.3282 H         1 GTP         0.0865
     43 HN21       -1.0467    3.8796    4.7190 H         1 GTP         0.2048
     44 HN22       -2.2294    5.1209    4.3680 H         1 GTP         0.2048
     45 H45        -1.0382    4.1687   -2.0954 H         1 GTP         0.2048
@<TRIPOS>BOND
     1    1    2 2
     2    1    3 1
     3    1    4 1
     4    1    5 1
     5    5    6 1
     6    6    7 2
     7    6    8 1
     8    6    9 1
     9    9   10 1
    10   10   11 2
    11   10   12 1
    12   10   13 1
    13   13   14 1
    14   14   15 1
    15   14   33 1
    16   14   34 1
    17   15   16 1
    18   15   17 1
    19   15   35 1
    20   16   21 1
    21   17   18 1
    22   17   19 1
    23   17   36 1
    24   18   37 1
    25   19   20 1
    26   19   21 1
    27   19   38 1
    28   20   39 1
    29   21   22 1
    30   21   40 1
    31   22   23 ar
    32   22   32 ar
    33   23   24 ar
    34   23   41 1
    35   24   25 ar
    36   24   45 1
    37   25   26 ar
    38   25   32 ar
    39   26   27 2
    40   26   28 ar
    41   28   29 ar
    42   28   42 1
    43   29   30 1
    44   29   31 ar
    45   30   43 1
    46   30   44 1
    47   31   32 ar
@<TRIPOS>SUBSTRUCTURE
     1 GTP         1 GROUP 0 A     ****
@<TRIPOS>MOLECULE
[[[5-(2-amino-6-oxo-7,8-dihydro-1~{H}-purin-8-ylium-9-yl)-3,4-dihydroxy-tetrahydrofuran-2-yl]methoxy-oxido-phosphoryl]oxy-oxido-phosphoryl] phosphate
   45    47     1     0     0
SMALL
USER_CHARGES

@<TRIPOS>ATOM
      1 PG         -1.4958   -6.9720    7.7572 P.3       1 GTP        -1.1921
      2 O1G        -1.8247   -8.4609    7.7285 O.co2     1 GTP         0.3195
      3 O2G        -0.0453   -6.6548    8.1052 O.co2     1 GTP         0.3195
      4 O3G        -2.5187   -6.1189    8.5000 O.co2     1 GTP         0.3195
      5 O3B        -1.6498   -6.4928    6.1866 O.3       1 GTP         0.4672
      6 PB         -2.9460   -6.5482    5.1937 P.3       1 GTP        -1.1062
      7 O1B        -3.2971   -7.9958    4.9316 O.co2     1 GTP         0.3195
      8 O2B        -3.9819   -5.5574    5.6762 O.co2     1 GTP         0.3195
      9 O3A        -2.2759   -5.8997    3.8537 O.3       1 GTP         0.4672
     10 PA         -1.0041   -6.4128    2.9654 P.3       1 GTP        -1.1062
     11 O1A         0.2443   -6.3004    3.8130 O.co2     1 GTP         0.3195
     12 O2A        -1.3703   -7.7124    2.2820 O.co2     1 GTP         0.3195
     13 O5'        -0.9724   -5.2440    1.8220 O.3       1 GTP         0.1618
     14 C5'        -0.7840   -3.8935    2.2172 C.3       1 GTP         0.1504
     15 C4'        -0.0724   -3.1466    1.1027 C.3       1 GTP         0.1111
     16 O4'        -0.8674   -3.1929   -0.0945 O.3       1 GTP        -0.1436
     17 C3'         0.1338   -1.6715    1.4027 C.3       1 GTP         0.1111
     18 O3'         1.2893   -1.4445    2.1808 O.3       1 GTP        -0.2728
     19 C2'         0.2158   -1.0724    0.0128 C.3       1 GTP         0.1111
     20 O2'         1.5141   -1.2448   -0.5513 O.3       1 GTP        -0.2728
     21 C1'        -0.7897   -1.9176   -0.7583 C.3       1 GTP         0.2693
     22 N9         -2.1040   -1.3333   -0.7704 N.pl3     1 GTP        -0.3222
     23 C8         -3.0597   -1.5109    0.1345 C.ar      1 GTP         0.1640
     24 N7         -4.1618   -0.8291   -0.1607 N.pl3     1 GTP        -0.3688
     25 C5         -3.8764   -0.1805   -1.3310 C.ar      1 GTP         0.0648
     26 C6         -4.7187    0.7111   -2.1152 C.ar      1 GTP         0.3597
     27 O6         -5.8617    1.0043   -1.7939 O.2       1 GTP        -0.2755
     28 N1         -4.0405    1.1608   -3.2468 N.pl3     1 GTP        -0.1604
     29 C2         -2.7239    0.8013   -3.5822 C.ar      1 GTP         0.4468
     30 N2         -2.2399    1.3534   -4.7394 N.pl3     1 GTP        -0.5618
     31 N3         -2.0053   -0.0071   -2.8402 N.2       1 GTP        -0.4283
     32 C4         -2.6290   -0.4727   -1.7210 C.ar      1 GTP         0.2226
     33 H5'        -1.7618   -3.4448    2.4164 H         1 GTP        -0.0393
     34 H5''       -0.1874   -3.8744    3.1341 H         1 GTP        -0.0393
     35 H4'         0.8874   -3.6466    0.8805 H         1 GTP        -0.0393
     36 H3'        -0.7376   -1.2333    1.9867 H         1 GTP        -0.0393
     37 HO3'        1.1626   -1.9325    3.0084 H         1 GTP         0.2010
     38 H2'        -0.0384   -0.0310    0.0096 H         1 GTP        -0.0393
     39 HO2'        2.1463   -0.7958    0.0370 H         1 GTP         0.2010
     40 H1'        -0.4769   -2.1002   -1.8093 H         1 GTP        -0.0393
     41 H8         -2.9610   -2.1316    1.0079 H         1 GTP         0.0000
     42 HN1        -4.5320    1.7923   -3.8726 H         1 GTP         0.0865
     43 HN21       -1.3128    1.1277   -5.0171 H         1 GTP         0.2048
     44 HN22       -2.8342    1.9586   -5.2572 H         1 GTP         0.2048
     45 H45        -5.0195   -0.8034    0.3729 H         1 GTP         0.2048
@<TRIPOS>BOND
     1    1    2 2
     2    1    3 1
     3    1    4 1
     4    1    5 1
     5    5    6 1
     6    6    7 2
     7    6    8 1
     8    6    9 1
     9    9   10 1
    10   10   11 2
    11   10   12 1
    12   10   13 1
    13   13   14 1
    14   14   15 1
    15   14   33 1
    16   14   34 1
    17   15   16 1
    18   15   17 1
    19   15   35 1
    20   16   21 1
    21   17   18 1
    22   17   19 1
    23   17   36 1
    24   18   37 1
    25   19   20 1
    26   19   21 1
    27   19   38 1
    28   20   39 1
    29   21   22 1
    30   21   40 1
    31   22   23 ar
    32   22   32 ar
    33   23   24 ar
    34   23   41 1
    35   24   25 ar
    36   24   45 1
    37   25   26 ar
    38   25   32 ar
    39   26   27 2
    40   26   28 ar
    41   28   29 ar
    42   28   42 1
    43   29   30 1
    44   29   31 ar
    45   30   43 1
    46   30   44 1
    47   31   32 ar
@<TRIPOS>SUBSTRUCTURE
     1 GTP         1 GROUP 0 A     ****
@<TRIPOS>MOLECULE
[[[5-(2-amino-6-oxo-7,8-dihydro-1~{H}-purin-8-ylium-9-yl)-3,4-dihydroxy-tetrahydrofuran-2-yl]methoxy-oxido-phosphoryl]oxy-oxido-phosphoryl] phosphate
   45    47     1     0     0
SMALL
USER_CHARGES

@<TRIPOS>ATOM
      1 PG          4.2090   -3.6630   -7.8142 P.3       1 GTP        -1.1921
      2 O1G         5.3528   -2.8375   -8.3939 O.co2     1 GTP         0.3195
      3 O2G         4.6161   -5.0519   -7.3338 O.co2     1 GTP         0.3195
      4 O3G         2.9332   -3.6385   -8.6495 O.co2     1 GTP         0.3195
      5 O3B         3.7911   -2.8631   -6.4339 O.3       1 GTP         0.4672
      6 PB          3.2607   -1.3318   -6.2266 P.3       1 GTP        -1.1062
      7 O1B         4.3690   -0.3766   -6.6098 O.co2     1 GTP         0.3195
      8 O2B         1.8708   -1.2062   -6.8096 O.co2     1 GTP         0.3195
      9 O3A         3.0822   -1.3351   -4.6038 O.3       1 GTP         0.4672
     10 PA          2.1375   -2.2725   -3.6560 P.3       1 GTP        -1.1062
     11 O1A         0.6906   -1.9446   -3.9539 O.co2     1 GTP         0.3195
     12 O2A         2.6428   -3.6980   -3.7095 O.co2     1 GTP         0.3195
     13 O5'         2.5245   -1.6648   -2.1878 O.3       1 GTP         0.1618
     14 C5'         2.2816   -0.2918   -1.9206 C.3       1 GTP         0.1504
     15 C4'         2.7248    0.0226   -0.4980 C.3       1 GTP         0.1111
     16 O4'         2.4697    1.4219   -0.2462 O.3       1 GTP        -0.1436
     17 C3'         1.9404   -0.7419    0.5596 C.3       1 GTP         0.1111
     18 O3'         2.7418   -0.8086    1.7389 O.3       1 GTP        -0.2728
     19 C2'         0.7477    0.1630    0.7858 C.3       1 GTP         0.1111
     20 O2'         0.1373   -0.0577    2.0407 O.3       1 GTP        -0.2728
     21 C1'         1.3733    1.5427    0.6747 C.3       1 GTP         0.2693
     22 N9          0.4520    2.5240    0.1767 N.pl3     1 GTP        -0.3222
     23 C8         -0.3350    3.3125    0.8998 C.ar      1 GTP         0.1640
     24 N7         -1.0716    4.1171    0.1405 N.pl3     1 GTP        -0.3688
     25 C5         -0.7219    3.8110   -1.1464 C.ar      1 GTP         0.0648
     26 C6         -1.2133    4.3827   -2.3917 C.ar      1 GTP         0.3597
     27 O6         -2.0567    5.2674   -2.4335 O.2       1 GTP        -0.2755
     28 N1         -0.5926    3.7846   -3.4870 N.pl3     1 GTP        -0.1604
     29 C2          0.3749    2.7691   -3.3983 C.ar      1 GTP         0.4468
     30 N2          0.8624    2.3146   -4.5959 N.pl3     1 GTP        -0.5618
     31 N3          0.7851    2.2875   -2.2493 N.2       1 GTP        -0.4283
     32 C4          0.2042    2.8436   -1.1486 C.ar      1 GTP         0.2226
     33 H5'         2.8432    0.3119   -2.6398 H         1 GTP        -0.0393
     34 H5''        1.2128   -0.0927   -2.0428 H         1 GTP        -0.0393
     35 H4'         3.8044   -0.1397   -0.4040 H         1 GTP        -0.0393
     36 H3'         1.6764   -1.7639    0.2728 H         1 GTP        -0.0393
     37 HO3'        2.2232   -1.2979    2.3953 H         1 GTP         0.2010
     38 H2'        -0.0011    0.0027    0.0003 H         1 GTP        -0.0393
     39 HO2'       -0.6141    0.5574    2.1082 H         1 GTP         0.2010
     40 H1'         1.7826    1.9024    1.6451 H         1 GTP        -0.0393
     41 H8         -0.3766    3.3075    1.9750 H         1 GTP         0.0000
     42 HN1        -0.8580    4.1049   -4.4138 H         1 GTP         0.0865
     43 HN21        1.5490    1.5963   -4.5827 H         1 GTP         0.2048
     44 HN22        0.5109    2.7205   -5.4321 H         1 GTP         0.2048
     45 H45        -1.7420    4.8034    0.4575 H         1 GTP         0.2048
@<TRIPOS>BOND
     1    1    2 2
     2    1    3 1
     3    1    4 1
     4    1    5 1
     5    5    6 1
     6    6    7 2
     7    6    8 1
     8    6    9 1
     9    9   10 1
    10   10   11 2
    11   10   12 1
    12   10   13 1
    13   13   14 1
    14   14   15 1
    15   14   33 1
    16   14   34 1
    17   15   16 1
    18   15   17 1
    19   15   35 1
    20   16   21 1
    21   17   18 1
    22   17   19 1
    23   17   36 1
    24   18   37 1
    25   19   20 1
    26   19   21 1
    27   19   38 1
    28   20   39 1
    29   21   22 1
    30   21   40 1
    31   22   23 ar
    32   22   32 ar
    33   23   24 ar
    34   23   41 1
    35   24   25 ar
    36   24   45 1
    37   25   26 ar
    38   25   32 ar
    39   26   27 2
    40   26   28 ar
    41   28   29 ar
    42   28   42 1
    43   29   30 1
    44   29   31 ar
    45   30   43 1
    46   30   44 1
    47   31   32 ar
@<TRIPOS>SUBSTRUCTURE
     1 GTP         1 GROUP 0 A     ****
@<TRIPOS>MOLECULE
[[[5-(2-amino-6-oxo-7,8-dihydro-1~{H}-purin-8-ylium-9-yl)-3,4-dihydroxy-tetrahydrofuran-2-yl]methoxy-oxido-phosphoryl]oxy-oxido-phosphoryl] phosphate
   45    47     1     0     0
SMALL
USER_CHARGES

@<TRIPOS>ATOM
      1 PG          5.8725   -3.7403   -6.9233 P.3       1 GTP        -1.1921
      2 O1G         4.8248   -4.5370   -7.6936 O.co2     1 GTP         0.3195
      3 O2G         6.5418   -2.6343   -7.7322 O.co2     1 GTP         0.3195
      4 O3G         6.8404   -4.5972   -6.1140 O.co2     1 GTP         0.3195
      5 O3B         5.0054   -2.9346   -5.7750 O.3       1 GTP         0.4672
      6 PB          4.0533   -3.5124   -4.5797 P.3       1 GTP        -1.1062
      7 O1B         2.8570   -4.1998   -5.1994 O.co2     1 GTP         0.3195
      8 O2B         4.9175   -4.2042   -3.5492 O.co2     1 GTP         0.3195
      9 O3A         3.5834   -2.0978   -3.9137 O.3       1 GTP         0.4672
     10 PA          4.4792   -0.9077   -3.2423 P.3       1 GTP        -1.1062
     11 O1A         5.1201   -1.4478   -1.9825 O.co2     1 GTP         0.3195
     12 O2A         5.3102   -0.2460   -4.3201 O.co2     1 GTP         0.3195
     13 O5'         3.2903    0.1346   -2.8241 O.3       1 GTP         0.1618
     14 C5'         2.2816   -0.2918   -1.9206 C.3       1 GTP         0.1504
     15 C4'         2.7248    0.0226   -0.4980 C.3       1 GTP         0.1111
     16 O4'         2.4697    1.4219   -0.2462 O.3       1 GTP        -0.1436
     17 C3'         1.9404   -0.7419    0.5596 C.3       1 GTP         0.1111
     18 O3'         2.7418   -0.8086    1.7389 O.3       1 GTP        -0.2728
     19 C2'         0.7477    0.1630    0.7858 C.3       1 GTP         0.1111
     20 O2'         0.1373   -0.0577    2.0407 O.3       1 GTP        -0.2728
     21 C1'         1.3733    1.5427    0.6747 C.3       1 GTP         0.2693
     22 N9          0.4520    2.5240    0.1767 N.pl3     1 GTP        -0.3222
     23 C8          0.2203    2.8205   -1.0970 C.ar      1 GTP         0.1640
     24 N7         -0.6947    3.7752   -1.2304 N.pl3     1 GTP        -0.3688
     25 C5         -1.0607    4.0987    0.0476 C.ar      1 GTP         0.0648
     26 C6         -2.0310    5.0839    0.5029 C.ar      1 GTP         0.3597
     27 O6         -2.6779    5.7867   -0.2609 O.2       1 GTP        -0.2755
     28 N1         -2.1030    5.0975    1.8948 N.pl3     1 GTP        -0.1604
     29 C2         -1.3422    4.2721    2.7403 C.ar      1 GTP         0.4468
     30 N2         -1.5624    4.4419    4.0823 N.pl3     1 GTP        -0.5618
     31 N3         -0.4796    3.3981    2.2792 N.2       1 GTP        -0.4283
     32 C4         -0.3754    3.3496    0.9208 C.ar      1 GTP         0.2226
     33 H5'         1.3514    0.2330   -2.1577 H         1 GTP        -0.0393
     34 H5''        2.1280   -1.3678   -2.0460 H         1 GTP        -0.0393
     35 H4'         3.8044   -0.1397   -0.4040 H         1 GTP        -0.0393
     36 H3'         1.6764   -1.7639    0.2728 H         1 GTP        -0.0393
     37 HO3'        3.5554   -1.2733    1.4914 H         1 GTP         0.2010
     38 H2'        -0.0011    0.0027    0.0003 H         1 GTP        -0.0393
     39 HO2'       -0.6141    0.5574    2.1082 H         1 GTP         0.2010
     40 H1'         1.7826    1.9024    1.6451 H         1 GTP        -0.0393
     41 H8          0.7110    2.3472   -1.9295 H         1 GTP         0.0000
     42 HN1        -2.7504    5.7495    2.3282 H         1 GTP         0.0865
     43 HN21       -1.0467    3.8796    4.7190 H         1 GTP         0.2048
     44 HN22       -2.2294    5.1209    4.3680 H         1 GTP         0.2048
     45 H45        -1.0382    4.1687   -2.0954 H         1 GTP         0.2048
@<TRIPOS>BOND
     1    1    2 2
     2    1    3 1
     3    1    4 1
     4    1    5 1
     5    5    6 1
     6    6    7 2
     7    6    8 1
     8    6    9 1
     9    9   10 1
    10   10   11 2
    11   10   12 1
    12   10   13 1
    13   13   14 1
    14   14   15 1
    15   14   33 1
    16   14   34 1
    17   15   16 1
    18   15   17 1
    19   15   35 1
    20   16   21 1
    21   17   18 1
    22   17   19 1
    23   17   36 1
    24   18   37 1
    25   19   20 1
    26   19   21 1
    27   19   38 1
    28   20   39 1
    29   21   22 1
    30   21   40 1
    31   22   23 ar
    32   22   32 ar
    33   23   24 ar
    34   23   41 1
    35   24   25 ar
    36   24   45 1
    37   25   26 ar
    38   25   32 ar
    39   26   27 2
    40   26   28 ar
    41   28   29 ar
    42   28   42 1
    43   29   30 1
    44   29   31 ar
    45   30   43 1
    46   30   44 1
    47   31   32 ar
@<TRIPOS>SUBSTRUCTURE
     1 GTP         1 GROUP 0 A     ****
@<TRIPOS>MOLECULE
[[[5-(2-amino-6-oxo-7,8-dihydro-1~{H}-purin-8-ylium-9-yl)-3,4-dihydroxy-tetrahydrofuran-2-yl]methoxy-oxido-phosphoryl]oxy-oxido-phosphoryl] phosphate
   45    47     1     0     0
SMALL
USER_CHARGES

@<TRIPOS>ATOM
      1 PG          0.7755    3.6608   -6.5927 P.3       1 GTP        -1.1921
      2 O1G         1.1316    4.0459   -5.1607 O.co2     1 GTP         0.3195
      3 O2G         1.7745    4.1410   -7.6401 O.co2     1 GTP         0.3195
      4 O3G        -0.6842    3.9040   -6.9619 O.co2     1 GTP         0.3195
      5 O3B         0.9196    2.0182   -6.6183 O.3       1 GTP         0.4672
      6 PB          0.1382    0.8813   -5.7431 P.3       1 GTP        -1.1062
      7 O1B        -1.1867    1.4470   -5.2823 O.co2     1 GTP         0.3195
      8 O2B         0.2243   -0.4450   -6.4649 O.co2     1 GTP         0.3195
      9 O3A         1.1591    0.7827   -4.4728 O.3       1 GTP         0.4672
     10 PA          2.7413    0.3775   -4.4298 P.3       1 GTP        -1.1062
     11 O1A         2.8705   -1.0776   -4.8246 O.co2     1 GTP         0.3195
     12 O2A         3.5462    1.4514   -5.1291 O.co2     1 GTP         0.3195
     13 O5'         3.0213    0.5153   -2.8245 O.3       1 GTP         0.1618
     14 C5'         2.2816   -0.2918   -1.9206 C.3       1 GTP         0.1504
     15 C4'         2.7248    0.0226   -0.4980 C.3       1 GTP         0.1111
     16 O4'         2.4697    1.4219   -0.2462 O.3       1 GTP        -0.1436
     17 C3'         1.9404   -0.7419    0.5596 C.3       1 GTP         0.1111
     18 O3'         2.7418   -0.8086    1.7389 O.3       1 GTP        -0.2728
     19 C2'         0.7477    0.1630    0.7858 C.3       1 GTP         0.1111
     20 O2'         0.1373   -0.0577    2.0407 O.3       1 GTP        -0.2728
     21 C1'         1.3733    1.5427    0.6747 C.3       1 GTP         0.2693
     22 N9          0.4520    2.5240    0.1767 N.pl3     1 GTP        -0.3222
     23 C8         -0.8613    2.5511    0.3730 C.ar      1 GTP         0.1640
     24 N7         -1.4346    3.5939   -0.2188 N.pl3     1 GTP        -0.3688
     25 C5         -0.4099    4.2657   -0.8276 C.ar      1 GTP         0.0648
     26 C6         -0.4554    5.4854   -1.6209 C.ar      1 GTP         0.3597
     27 O6         -1.4907    6.0944   -1.8508 O.2       1 GTP        -0.2755
     28 N1          0.8205    5.8357   -2.0593 N.pl3     1 GTP        -0.1604
     29 C2          1.9890    5.1091   -1.7730 C.ar      1 GTP         0.4468
     30 N2          3.1452    5.6230   -2.2997 N.pl3     1 GTP        -0.5618
     31 N3          1.9765    4.0139   -1.0514 N.2       1 GTP        -0.4283
     32 C4          0.7480    3.6324   -0.6003 C.ar      1 GTP         0.2226
     33 H5'         1.2163   -0.0770   -2.0471 H         1 GTP        -0.0393
     34 H5''        2.4655   -1.3443   -2.1563 H         1 GTP        -0.0393
     35 H4'         3.8044   -0.1397   -0.4040 H         1 GTP        -0.0393
     36 H3'         1.6764   -1.7639    0.2728 H         1 GTP        -0.0393
     37 HO3'        3.5554   -1.2733    1.4914 H         1 GTP         0.2010
     38 H2'        -0.0011    0.0027    0.0003 H         1 GTP        -0.0393
     39 HO2'        0.8082    0.1199    2.7232 H         1 GTP         0.2010
     40 H1'         1.7826    1.9024    1.6451 H         1 GTP        -0.0393
     41 H8         -1.4050    1.8187    0.9438 H         1 GTP         0.0000
     42 HN1         0.9121    6.6744   -2.6251 H         1 GTP         0.0865
     43 HN21        3.9971    5.1427   -2.1235 H         1 GTP         0.2048
     44 HN22        3.0881    6.4564   -2.8380 H         1 GTP         0.2048
     45 H45        -2.4173    3.8294   -0.2127 H         1 GTP         0.2048
@<TRIPOS>BOND
     1    1    2 2
     2    1    3 1
     3    1    4 1
     4    1    5 1
     5    5    6 1
     6    6    7 2
     7    6    8 1
     8    6    9 1
     9    9   10 1
    10   10   11 2
    11   10   12 1
    12   10   13 1
    13   13   14 1
    14   14   15 1
    15   14   33 1
    16   14   34 1
    17   15   16 1
    18   15   17 1
    19   15   35 1
    20   16   21 1
    21   17   18 1
    22   17   19 1
    23   17   36 1
    24   18   37 1
    25   19   20 1
    26   19   21 1
    27   19   38 1
    28   20   39 1
    29   21   22 1
    30   21   40 1
    31   22   23 ar
    32   22   32 ar
    33   23   24 ar
    34   23   41 1
    35   24   25 ar
    36   24   45 1
    37   25   26 ar
    38   25   32 ar
    39   26   27 2
    40   26   28 ar
    41   28   29 ar
    42   28   42 1
    43   29   30 1
    44   29   31 ar
    45   30   43 1
    46   30   44 1
    47   31   32 ar
@<TRIPOS>SUBSTRUCTURE
     1 GTP         1 GROUP 0 A     ****
@<TRIPOS>MOLECULE
[[[5-(2-amino-6-oxo-7,8-dihydro-1~{H}-purin-8-ylium-9-yl)-3,4-dihydroxy-tetrahydrofuran-2-yl]methoxy-oxido-phosphoryl]oxy-oxido-phosphoryl] phosphate
   45    47     1     0     0
SMALL
USER_CHARGES

@<TRIPOS>ATOM
      1 PG         -1.4245   -4.5488    6.9165 P.3       1 GTP        -1.1921
      2 O1G        -2.7454   -3.8469    7.2138 O.co2     1 GTP         0.3195
      3 O2G        -0.5318   -4.7524    8.1360 O.co2     1 GTP         0.3195
      4 O3G        -0.6944   -4.0151    5.6884 O.co2     1 GTP         0.3195
      5 O3B        -1.8668   -6.0760    6.4786 O.3       1 GTP         0.4672
      6 PB         -2.8191   -6.5828    5.2516 P.3       1 GTP        -1.1062
      7 O1B        -2.7908   -8.0943    5.2056 O.co2     1 GTP         0.3195
      8 O2B        -4.1224   -5.8163    5.2873 O.co2     1 GTP         0.3195
      9 O3A        -1.9658   -5.9843    3.9950 O.3       1 GTP         0.4672
     10 PA         -2.2649   -6.0688    2.3909 P.3       1 GTP        -1.1062
     11 O1A        -2.1488   -7.5149    1.9610 O.co2     1 GTP         0.3195
     12 O2A        -3.5020   -5.2565    2.0749 O.co2     1 GTP         0.3195
     13 O5'        -0.9724   -5.2440    1.8220 O.3       1 GTP         0.1618
     14 C5'        -0.7840   -3.8935    2.2172 C.3       1 GTP         0.1504
     15 C4'        -0.0724   -3.1466    1.1027 C.3       1 GTP         0.1111
     16 O4'        -0.8674   -3.1929   -0.0945 O.3       1 GTP        -0.1436
     17 C3'         0.1338   -1.6715    1.4027 C.3       1 GTP         0.1111
     18 O3'         1.2893   -1.4445    2.1808 O.3       1 GTP        -0.2728
     19 C2'         0.2158   -1.0724    0.0128 C.3       1 GTP         0.1111
     20 O2'         1.5141   -1.2448   -0.5513 O.3       1 GTP        -0.2728
     21 C1'        -0.7897   -1.9176   -0.7583 C.3       1 GTP         0.2693
     22 N9         -2.1040   -1.3333   -0.7704 N.pl3     1 GTP        -0.3222
     23 C8         -3.0597   -1.5109    0.1345 C.ar      1 GTP         0.1640
     24 N7         -4.1618   -0.8291   -0.1607 N.pl3     1 GTP        -0.3688
     25 C5         -3.8764   -0.1805   -1.3310 C.ar      1 GTP         0.0648
     26 C6         -4.7187    0.7111   -2.1152 C.ar      1 GTP         0.3597
     27 O6         -5.8617    1.0043   -1.7939 O.2       1 GTP        -0.2755
     28 N1         -4.0405    1.1608   -3.2468 N.pl3     1 GTP        -0.1604
     29 C2         -2.7239    0.8013   -3.5822 C.ar      1 GTP         0.4468
     30 N2         -2.2399    1.3534   -4.7394 N.pl3     1 GTP        -0.5618
     31 N3         -2.0053   -0.0071   -2.8402 N.2       1 GTP        -0.4283
     32 C4         -2.6290   -0.4727   -1.7210 C.ar      1 GTP         0.2226
     33 H5'        -1.7618   -3.4448    2.4164 H         1 GTP        -0.0393
     34 H5''       -0.1874   -3.8744    3.1341 H         1 GTP        -0.0393
     35 H4'         0.8874   -3.6466    0.8805 H         1 GTP        -0.0393
     36 H3'        -0.7376   -1.2333    1.9867 H         1 GTP        -0.0393
     37 HO3'        1.3408   -0.4870    2.3219 H         1 GTP         0.2010
     38 H2'        -0.0384   -0.0310    0.0096 H         1 GTP        -0.0393
     39 HO2'        2.1463   -0.7958    0.0370 H         1 GTP         0.2010
     40 H1'        -0.4769   -2.1002   -1.8093 H         1 GTP        -0.0393
     41 H8         -2.9610   -2.1316    1.0079 H         1 GTP         0.0000
     42 HN1        -4.5320    1.7923   -3.8726 H         1 GTP         0.0865
     43 HN21       -1.3128    1.1277   -5.0171 H         1 GTP         0.2048
     44 HN22       -2.8342    1.9586   -5.2572 H         1 GTP         0.2048
     45 H45        -5.0195   -0.8034    0.3729 H         1 GTP         0.2048
@<TRIPOS>BOND
     1    1    2 2
     2    1    3 1
     3    1    4 1
     4    1    5 1
     5    5    6 1
     6    6    7 2
     7    6    8 1
     8    6    9 1
     9    9   10 1
    10   10   11 2
    11   10   12 1
    12   10   13 1
    13   13   14 1
    14   14   15 1
    15   14   33 1
    16   14   34 1
    17   15   16 1
    18   15   17 1
    19   15   35 1
    20   16   21 1
    21   17   18 1
    22   17   19 1
    23   17   36 1
    24   18   37 1
    25   19   20 1
    26   19   21 1
    27   19   38 1
    28   20   39 1
    29   21   22 1
    30   21   40 1
    31   22   23 ar
    32   22   32 ar
    33   23   24 ar
    34   23   41 1
    35   24   25 ar
    36   24   45 1
    37   25   26 ar
    38   25   32 ar
    39   26   27 2
    40   26   28 ar
    41   28   29 ar
    42   28   42 1
    43   29   30 1
    44   29   31 ar
    45   30   43 1
    46   30   44 1
    47   31   32 ar
@<TRIPOS>SUBSTRUCTURE
     1 GTP         1 GROUP 0 A     ****
@<TRIPOS>MOLECULE
[[[5-(2-amino-6-oxo-7,8-dihydro-1~{H}-purin-8-ylium-9-yl)-3,4-dihydroxy-tetrahydrofuran-2-yl]methoxy-oxido-phosphoryl]oxy-oxido-phosphoryl] phosphate
   45    47     1     0     0
SMALL
USER_CHARGES

@<TRIPOS>ATOM
      1 PG          3.2003    4.8572   -5.4369 P.3       1 GTP        -1.1921
      2 O1G         3.8272    4.5656   -4.0775 O.co2     1 GTP         0.3195
      3 O2G         4.1974    4.9192   -6.5891 O.co2     1 GTP         0.3195
      4 O3G         2.1838    5.9941   -5.4268 O.co2     1 GTP         0.3195
      5 O3B         2.2914    3.5193   -5.7591 O.3       1 GTP         0.4672
      6 PB          1.0433    2.8718   -4.9272 P.3       1 GTP        -1.1062
      7 O1B         0.3959    3.9578   -4.0971 O.co2     1 GTP         0.3195
      8 O2B         0.2320    1.9949   -5.8546 O.co2     1 GTP         0.3195
      9 O3A         1.8764    1.8638   -3.9499 O.3       1 GTP         0.4672
     10 PA          2.8629    0.6171   -4.3271 P.3       1 GTP        -1.1062
     11 O1A         2.0304   -0.4703   -4.9706 O.co2     1 GTP         0.3195
     12 O2A         4.1038    1.1560   -5.0054 O.co2     1 GTP         0.3195
     13 O5'         3.2903    0.1346   -2.8241 O.3       1 GTP         0.1618
     14 C5'         2.2816   -0.2918   -1.9206 C.3       1 GTP         0.1504
     15 C4'         2.7248    0.0226   -0.4980 C.3       1 GTP         0.1111
     16 O4'         2.4697    1.4219   -0.2462 O.3       1 GTP        -0.1436
     17 C3'         1.9404   -0.7419    0.5596 C.3       1 GTP         0.1111
     18 O3'         2.7418   -0.8086    1.7389 O.3       1 GTP        -0.2728
     19 C2'         0.7477    0.1630    0.7858 C.3       1 GTP         0.1111
     20 O2'         0.1373   -0.0577    2.0407 O.3       1 GTP        -0.2728
     21 C1'         1.3733    1.5427    0.6747 C.3       1 GTP         0.2693
     22 N9          0.4520    2.5240    0.1767 N.pl3     1 GTP        -0.3222
     23 C8          0.5671    3.2221   -0.9473 C.ar      1 GTP         0.1640
     24 N7         -0.4560    4.0508   -1.1290 N.pl3     1 GTP        -0.3688
     25 C5         -1.2671    3.8585   -0.0441 C.ar      1 GTP         0.0648
     26 C6         -2.5318    4.5014    0.2817 C.ar      1 GTP         0.3597
     27 O6         -3.0527    5.3493   -0.4293 O.2       1 GTP        -0.2755
     28 N1         -3.0357    4.0149    1.4868 N.pl3     1 GTP        -0.1604
     29 C2         -2.4069    3.0373    2.2768 C.ar      1 GTP         0.4468
     30 N2         -3.0679    2.6964    3.4278 N.pl3     1 GTP        -0.5618
     31 N3         -1.2653    2.4872    1.9379 N.2       1 GTP        -0.4283
     32 C4         -0.7342    2.9334    0.7643 C.ar      1 GTP         0.2226
     33 H5'         1.3514    0.2330   -2.1577 H         1 GTP        -0.0393
     34 H5''        2.1280   -1.3678   -2.0460 H         1 GTP        -0.0393
     35 H4'         3.8044   -0.1397   -0.4040 H         1 GTP        -0.0393
     36 H3'         1.6764   -1.7639    0.2728 H         1 GTP        -0.0393
     37 HO3'        3.5554   -1.2733    1.4914 H         1 GTP         0.2010
     38 H2'        -0.0011    0.0027    0.0003 H         1 GTP        -0.0393
     39 HO2'        0.8082    0.1199    2.7232 H         1 GTP         0.2010
     40 H1'         1.7826    1.9024    1.6451 H         1 GTP        -0.0393
     41 H8          1.3888    3.1325   -1.6361 H         1 GTP         0.0000
     42 HN1        -3.9188    4.3932    1.8170 H         1 GTP         0.0865
     43 HN21       -2.6609    2.0087    4.0186 H         1 GTP         0.2048
     44 HN22       -3.9293    3.1496    3.6283 H         1 GTP         0.2048
     45 H45        -0.5938    4.6820   -1.9060 H         1 GTP         0.2048
@<TRIPOS>BOND
     1    1    2 2
     2    1    3 1
     3    1    4 1
     4    1    5 1
     5    5    6 1
     6    6    7 2
     7    6    8 1
     8    6    9 1
     9    9   10 1
    10   10   11 2
    11   10   12 1
    12   10   13 1
    13   13   14 1
    14   14   15 1
    15   14   33 1
    16   14   34 1
    17   15   16 1
    18   15   17 1
    19   15   35 1
    20   16   21 1
    21   17   18 1
    22   17   19 1
    23   17   36 1
    24   18   37 1
    25   19   20 1
    26   19   21 1
    27   19   38 1
    28   20   39 1
    29   21   22 1
    30   21   40 1
    31   22   23 ar
    32   22   32 ar
    33   23   24 ar
    34   23   41 1
    35   24   25 ar
    36   24   45 1
    37   25   26 ar
    38   25   32 ar
    39   26   27 2
    40   26   28 ar
    41   28   29 ar
    42   28   42 1
    43   29   30 1
    44   29   31 ar
    45   30   43 1
    46   30   44 1
    47   31   32 ar
@<TRIPOS>SUBSTRUCTURE
     1 GTP         1 GROUP 0 A     ****
@<TRIPOS>MOLECULE
[[[5-(2-amino-6-oxo-7,8-dihydro-1~{H}-purin-8-ylium-9-yl)-3,4-dihydroxy-tetrahydrofuran-2-yl]methoxy-oxido-phosphoryl]oxy-oxido-phosphoryl] phosphate
   45    47     1     0     0
SMALL
USER_CHARGES

@<TRIPOS>ATOM
      1 PG         -1.4762   -0.8395   -5.4843 P.3       1 GTP        -1.1921
      2 O1G        -1.0941   -1.2260   -4.0594 O.co2     1 GTP         0.3195
      3 O2G        -2.4800    0.3047   -5.5780 O.co2     1 GTP         0.3195
      4 O3G        -1.7911   -2.0244   -6.3914 O.co2     1 GTP         0.3195
      5 O3B        -0.0889   -0.2145   -6.1204 O.3       1 GTP         0.4672
      6 PB          1.3777   -0.9051   -6.3239 P.3       1 GTP        -1.1062
      7 O1B         1.2031   -2.4055   -6.3992 O.co2     1 GTP         0.3195
      8 O2B         2.1409   -0.1429   -7.3840 O.co2     1 GTP         0.3195
      9 O3A         2.0542   -0.5072   -4.8922 O.3       1 GTP         0.4672
     10 PA          2.3343    0.9640   -4.2391 P.3       1 GTP        -1.1062
     11 O1A         3.3728    1.6695   -5.0839 O.co2     1 GTP         0.3195
     12 O2A         1.0104    1.6224   -3.9169 O.co2     1 GTP         0.3195
     13 O5'         3.0213    0.5153   -2.8245 O.3       1 GTP         0.1618
     14 C5'         2.2816   -0.2918   -1.9206 C.3       1 GTP         0.1504
     15 C4'         2.7248    0.0226   -0.4980 C.3       1 GTP         0.1111
     16 O4'         2.4697    1.4219   -0.2462 O.3       1 GTP        -0.1436
     17 C3'         1.9404   -0.7419    0.5596 C.3       1 GTP         0.1111
     18 O3'         2.7418   -0.8086    1.7389 O.3       1 GTP        -0.2728
     19 C2'         0.7477    0.1630    0.7858 C.3       1 GTP         0.1111
     20 O2'         0.1373   -0.0577    2.0407 O.3       1 GTP        -0.2728
     21 C1'         1.3733    1.5427    0.6747 C.3       1 GTP         0.2693
     22 N9          0.4520    2.5240    0.1767 N.pl3     1 GTP        -0.3222
     23 C8         -0.8613    2.5511    0.3730 C.ar      1 GTP         0.1640
     24 N7         -1.4346    3.5939   -0.2188 N.pl3     1 GTP        -0.3688
     25 C5         -0.4099    4.2657   -0.8276 C.ar      1 GTP         0.0648
     26 C6         -0.4554    5.4854   -1.6209 C.ar      1 GTP         0.3597
     27 O6         -1.4907    6.0944   -1.8508 O.2       1 GTP        -0.2755
     28 N1          0.8205    5.8357   -2.0593 N.pl3     1 GTP        -0.1604
     29 C2          1.9890    5.1091   -1.7730 C.ar      1 GTP         0.4468
     30 N2          3.1452    5.6230   -2.2997 N.pl3     1 GTP        -0.5618
     31 N3          1.9765    4.0139   -1.0514 N.2       1 GTP        -0.4283
     32 C4          0.7480    3.6324   -0.6003 C.ar      1 GTP         0.2226
     33 H5'         1.2163   -0.0770   -2.0471 H         1 GTP        -0.0393
     34 H5''        2.4655   -1.3443   -2.1563 H         1 GTP        -0.0393
     35 H4'         3.8044   -0.1397   -0.4040 H         1 GTP        -0.0393
     36 H3'         1.6764   -1.7639    0.2728 H         1 GTP        -0.0393
     37 HO3'        2.2232   -1.2979    2.3953 H         1 GTP         0.2010
     38 H2'        -0.0011    0.0027    0.0003 H         1 GTP        -0.0393
     39 HO2'       -0.1563   -0.9855    2.0596 H         1 GTP         0.2010
     40 H1'         1.7826    1.9024    1.6451 H         1 GTP        -0.0393
     41 H8         -1.4050    1.8187    0.9438 H         1 GTP         0.0000
     42 HN1         0.9121    6.6744   -2.6251 H         1 GTP         0.0865
     43 HN21        3.9971    5.1427   -2.1235 H         1 GTP         0.2048
     44 HN22        3.0881    6.4564   -2.8380 H         1 GTP         0.2048
     45 H45        -2.4173    3.8294   -0.2127 H         1 GTP         0.2048
@<TRIPOS>BOND
     1    1    2 2
     2    1    3 1
     3    1    4 1
     4    1    5 1
     5    5    6 1
     6    6    7 2
     7    6    8 1
     8    6    9 1
     9    9   10 1
    10   10   11 2
    11   10   12 1
    12   10   13 1
    13   13   14 1
    14   14   15 1
    15   14   33 1
    16   14   34 1
    17   15   16 1
    18   15   17 1
    19   15   35 1
    20   16   21 1
    21   17   18 1
    22   17   19 1
    23   17   36 1
    24   18   37 1
    25   19   20 1
    26   19   21 1
    27   19   38 1
    28   20   39 1
    29   21   22 1
    30   21   40 1
    31   22   23 ar
    32   22   32 ar
    33   23   24 ar
    34   23   41 1
    35   24   25 ar
    36   24   45 1
    37   25   26 ar
    38   25   32 ar
    39   26   27 2
    40   26   28 ar
    41   28   29 ar
    42   28   42 1
    43   29   30 1
    44   29   31 ar
    45   30   43 1
    46   30   44 1
    47   31   32 ar
@<TRIPOS>SUBSTRUCTURE
     1 GTP         1 GROUP 0 A     ****
@<TRIPOS>MOLECULE
[[[5-(2-amino-6-oxo-7,8-dihydro-1~{H}-purin-8-ylium-9-yl)-3,4-dihydroxy-tetrahydrofuran-2-yl]methoxy-oxido-phosphoryl]oxy-oxido-phosphoryl] phosphate
   45    47     1     0     0
SMALL
USER_CHARGES

@<TRIPOS>ATOM
      1 PG          7.0928   -1.3370   -5.7107 P.3       1 GTP        -1.1921
      2 O1G         7.2100   -2.7623   -6.2405 O.co2     1 GTP         0.3195
      3 O2G         7.3937   -0.2555   -6.7429 O.co2     1 GTP         0.3195
      4 O3G         7.7615   -1.1148   -4.3581 O.co2     1 GTP         0.3195
      5 O3B         5.4854   -1.1550   -5.3897 O.3       1 GTP         0.4672
      6 PB          4.5160   -1.9894   -4.3734 P.3       1 GTP        -1.1062
      7 O1B         4.3971   -3.4123   -4.8723 O.co2     1 GTP         0.3195
      8 O2B         4.9125   -1.6816   -2.9467 O.co2     1 GTP         0.3195
      9 O3A         3.1131   -1.1992   -4.6435 O.3       1 GTP         0.4672
     10 PA          2.7413    0.3775   -4.4298 P.3       1 GTP        -1.1062
     11 O1A         3.7595    1.2116   -5.1762 O.co2     1 GTP         0.3195
     12 O2A         1.2573    0.5705   -4.6542 O.co2     1 GTP         0.3195
     13 O5'         3.0213    0.5153   -2.8245 O.3       1 GTP         0.1618
     14 C5'         2.2816   -0.2918   -1.9206 C.3       1 GTP         0.1504
     15 C4'         2.7248    0.0226   -0.4980 C.3       1 GTP         0.1111
     16 O4'         2.4697    1.4219   -0.2462 O.3       1 GTP        -0.1436
     17 C3'         1.9404   -0.7419    0.5596 C.3       1 GTP         0.1111
     18 O3'         2.7418   -0.8086    1.7389 O.3       1 GTP        -0.2728
     19 C2'         0.7477    0.1630    0.7858 C.3       1 GTP         0.1111
     20 O2'         0.1373   -0.0577    2.0407 O.3       1 GTP        -0.2728
     21 C1'         1.3733    1.5427    0.6747 C.3       1 GTP         0.2693
     22 N9          0.4520    2.5240    0.1767 N.pl3     1 GTP        -0.3222
     23 C8         -0.6818    2.9109    0.7501 C.ar      1 GTP         0.1640
     24 N7         -1.3103    3.8415    0.0391 N.pl3     1 GTP        -0.3688
     25 C5         -0.5155    4.0512   -1.0547 C.ar      1 GTP         0.0648
     26 C6         -0.7125    4.9651   -2.1705 C.ar      1 GTP         0.3597
     27 O6         -1.6819    5.7047   -2.2651 O.2       1 GTP        -0.2755
     28 N1          0.3401    4.8672   -3.0790 N.pl3     1 GTP        -0.1604
     29 C2          1.4396    4.0039   -2.9348 C.ar      1 GTP         0.4468
     30 N2          2.3679    4.0602   -3.9414 N.pl3     1 GTP        -0.5618
     31 N3          1.5708    3.1983   -1.9080 N.2       1 GTP        -0.4283
     32 C4          0.5630    3.2599   -0.9921 C.ar      1 GTP         0.2226
     33 H5'         1.2163   -0.0770   -2.0471 H         1 GTP        -0.0393
     34 H5''        2.4655   -1.3443   -2.1563 H         1 GTP        -0.0393
     35 H4'         3.8044   -0.1397   -0.4040 H         1 GTP        -0.0393
     36 H3'         1.6764   -1.7639    0.2728 H         1 GTP        -0.0393
     37 HO3'        2.2232   -1.2979    2.3953 H         1 GTP         0.2010
     38 H2'        -0.0011    0.0027    0.0003 H         1 GTP        -0.0393
     39 HO2'       -0.1563   -0.9855    2.0596 H         1 GTP         0.2010
     40 H1'         1.7826    1.9024    1.6451 H         1 GTP        -0.0393
     41 H8         -1.0545    2.5222    1.6816 H         1 GTP         0.0000
     42 HN1         0.3104    5.4612   -3.9026 H         1 GTP         0.0865
     43 HN21        3.1632    3.4672   -3.8824 H         1 GTP         0.2048
     44 HN22        2.2108    4.6918   -4.6924 H         1 GTP         0.2048
     45 H45        -2.1863    4.2902    0.2681 H         1 GTP         0.2048
@<TRIPOS>BOND
     1    1    2 2
     2    1    3 1
     3    1    4 1
     4    1    5 1
     5    5    6 1
     6    6    7 2
     7    6    8 1
     8    6    9 1
     9    9   10 1
    10   10   11 2
    11   10   12 1
    12   10   13 1
    13   13   14 1
    14   14   15 1
    15   14   33 1
    16   14   34 1
    17   15   16 1
    18   15   17 1
    19   15   35 1
    20   16   21 1
    21   17   18 1
    22   17   19 1
    23   17   36 1
    24   18   37 1
    25   19   20 1
    26   19   21 1
    27   19   38 1
    28   20   39 1
    29   21   22 1
    30   21   40 1
    31   22   23 ar
    32   22   32 ar
    33   23   24 ar
    34   23   41 1
    35   24   25 ar
    36   24   45 1
    37   25   26 ar
    38   25   32 ar
    39   26   27 2
    40   26   28 ar
    41   28   29 ar
    42   28   42 1
    43   29   30 1
    44   29   31 ar
    45   30   43 1
    46   30   44 1
    47   31   32 ar
@<TRIPOS>SUBSTRUCTURE
     1 GTP         1 GROUP 0 A     ****
@<TRIPOS>MOLECULE
[[[5-(2-amino-6-oxo-7,8-dihydro-1~{H}-purin-8-ylium-9-yl)-3,4-dihydroxy-tetrahydrofuran-2-yl]methoxy-oxido-phosphoryl]oxy-oxido-phosphoryl] phosphate
   45    47     1     0     0
SMALL
USER_CHARGES

@<TRIPOS>ATOM
      1 PG          2.9766    2.4072   -8.5880 P.3       1 GTP        -1.1921
      2 O1G         2.3087    3.7777   -8.6253 O.co2     1 GTP         0.3195
      3 O2G         4.4879    2.4382   -8.7896 O.co2     1 GTP         0.3195
      4 O3G         2.2580    1.3381   -9.4045 O.co2     1 GTP         0.3195
      5 O3B         2.7859    1.9058   -7.0285 O.3       1 GTP         0.4672
      6 PB          1.4220    1.6566   -6.1644 P.3       1 GTP        -1.1062
      7 O1B         0.7195    2.9819   -5.9704 O.co2     1 GTP         0.3195
      8 O2B         0.6976    0.4507   -6.7197 O.co2     1 GTP         0.3195
      9 O3A         2.0908    1.1835   -4.7522 O.3       1 GTP         0.4672
     10 PA          3.0683   -0.0853   -4.4294 P.3       1 GTP        -1.1062
     11 O1A         2.2802   -1.3592   -4.6431 O.co2     1 GTP         0.3195
     12 O2A         4.4021    0.1320   -5.1103 O.co2     1 GTP         0.3195
     13 O5'         3.2903    0.1346   -2.8241 O.3       1 GTP         0.1618
     14 C5'         2.2816   -0.2918   -1.9206 C.3       1 GTP         0.1504
     15 C4'         2.7248    0.0226   -0.4980 C.3       1 GTP         0.1111
     16 O4'         2.4697    1.4219   -0.2462 O.3       1 GTP        -0.1436
     17 C3'         1.9404   -0.7419    0.5596 C.3       1 GTP         0.1111
     18 O3'         2.7418   -0.8086    1.7389 O.3       1 GTP        -0.2728
     19 C2'         0.7477    0.1630    0.7858 C.3       1 GTP         0.1111
     20 O2'         0.1373   -0.0577    2.0407 O.3       1 GTP        -0.2728
     21 C1'         1.3733    1.5427    0.6747 C.3       1 GTP         0.2693
     22 N9          0.4520    2.5240    0.1767 N.pl3     1 GTP        -0.3222
     23 C8         -0.8613    2.5511    0.3730 C.ar      1 GTP         0.1640
     24 N7         -1.4346    3.5939   -0.2188 N.pl3     1 GTP        -0.3688
     25 C5         -0.4099    4.2657   -0.8276 C.ar      1 GTP         0.0648
     26 C6         -0.4554    5.4854   -1.6209 C.ar      1 GTP         0.3597
     27 O6         -1.4907    6.0944   -1.8508 O.2       1 GTP        -0.2755
     28 N1          0.8205    5.8357   -2.0593 N.pl3     1 GTP        -0.1604
     29 C2          1.9890    5.1091   -1.7730 C.ar      1 GTP         0.4468
     30 N2          3.1452    5.6230   -2.2997 N.pl3     1 GTP        -0.5618
     31 N3          1.9765    4.0139   -1.0514 N.2       1 GTP        -0.4283
     32 C4          0.7480    3.6324   -0.6003 C.ar      1 GTP         0.2226
     33 H5'         1.3514    0.2330   -2.1577 H         1 GTP        -0.0393
     34 H5''        2.1280   -1.3678   -2.0460 H         1 GTP        -0.0393
     35 H4'         3.8044   -0.1397   -0.4040 H         1 GTP        -0.0393
     36 H3'         1.6764   -1.7639    0.2728 H         1 GTP        -0.0393
     37 HO3'        2.2232   -1.2979    2.3953 H         1 GTP         0.2010
     38 H2'        -0.0011    0.0027    0.0003 H         1 GTP        -0.0393
     39 HO2'       -0.1563   -0.9855    2.0596 H         1 GTP         0.2010
     40 H1'         1.7826    1.9024    1.6451 H         1 GTP        -0.0393
     41 H8         -1.4050    1.8187    0.9438 H         1 GTP         0.0000
     42 HN1         0.9121    6.6744   -2.6251 H         1 GTP         0.0865
     43 HN21        3.9971    5.1427   -2.1235 H         1 GTP         0.2048
     44 HN22        3.0881    6.4564   -2.8380 H         1 GTP         0.2048
     45 H45        -2.4173    3.8294   -0.2127 H         1 GTP         0.2048
@<TRIPOS>BOND
     1    1    2 2
     2    1    3 1
     3    1    4 1
     4    1    5 1
     5    5    6 1
     6    6    7 2
     7    6    8 1
     8    6    9 1
     9    9   10 1
    10   10   11 2
    11   10   12 1
    12   10   13 1
    13   13   14 1
    14   14   15 1
    15   14   33 1
    16   14   34 1
    17   15   16 1
    18   15   17 1
    19   15   35 1
    20   16   21 1
    21   17   18 1
    22   17   19 1
    23   17   36 1
    24   18   37 1
    25   19   20 1
    26   19   21 1
    27   19   38 1
    28   20   39 1
    29   21   22 1
    30   21   40 1
    31   22   23 ar
    32   22   32 ar
    33   23   24 ar
    34   23   41 1
    35   24   25 ar
    36   24   45 1
    37   25   26 ar
    38   25   32 ar
    39   26   27 2
    40   26   28 ar
    41   28   29 ar
    42   28   42 1
    43   29   30 1
    44   29   31 ar
    45   30   43 1
    46   30   44 1
    47   31   32 ar
@<TRIPOS>SUBSTRUCTURE
     1 GTP         1 GROUP 0 A     ****
@<TRIPOS>MOLECULE
[[[5-(2-amino-6-oxo-7,8-dihydro-1~{H}-purin-8-ylium-9-yl)-3,4-dihydroxy-tetrahydrofuran-2-yl]methoxy-oxido-phosphoryl]oxy-oxido-phosphoryl] phosphate
   45    47     1     0     0
SMALL
USER_CHARGES

@<TRIPOS>ATOM
      1 PG          0.0922   -1.0156   -6.6431 P.3       1 GTP        -1.1921
      2 O1G        -0.0269   -1.3334   -5.1562 O.co2     1 GTP         0.3195
      3 O2G        -0.9594   -0.0419   -7.1644 O.co2     1 GTP         0.3195
      4 O3G         0.3075   -2.2379   -7.5293 O.co2     1 GTP         0.3195
      5 O3B         1.5112   -0.1844   -6.7673 O.3       1 GTP         0.4672
      6 PB          3.0322   -0.6389   -6.3814 P.3       1 GTP        -1.1062
      7 O1B         3.3489   -1.9346   -7.0944 O.co2     1 GTP         0.3195
      8 O2B         3.9471    0.5616   -6.4776 O.co2     1 GTP         0.3195
      9 O3A         2.8207   -0.9317   -4.7892 O.3       1 GTP         0.4672
     10 PA          3.8941   -1.4366   -3.6656 P.3       1 GTP        -1.1062
     11 O1A         4.3160   -2.8480   -4.0112 O.co2     1 GTP         0.3195
     12 O2A         4.9202   -0.3480   -3.4373 O.co2     1 GTP         0.3195
     13 O5'         2.9216   -1.4836   -2.3516 O.3       1 GTP         0.1618
     14 C5'         2.2816   -0.2918   -1.9206 C.3       1 GTP         0.1504
     15 C4'         2.7248    0.0226   -0.4980 C.3       1 GTP         0.1111
     16 O4'         2.4697    1.4219   -0.2462 O.3       1 GTP        -0.1436
     17 C3'         1.9404   -0.7419    0.5596 C.3       1 GTP         0.1111
     18 O3'         2.7418   -0.8086    1.7389 O.3       1 GTP        -0.2728
     19 C2'         0.7477    0.1630    0.7858 C.3       1 GTP         0.1111
     20 O2'         0.1373   -0.0577    2.0407 O.3       1 GTP        -0.2728
     21 C1'         1.3733    1.5427    0.6747 C.3       1 GTP         0.2693
     22 N9          0.4520    2.5240    0.1767 N.pl3     1 GTP        -0.3222
     23 C8         -0.2009    2.4849   -0.9792 C.ar      1 GTP         0.1640
     24 N7         -0.9840    3.5454   -1.1481 N.pl3     1 GTP        -0.3688
     25 C5         -0.8090    4.3005   -0.0206 C.ar      1 GTP         0.0648
     26 C6         -1.4206    5.5724    0.3362 C.ar      1 GTP         0.3597
     27 O6         -2.2199    6.1544   -0.3836 O.2       1 GTP        -0.2755
     28 N1         -0.9680    6.0043    1.5817 N.pl3     1 GTP        -0.1604
     29 C2         -0.0474    5.3055    2.3814 C.ar      1 GTP         0.4468
     30 N2          0.2680    5.9024    3.5740 N.pl3     1 GTP        -0.5618
     31 N3          0.4755    4.1601    2.0138 N.2       1 GTP        -0.4283
     32 C4          0.0611    3.6981    0.8001 C.ar      1 GTP         0.2226
     33 H5'         2.5589    0.5217   -2.5976 H         1 GTP        -0.0393
     34 H5''        1.1982   -0.4388   -1.9617 H         1 GTP        -0.0393
     35 H4'         3.8044   -0.1397   -0.4040 H         1 GTP        -0.0393
     36 H3'         1.6764   -1.7639    0.2728 H         1 GTP        -0.0393
     37 HO3'        2.2232   -1.2979    2.3953 H         1 GTP         0.2010
     38 H2'        -0.0011    0.0027    0.0003 H         1 GTP        -0.0393
     39 HO2'       -0.1563   -0.9855    2.0596 H         1 GTP         0.2010
     40 H1'         1.7826    1.9024    1.6451 H         1 GTP        -0.0393
     41 H8         -0.1126    1.6906   -1.6997 H         1 GTP         0.0000
     42 HN1        -1.3285    6.8855    1.9361 H         1 GTP         0.0865
     43 HN21        0.9153    5.4446    4.1732 H         1 GTP         0.2048
     44 HN22       -0.1624    6.7706    3.7948 H         1 GTP         0.2048
     45 H45        -1.5768    3.7405   -1.9429 H         1 GTP         0.2048
@<TRIPOS>BOND
     1    1    2 2
     2    1    3 1
     3    1    4 1
     4    1    5 1
     5    5    6 1
     6    6    7 2
     7    6    8 1
     8    6    9 1
     9    9   10 1
    10   10   11 2
    11   10   12 1
    12   10   13 1
    13   13   14 1
    14   14   15 1
    15   14   33 1
    16   14   34 1
    17   15   16 1
    18   15   17 1
    19   15   35 1
    20   16   21 1
    21   17   18 1
    22   17   19 1
    23   17   36 1
    24   18   37 1
    25   19   20 1
    26   19   21 1
    27   19   38 1
    28   20   39 1
    29   21   22 1
    30   21   40 1
    31   22   23 ar
    32   22   32 ar
    33   23   24 ar
    34   23   41 1
    35   24   25 ar
    36   24   45 1
    37   25   26 ar
    38   25   32 ar
    39   26   27 2
    40   26   28 ar
    41   28   29 ar
    42   28   42 1
    43   29   30 1
    44   29   31 ar
    45   30   43 1
    46   30   44 1
    47   31   32 ar
@<TRIPOS>SUBSTRUCTURE
     1 GTP         1 GROUP 0 A     ****
@<TRIPOS>MOLECULE
[[[5-(2-amino-6-oxo-7,8-dihydro-1~{H}-purin-8-ylium-9-yl)-3,4-dihydroxy-tetrahydrofuran-2-yl]methoxy-oxido-phosphoryl]oxy-oxido-phosphoryl] phosphate
   45    47     1     0     0
SMALL
USER_CHARGES

@<TRIPOS>ATOM
      1 PG          3.5669   -1.5376   -7.8705 P.3       1 GTP        -1.1921
      2 O1G         2.3655   -1.9018   -8.7364 O.co2     1 GTP         0.3195
      3 O2G         4.5810   -0.6259   -8.5531 O.co2     1 GTP         0.3195
      4 O3G         4.1858   -2.7184   -7.1297 O.co2     1 GTP         0.3195
      5 O3B         2.9313   -0.6069   -6.6664 O.3       1 GTP         0.4672
      6 PB          1.7903   -0.9648   -5.5533 P.3       1 GTP        -1.1062
      7 O1B         0.4735   -1.1927   -6.2616 O.co2     1 GTP         0.3195
      8 O2B         2.3500   -1.9764   -4.5783 O.co2     1 GTP         0.3195
      9 O3A         1.7421    0.4621   -4.7613 O.3       1 GTP         0.4672
     10 PA          2.9240    1.2545   -3.9582 P.3       1 GTP        -1.1062
     11 O1A         4.1072    1.4127   -4.8880 O.co2     1 GTP         0.3195
     12 O2A         2.3242    2.4478   -3.2466 O.co2     1 GTP         0.3195
     13 O5'         3.2903    0.1346   -2.8241 O.3       1 GTP         0.1618
     14 C5'         2.2816   -0.2918   -1.9206 C.3       1 GTP         0.1504
     15 C4'         2.7248    0.0226   -0.4980 C.3       1 GTP         0.1111
     16 O4'         2.4697    1.4219   -0.2462 O.3       1 GTP        -0.1436
     17 C3'         1.9404   -0.7419    0.5596 C.3       1 GTP         0.1111
     18 O3'         2.7418   -0.8086    1.7389 O.3       1 GTP        -0.2728
     19 C2'         0.7477    0.1630    0.7858 C.3       1 GTP         0.1111
     20 O2'         0.1373   -0.0577    2.0407 O.3       1 GTP        -0.2728
     21 C1'         1.3733    1.5427    0.6747 C.3       1 GTP         0.2693
     22 N9          0.4520    2.5240    0.1767 N.pl3     1 GTP        -0.3222
     23 C8         -0.2009    2.4849   -0.9792 C.ar      1 GTP         0.1640
     24 N7         -0.9840    3.5454   -1.1481 N.pl3     1 GTP        -0.3688
     25 C5         -0.8090    4.3005   -0.0206 C.ar      1 GTP         0.0648
     26 C6         -1.4206    5.5724    0.3362 C.ar      1 GTP         0.3597
     27 O6         -2.2199    6.1544   -0.3836 O.2       1 GTP        -0.2755
     28 N1         -0.9680    6.0043    1.5817 N.pl3     1 GTP        -0.1604
     29 C2         -0.0474    5.3055    2.3814 C.ar      1 GTP         0.4468
     30 N2          0.2680    5.9024    3.5740 N.pl3     1 GTP        -0.5618
     31 N3          0.4755    4.1601    2.0138 N.2       1 GTP        -0.4283
     32 C4          0.0611    3.6981    0.8001 C.ar      1 GTP         0.2226
     33 H5'         1.3514    0.2330   -2.1577 H         1 GTP        -0.0393
     34 H5''        2.1280   -1.3678   -2.0460 H         1 GTP        -0.0393
     35 H4'         3.8044   -0.1397   -0.4040 H         1 GTP        -0.0393
     36 H3'         1.6764   -1.7639    0.2728 H         1 GTP        -0.0393
     37 HO3'        2.2232   -1.2979    2.3953 H         1 GTP         0.2010
     38 H2'        -0.0011    0.0027    0.0003 H         1 GTP        -0.0393
     39 HO2'       -0.1563   -0.9855    2.0596 H         1 GTP         0.2010
     40 H1'         1.7826    1.9024    1.6451 H         1 GTP        -0.0393
     41 H8         -0.1126    1.6906   -1.6997 H         1 GTP         0.0000
     42 HN1        -1.3285    6.8855    1.9361 H         1 GTP         0.0865
     43 HN21        0.9153    5.4446    4.1732 H         1 GTP         0.2048
     44 HN22       -0.1624    6.7706    3.7948 H         1 GTP         0.2048
     45 H45        -1.5768    3.7405   -1.9429 H         1 GTP         0.2048
@<TRIPOS>BOND
     1    1    2 2
     2    1    3 1
     3    1    4 1
     4    1    5 1
     5    5    6 1
     6    6    7 2
     7    6    8 1
     8    6    9 1
     9    9   10 1
    10   10   11 2
    11   10   12 1
    12   10   13 1
    13   13   14 1
    14   14   15 1
    15   14   33 1
    16   14   34 1
    17   15   16 1
    18   15   17 1
    19   15   35 1
    20   16   21 1
    21   17   18 1
    22   17   19 1
    23   17   36 1
    24   18   37 1
    25   19   20 1
    26   19   21 1
    27   19   38 1
    28   20   39 1
    29   21   22 1
    30   21   40 1
    31   22   23 ar
    32   22   32 ar
    33   23   24 ar
    34   23   41 1
    35   24   25 ar
    36   24   45 1
    37   25   26 ar
    38   25   32 ar
    39   26   27 2
    40   26   28 ar
    41   28   29 ar
    42   28   42 1
    43   29   30 1
    44   29   31 ar
    45   30   43 1
    46   30   44 1
    47   31   32 ar
@<TRIPOS>SUBSTRUCTURE
     1 GTP         1 GROUP 0 A     ****
@<TRIPOS>MOLECULE
[[[5-(2-amino-6-oxo-7,8-dihydro-1~{H}-purin-8-ylium-9-yl)-3,4-dihydroxy-tetrahydrofuran-2-yl]methoxy-oxido-phosphoryl]oxy-oxido-phosphoryl] phosphate
   45    47     1     0     0
SMALL
USER_CHARGES

@<TRIPOS>ATOM
      1 PG          1.8080   -9.6522    3.5286 P.3       1 GTP        -1.1921
      2 O1G         2.7829   -9.7624    4.6962 O.co2     1 GTP         0.3195
      3 O2G         0.7963  -10.7901    3.4443 O.co2     1 GTP         0.3195
      4 O3G         2.4626   -9.2967    2.1977 O.co2     1 GTP         0.3195
      5 O3B         0.8964   -8.3250    3.8857 O.3       1 GTP         0.4672
      6 PB          1.3474   -6.7717    4.1159 P.3       1 GTP        -1.1062
      7 O1B         2.2015   -6.6922    5.3616 O.co2     1 GTP         0.3195
      8 O2B         1.8124   -6.1910    2.7991 O.co2     1 GTP         0.3195
      9 O3A        -0.1173   -6.1169    4.4178 O.3       1 GTP         0.4672
     10 PA         -0.5242   -4.5704    4.7529 P.3       1 GTP        -1.1062
     11 O1A        -2.0337   -4.4745    4.7963 O.co2     1 GTP         0.3195
     12 O2A         0.3238   -4.0740    5.9037 O.co2     1 GTP         0.3195
     13 O5'         0.0118   -3.8395    3.3916 O.3       1 GTP         0.1618
     14 C5'        -0.7840   -3.8935    2.2172 C.3       1 GTP         0.1504
     15 C4'        -0.0724   -3.1466    1.1027 C.3       1 GTP         0.1111
     16 O4'        -0.8674   -3.1929   -0.0945 O.3       1 GTP        -0.1436
     17 C3'         0.1338   -1.6715    1.4027 C.3       1 GTP         0.1111
     18 O3'         1.2893   -1.4445    2.1808 O.3       1 GTP        -0.2728
     19 C2'         0.2158   -1.0724    0.0128 C.3       1 GTP         0.1111
     20 O2'         1.5141   -1.2448   -0.5513 O.3       1 GTP        -0.2728
     21 C1'        -0.7897   -1.9176   -0.7583 C.3       1 GTP         0.2693
     22 N9         -2.1040   -1.3333   -0.7704 N.pl3     1 GTP        -0.3222
     23 C8         -3.0597   -1.5109    0.1345 C.ar      1 GTP         0.1640
     24 N7         -4.1618   -0.8291   -0.1607 N.pl3     1 GTP        -0.3688
     25 C5         -3.8764   -0.1805   -1.3310 C.ar      1 GTP         0.0648
     26 C6         -4.7187    0.7111   -2.1152 C.ar      1 GTP         0.3597
     27 O6         -5.8617    1.0043   -1.7939 O.2       1 GTP        -0.2755
     28 N1         -4.0405    1.1608   -3.2468 N.pl3     1 GTP        -0.1604
     29 C2         -2.7239    0.8013   -3.5822 C.ar      1 GTP         0.4468
     30 N2         -2.2399    1.3534   -4.7394 N.pl3     1 GTP        -0.5618
     31 N3         -2.0053   -0.0071   -2.8402 N.2       1 GTP        -0.4283
     32 C4         -2.6290   -0.4727   -1.7210 C.ar      1 GTP         0.2226
     33 H5'        -0.9348   -4.9415    1.9415 H         1 GTP        -0.0393
     34 H5''       -1.7548   -3.4350    2.4278 H         1 GTP        -0.0393
     35 H4'         0.8874   -3.6466    0.8805 H         1 GTP        -0.0393
     36 H3'        -0.7376   -1.2333    1.9867 H         1 GTP        -0.0393
     37 HO3'        1.1626   -1.9325    3.0084 H         1 GTP         0.2010
     38 H2'        -0.0384   -0.0310    0.0096 H         1 GTP        -0.0393
     39 HO2'        1.4998   -0.8412   -1.4369 H         1 GTP         0.2010
     40 H1'        -0.4769   -2.1002   -1.8093 H         1 GTP        -0.0393
     41 H8         -2.9610   -2.1316    1.0079 H         1 GTP         0.0000
     42 HN1        -4.5320    1.7923   -3.8726 H         1 GTP         0.0865
     43 HN21       -1.3128    1.1277   -5.0171 H         1 GTP         0.2048
     44 HN22       -2.8342    1.9586   -5.2572 H         1 GTP         0.2048
     45 H45        -5.0195   -0.8034    0.3729 H         1 GTP         0.2048
@<TRIPOS>BOND
     1    1    2 2
     2    1    3 1
     3    1    4 1
     4    1    5 1
     5    5    6 1
     6    6    7 2
     7    6    8 1
     8    6    9 1
     9    9   10 1
    10   10   11 2
    11   10   12 1
    12   10   13 1
    13   13   14 1
    14   14   15 1
    15   14   33 1
    16   14   34 1
    17   15   16 1
    18   15   17 1
    19   15   35 1
    20   16   21 1
    21   17   18 1
    22   17   19 1
    23   17   36 1
    24   18   37 1
    25   19   20 1
    26   19   21 1
    27   19   38 1
    28   20   39 1
    29   21   22 1
    30   21   40 1
    31   22   23 ar
    32   22   32 ar
    33   23   24 ar
    34   23   41 1
    35   24   25 ar
    36   24   45 1
    37   25   26 ar
    38   25   32 ar
    39   26   27 2
    40   26   28 ar
    41   28   29 ar
    42   28   42 1
    43   29   30 1
    44   29   31 ar
    45   30   43 1
    46   30   44 1
    47   31   32 ar
@<TRIPOS>SUBSTRUCTURE
     1 GTP         1 GROUP 0 A     ****
@<TRIPOS>MOLECULE
[[[5-(2-amino-6-oxo-7,8-dihydro-1~{H}-purin-8-ylium-9-yl)-3,4-dihydroxy-tetrahydrofuran-2-yl]methoxy-oxido-phosphoryl]oxy-oxido-phosphoryl] phosphate
   45    47     1     0     0
SMALL
USER_CHARGES

@<TRIPOS>ATOM
      1 PG          6.4298   -3.8765   -6.3655 P.3       1 GTP        -1.1921
      2 O1G         5.4763   -4.2743   -7.4874 O.co2     1 GTP         0.3195
      3 O2G         7.4975   -2.8678   -6.7754 O.co2     1 GTP         0.3195
      4 O3G         6.9584   -5.0501   -5.5475 O.co2     1 GTP         0.3195
      5 O3B         5.4797   -3.0505   -5.3002 O.3       1 GTP         0.4672
      6 PB          4.1534   -3.5369   -4.4795 P.3       1 GTP        -1.1062
      7 O1B         3.0433   -3.8142   -5.4685 O.co2     1 GTP         0.3195
      8 O2B         4.5609   -4.5575   -3.4405 O.co2     1 GTP         0.3195
      9 O3A         3.8279   -2.1576   -3.6689 O.3       1 GTP         0.4672
     10 PA          3.4850   -0.6647   -4.2376 P.3       1 GTP        -1.1062
     11 O1A         4.7151   -0.1278   -4.9364 O.co2     1 GTP         0.3195
     12 O2A         2.1420   -0.6972   -4.9342 O.co2     1 GTP         0.3195
     13 O5'         3.2903    0.1346   -2.8241 O.3       1 GTP         0.1618
     14 C5'         2.2816   -0.2918   -1.9206 C.3       1 GTP         0.1504
     15 C4'         2.7248    0.0226   -0.4980 C.3       1 GTP         0.1111
     16 O4'         2.4697    1.4219   -0.2462 O.3       1 GTP        -0.1436
     17 C3'         1.9404   -0.7419    0.5596 C.3       1 GTP         0.1111
     18 O3'         2.7418   -0.8086    1.7389 O.3       1 GTP        -0.2728
     19 C2'         0.7477    0.1630    0.7858 C.3       1 GTP         0.1111
     20 O2'         0.1373   -0.0577    2.0407 O.3       1 GTP        -0.2728
     21 C1'         1.3733    1.5427    0.6747 C.3       1 GTP         0.2693
     22 N9          0.4520    2.5240    0.1767 N.pl3     1 GTP        -0.3222
     23 C8          0.5671    3.2221   -0.9473 C.ar      1 GTP         0.1640
     24 N7         -0.4560    4.0508   -1.1290 N.pl3     1 GTP        -0.3688
     25 C5         -1.2671    3.8585   -0.0441 C.ar      1 GTP         0.0648
     26 C6         -2.5318    4.5014    0.2817 C.ar      1 GTP         0.3597
     27 O6         -3.0527    5.3493   -0.4293 O.2       1 GTP        -0.2755
     28 N1         -3.0357    4.0149    1.4868 N.pl3     1 GTP        -0.1604
     29 C2         -2.4069    3.0373    2.2768 C.ar      1 GTP         0.4468
     30 N2         -3.0679    2.6964    3.4278 N.pl3     1 GTP        -0.5618
     31 N3         -1.2653    2.4872    1.9379 N.2       1 GTP        -0.4283
     32 C4         -0.7342    2.9334    0.7643 C.ar      1 GTP         0.2226
     33 H5'         1.3514    0.2330   -2.1577 H         1 GTP        -0.0393
     34 H5''        2.1280   -1.3678   -2.0460 H         1 GTP        -0.0393
     35 H4'         3.8044   -0.1397   -0.4040 H         1 GTP        -0.0393
     36 H3'         1.6764   -1.7639    0.2728 H         1 GTP        -0.0393
     37 HO3'        3.5554   -1.2733    1.4914 H         1 GTP         0.2010
     38 H2'        -0.0011    0.0027    0.0003 H         1 GTP        -0.0393
     39 HO2'        0.8082    0.1199    2.7232 H         1 GTP         0.2010
     40 H1'         1.7826    1.9024    1.6451 H         1 GTP        -0.0393
     41 H8          1.3888    3.1325   -1.6361 H         1 GTP         0.0000
     42 HN1        -3.9188    4.3932    1.8170 H         1 GTP         0.0865
     43 HN21       -2.6609    2.0087    4.0186 H         1 GTP         0.2048
     44 HN22       -3.9293    3.1496    3.6283 H         1 GTP         0.2048
     45 H45        -0.5938    4.6820   -1.9060 H         1 GTP         0.2048
@<TRIPOS>BOND
     1    1    2 2
     2    1    3 1
     3    1    4 1
     4    1    5 1
     5    5    6 1
     6    6    7 2
     7    6    8 1
     8    6    9 1
     9    9   10 1
    10   10   11 2
    11   10   12 1
    12   10   13 1
    13   13   14 1
    14   14   15 1
    15   14   33 1
    16   14   34 1
    17   15   16 1
    18   15   17 1
    19   15   35 1
    20   16   21 1
    21   17   18 1
    22   17   19 1
    23   17   36 1
    24   18   37 1
    25   19   20 1
    26   19   21 1
    27   19   38 1
    28   20   39 1
    29   21   22 1
    30   21   40 1
    31   22   23 ar
    32   22   32 ar
    33   23   24 ar
    34   23   41 1
    35   24   25 ar
    36   24   45 1
    37   25   26 ar
    38   25   32 ar
    39   26   27 2
    40   26   28 ar
    41   28   29 ar
    42   28   42 1
    43   29   30 1
    44   29   31 ar
    45   30   43 1
    46   30   44 1
    47   31   32 ar
@<TRIPOS>SUBSTRUCTURE
     1 GTP         1 GROUP 0 A     ****
@<TRIPOS>MOLECULE
[[[5-(2-amino-6-oxo-7,8-dihydro-1~{H}-purin-8-ylium-9-yl)-3,4-dihydroxy-tetrahydrofuran-2-yl]methoxy-oxido-phosphoryl]oxy-oxido-phosphoryl] phosphate
   45    47     1     0     0
SMALL
USER_CHARGES

@<TRIPOS>ATOM
      1 PG          2.4268   -7.9924    1.5043 P.3       1 GTP        -1.1921
      2 O1G         3.6108   -8.3376    2.4014 O.co2     1 GTP         0.3195
      3 O2G         2.3223   -8.8456    0.2446 O.co2     1 GTP         0.3195
      4 O3G         2.2366   -6.4981    1.2659 O.co2     1 GTP         0.3195
      5 O3B         1.1059   -8.4203    2.3943 O.3       1 GTP         0.4672
      6 PB          0.6071   -7.8885    3.8563 P.3       1 GTP        -1.1062
      7 O1B        -0.7421   -8.4997    4.1624 O.co2     1 GTP         0.3195
      8 O2B         1.7569   -7.9784    4.8346 O.co2     1 GTP         0.3195
      9 O3A         0.4203   -6.3045    3.5077 O.3       1 GTP         0.4672
     10 PA         -0.0643   -5.0716    4.4642 P.3       1 GTP        -1.1062
     11 O1A        -1.5116   -5.3023    4.8407 O.co2     1 GTP         0.3195
     12 O2A         0.9886   -4.8234    5.5225 O.co2     1 GTP         0.3195
     13 O5'         0.0118   -3.8395    3.3916 O.3       1 GTP         0.1618
     14 C5'        -0.7840   -3.8935    2.2172 C.3       1 GTP         0.1504
     15 C4'        -0.0724   -3.1466    1.1027 C.3       1 GTP         0.1111
     16 O4'        -0.8674   -3.1929   -0.0945 O.3       1 GTP        -0.1436
     17 C3'         0.1338   -1.6715    1.4027 C.3       1 GTP         0.1111
     18 O3'         1.2893   -1.4445    2.1808 O.3       1 GTP        -0.2728
     19 C2'         0.2158   -1.0724    0.0128 C.3       1 GTP         0.1111
     20 O2'         1.5141   -1.2448   -0.5513 O.3       1 GTP        -0.2728
     21 C1'        -0.7897   -1.9176   -0.7583 C.3       1 GTP         0.2693
     22 N9         -2.1040   -1.3333   -0.7704 N.pl3     1 GTP        -0.3222
     23 C8         -3.0597   -1.5109    0.1345 C.ar      1 GTP         0.1640
     24 N7         -4.1618   -0.8291   -0.1607 N.pl3     1 GTP        -0.3688
     25 C5         -3.8764   -0.1805   -1.3310 C.ar      1 GTP         0.0648
     26 C6         -4.7187    0.7111   -2.1152 C.ar      1 GTP         0.3597
     27 O6         -5.8617    1.0043   -1.7939 O.2       1 GTP        -0.2755
     28 N1         -4.0405    1.1608   -3.2468 N.pl3     1 GTP        -0.1604
     29 C2         -2.7239    0.8013   -3.5822 C.ar      1 GTP         0.4468
     30 N2         -2.2399    1.3534   -4.7394 N.pl3     1 GTP        -0.5618
     31 N3         -2.0053   -0.0071   -2.8402 N.2       1 GTP        -0.4283
     32 C4         -2.6290   -0.4727   -1.7210 C.ar      1 GTP         0.2226
     33 H5'        -0.9348   -4.9415    1.9415 H         1 GTP        -0.0393
     34 H5''       -1.7548   -3.4350    2.4278 H         1 GTP        -0.0393
     35 H4'         0.8874   -3.6466    0.8805 H         1 GTP        -0.0393
     36 H3'        -0.7376   -1.2333    1.9867 H         1 GTP        -0.0393
     37 HO3'        1.1626   -1.9325    3.0084 H         1 GTP         0.2010
     38 H2'        -0.0384   -0.0310    0.0096 H         1 GTP        -0.0393
     39 HO2'        2.1463   -0.7958    0.0370 H         1 GTP         0.2010
     40 H1'        -0.4769   -2.1002   -1.8093 H         1 GTP        -0.0393
     41 H8         -2.9610   -2.1316    1.0079 H         1 GTP         0.0000
     42 HN1        -4.5320    1.7923   -3.8726 H         1 GTP         0.0865
     43 HN21       -1.3128    1.1277   -5.0171 H         1 GTP         0.2048
     44 HN22       -2.8342    1.9586   -5.2572 H         1 GTP         0.2048
     45 H45        -5.0195   -0.8034    0.3729 H         1 GTP         0.2048
@<TRIPOS>BOND
     1    1    2 2
     2    1    3 1
     3    1    4 1
     4    1    5 1
     5    5    6 1
     6    6    7 2
     7    6    8 1
     8    6    9 1
     9    9   10 1
    10   10   11 2
    11   10   12 1
    12   10   13 1
    13   13   14 1
    14   14   15 1
    15   14   33 1
    16   14   34 1
    17   15   16 1
    18   15   17 1
    19   15   35 1
    20   16   21 1
    21   17   18 1
    22   17   19 1
    23   17   36 1
    24   18   37 1
    25   19   20 1
    26   19   21 1
    27   19   38 1
    28   20   39 1
    29   21   22 1
    30   21   40 1
    31   22   23 ar
    32   22   32 ar
    33   23   24 ar
    34   23   41 1
    35   24   25 ar
    36   24   45 1
    37   25   26 ar
    38   25   32 ar
    39   26   27 2
    40   26   28 ar
    41   28   29 ar
    42   28   42 1
    43   29   30 1
    44   29   31 ar
    45   30   43 1
    46   30   44 1
    47   31   32 ar
@<TRIPOS>SUBSTRUCTURE
     1 GTP         1 GROUP 0 A     ****
@<TRIPOS>MOLECULE
[[[5-(2-amino-6-oxo-7,8-dihydro-1~{H}-purin-8-ylium-9-yl)-3,4-dihydroxy-tetrahydrofuran-2-yl]methoxy-oxido-phosphoryl]oxy-oxido-phosphoryl] phosphate
   45    47     1     0     0
SMALL
USER_CHARGES

@<TRIPOS>ATOM
      1 PG         -3.6778   -4.7322    6.4649 P.3       1 GTP        -1.1921
      2 O1G        -5.1200   -4.3271    6.7504 O.co2     1 GTP         0.3195
      3 O2G        -2.9593   -5.3750    7.6466 O.co2     1 GTP         0.3195
      4 O3G        -2.8607   -3.6688    5.7387 O.co2     1 GTP         0.3195
      5 O3B        -3.8100   -5.9496    5.3602 O.3       1 GTP         0.4672
      6 PB         -4.4769   -5.9469    3.8688 P.3       1 GTP        -1.1062
      7 O1B        -4.8844   -7.3598    3.5151 O.co2     1 GTP         0.3195
      8 O2B        -5.4488   -4.7930    3.7632 O.co2     1 GTP         0.3195
      9 O3A        -3.1629   -5.5251    2.9964 O.3       1 GTP         0.4672
     10 PA         -1.7206   -6.2776    2.8449 P.3       1 GTP        -1.1062
     11 O1A        -1.0179   -6.2329    4.1843 O.co2     1 GTP         0.3195
     12 O2A        -1.9197   -7.5854    2.1101 O.co2     1 GTP         0.3195
     13 O5'        -0.9724   -5.2440    1.8220 O.3       1 GTP         0.1618
     14 C5'        -0.7840   -3.8935    2.2172 C.3       1 GTP         0.1504
     15 C4'        -0.0724   -3.1466    1.1027 C.3       1 GTP         0.1111
     16 O4'        -0.8674   -3.1929   -0.0945 O.3       1 GTP        -0.1436
     17 C3'         0.1338   -1.6715    1.4027 C.3       1 GTP         0.1111
     18 O3'         1.2893   -1.4445    2.1808 O.3       1 GTP        -0.2728
     19 C2'         0.2158   -1.0724    0.0128 C.3       1 GTP         0.1111
     20 O2'         1.5141   -1.2448   -0.5513 O.3       1 GTP        -0.2728
     21 C1'        -0.7897   -1.9176   -0.7583 C.3       1 GTP         0.2693
     22 N9         -2.1040   -1.3333   -0.7704 N.pl3     1 GTP        -0.3222
     23 C8         -3.0597   -1.5109    0.1345 C.ar      1 GTP         0.1640
     24 N7         -4.1618   -0.8291   -0.1607 N.pl3     1 GTP        -0.3688
     25 C5         -3.8764   -0.1805   -1.3310 C.ar      1 GTP         0.0648
     26 C6         -4.7187    0.7111   -2.1152 C.ar      1 GTP         0.3597
     27 O6         -5.8617    1.0043   -1.7939 O.2       1 GTP        -0.2755
     28 N1         -4.0405    1.1608   -3.2468 N.pl3     1 GTP        -0.1604
     29 C2         -2.7239    0.8013   -3.5822 C.ar      1 GTP         0.4468
     30 N2         -2.2399    1.3534   -4.7394 N.pl3     1 GTP        -0.5618
     31 N3         -2.0053   -0.0071   -2.8402 N.2       1 GTP        -0.4283
     32 C4         -2.6290   -0.4727   -1.7210 C.ar      1 GTP         0.2226
     33 H5'        -1.7618   -3.4448    2.4164 H         1 GTP        -0.0393
     34 H5''       -0.1874   -3.8744    3.1341 H         1 GTP        -0.0393
     35 H4'         0.8874   -3.6466    0.8805 H         1 GTP        -0.0393
     36 H3'        -0.7376   -1.2333    1.9867 H         1 GTP        -0.0393
     37 HO3'        1.1626   -1.9325    3.0084 H         1 GTP         0.2010
     38 H2'        -0.0384   -0.0310    0.0096 H         1 GTP        -0.0393
     39 HO2'        2.1463   -0.7958    0.0370 H         1 GTP         0.2010
     40 H1'        -0.4769   -2.1002   -1.8093 H         1 GTP        -0.0393
     41 H8         -2.9610   -2.1316    1.0079 H         1 GTP         0.0000
     42 HN1        -4.5320    1.7923   -3.8726 H         1 GTP         0.0865
     43 HN21       -1.3128    1.1277   -5.0171 H         1 GTP         0.2048
     44 HN22       -2.8342    1.9586   -5.2572 H         1 GTP         0.2048
     45 H45        -5.0195   -0.8034    0.3729 H         1 GTP         0.2048
@<TRIPOS>BOND
     1    1    2 2
     2    1    3 1
     3    1    4 1
     4    1    5 1
     5    5    6 1
     6    6    7 2
     7    6    8 1
     8    6    9 1
     9    9   10 1
    10   10   11 2
    11   10   12 1
    12   10   13 1
    13   13   14 1
    14   14   15 1
    15   14   33 1
    16   14   34 1
    17   15   16 1
    18   15   17 1
    19   15   35 1
    20   16   21 1
    21   17   18 1
    22   17   19 1
    23   17   36 1
    24   18   37 1
    25   19   20 1
    26   19   21 1
    27   19   38 1
    28   20   39 1
    29   21   22 1
    30   21   40 1
    31   22   23 ar
    32   22   32 ar
    33   23   24 ar
    34   23   41 1
    35   24   25 ar
    36   24   45 1
    37   25   26 ar
    38   25   32 ar
    39   26   27 2
    40   26   28 ar
    41   28   29 ar
    42   28   42 1
    43   29   30 1
    44   29   31 ar
    45   30   43 1
    46   30   44 1
    47   31   32 ar
@<TRIPOS>SUBSTRUCTURE
     1 GTP         1 GROUP 0 A     ****
@<TRIPOS>MOLECULE
[[[5-(2-amino-6-oxo-7,8-dihydro-1~{H}-purin-8-ylium-9-yl)-3,4-dihydroxy-tetrahydrofuran-2-yl]methoxy-oxido-phosphoryl]oxy-oxido-phosphoryl] phosphate
   45    47     1     0     0
SMALL
USER_CHARGES

@<TRIPOS>ATOM
      1 PG         -2.9747   -8.4985    6.1952 P.3       1 GTP        -1.1921
      2 O1G        -2.5311   -8.4579    7.6537 O.co2     1 GTP         0.3195
      3 O2G        -4.3639   -7.9220    5.9439 O.co2     1 GTP         0.3195
      4 O3G        -2.7140   -9.8299    5.4983 O.co2     1 GTP         0.3195
      5 O3B        -1.9564   -7.4491    5.4326 O.3       1 GTP         0.4672
      6 PB         -0.3277   -7.4704    5.3062 P.3       1 GTP        -1.1062
      7 O1B         0.2701   -7.2688    6.6809 O.co2     1 GTP         0.3195
      8 O2B         0.0854   -8.6285    4.4257 O.co2     1 GTP         0.3195
      9 O3A        -0.1173   -6.1169    4.4178 O.3       1 GTP         0.4672
     10 PA         -0.5242   -4.5704    4.7529 P.3       1 GTP        -1.1062
     11 O1A        -2.0337   -4.4745    4.7963 O.co2     1 GTP         0.3195
     12 O2A         0.3238   -4.0740    5.9037 O.co2     1 GTP         0.3195
     13 O5'         0.0118   -3.8395    3.3916 O.3       1 GTP         0.1618
     14 C5'        -0.7840   -3.8935    2.2172 C.3       1 GTP         0.1504
     15 C4'        -0.0724   -3.1466    1.1027 C.3       1 GTP         0.1111
     16 O4'        -0.8674   -3.1929   -0.0945 O.3       1 GTP        -0.1436
     17 C3'         0.1338   -1.6715    1.4027 C.3       1 GTP         0.1111
     18 O3'         1.2893   -1.4445    2.1808 O.3       1 GTP        -0.2728
     19 C2'         0.2158   -1.0724    0.0128 C.3       1 GTP         0.1111
     20 O2'         1.5141   -1.2448   -0.5513 O.3       1 GTP        -0.2728
     21 C1'        -0.7897   -1.9176   -0.7583 C.3       1 GTP         0.2693
     22 N9         -2.1040   -1.3333   -0.7704 N.pl3     1 GTP        -0.3222
     23 C8         -3.0597   -1.5109    0.1345 C.ar      1 GTP         0.1640
     24 N7         -4.1618   -0.8291   -0.1607 N.pl3     1 GTP        -0.3688
     25 C5         -3.8764   -0.1805   -1.3310 C.ar      1 GTP         0.0648
     26 C6         -4.7187    0.7111   -2.1152 C.ar      1 GTP         0.3597
     27 O6         -5.8617    1.0043   -1.7939 O.2       1 GTP        -0.2755
     28 N1         -4.0405    1.1608   -3.2468 N.pl3     1 GTP        -0.1604
     29 C2         -2.7239    0.8013   -3.5822 C.ar      1 GTP         0.4468
     30 N2         -2.2399    1.3534   -4.7394 N.pl3     1 GTP        -0.5618
     31 N3         -2.0053   -0.0071   -2.8402 N.2       1 GTP        -0.4283
     32 C4         -2.6290   -0.4727   -1.7210 C.ar      1 GTP         0.2226
     33 H5'        -0.9348   -4.9415    1.9415 H         1 GTP        -0.0393
     34 H5''       -1.7548   -3.4350    2.4278 H         1 GTP        -0.0393
     35 H4'         0.8874   -3.6466    0.8805 H         1 GTP        -0.0393
     36 H3'        -0.7376   -1.2333    1.9867 H         1 GTP        -0.0393
     37 HO3'        1.1626   -1.9325    3.0084 H         1 GTP         0.2010
     38 H2'        -0.0384   -0.0310    0.0096 H         1 GTP        -0.0393
     39 HO2'        2.1463   -0.7958    0.0370 H         1 GTP         0.2010
     40 H1'        -0.4769   -2.1002   -1.8093 H         1 GTP        -0.0393
     41 H8         -2.9610   -2.1316    1.0079 H         1 GTP         0.0000
     42 HN1        -4.5320    1.7923   -3.8726 H         1 GTP         0.0865
     43 HN21       -1.3128    1.1277   -5.0171 H         1 GTP         0.2048
     44 HN22       -2.8342    1.9586   -5.2572 H         1 GTP         0.2048
     45 H45        -5.0195   -0.8034    0.3729 H         1 GTP         0.2048
@<TRIPOS>BOND
     1    1    2 2
     2    1    3 1
     3    1    4 1
     4    1    5 1
     5    5    6 1
     6    6    7 2
     7    6    8 1
     8    6    9 1
     9    9   10 1
    10   10   11 2
    11   10   12 1
    12   10   13 1
    13   13   14 1
    14   14   15 1
    15   14   33 1
    16   14   34 1
    17   15   16 1
    18   15   17 1
    19   15   35 1
    20   16   21 1
    21   17   18 1
    22   17   19 1
    23   17   36 1
    24   18   37 1
    25   19   20 1
    26   19   21 1
    27   19   38 1
    28   20   39 1
    29   21   22 1
    30   21   40 1
    31   22   23 ar
    32   22   32 ar
    33   23   24 ar
    34   23   41 1
    35   24   25 ar
    36   24   45 1
    37   25   26 ar
    38   25   32 ar
    39   26   27 2
    40   26   28 ar
    41   28   29 ar
    42   28   42 1
    43   29   30 1
    44   29   31 ar
    45   30   43 1
    46   30   44 1
    47   31   32 ar
@<TRIPOS>SUBSTRUCTURE
     1 GTP         1 GROUP 0 A     ****
@<TRIPOS>MOLECULE
[[[5-(2-amino-6-oxo-7,8-dihydro-1~{H}-purin-8-ylium-9-yl)-3,4-dihydroxy-tetrahydrofuran-2-yl]methoxy-oxido-phosphoryl]oxy-oxido-phosphoryl] phosphate
   45    47     1     0     0
SMALL
USER_CHARGES

@<TRIPOS>ATOM
      1 PG         -3.5459   -7.5763    3.5331 P.3       1 GTP        -1.1921
      2 O1G        -2.6597   -6.7995    2.5651 O.co2     1 GTP         0.3195
      3 O2G        -3.5663   -9.0827    3.2967 O.co2     1 GTP         0.3195
      4 O3G        -4.9227   -6.9587    3.7546 O.co2     1 GTP         0.3195
      5 O3B        -2.7983   -7.4052    4.9931 O.3       1 GTP         0.4672
      6 PB         -2.4486   -6.0541    5.8424 P.3       1 GTP        -1.1062
      7 O1B        -3.7187   -5.2546    6.0300 O.co2     1 GTP         0.3195
      8 O2B        -1.5638   -6.4204    7.0130 O.co2     1 GTP         0.3195
      9 O3A        -1.4890   -5.3039    4.7554 O.3       1 GTP         0.4672
     10 PA         -0.7207   -3.8652    4.8536 P.3       1 GTP        -1.1062
     11 O1A        -1.7646   -2.7705    4.8957 O.co2     1 GTP         0.3195
     12 O2A         0.3621   -3.9535    5.9070 O.co2     1 GTP         0.3195
     13 O5'         0.0118   -3.8395    3.3916 O.3       1 GTP         0.1618
     14 C5'        -0.7840   -3.8935    2.2172 C.3       1 GTP         0.1504
     15 C4'        -0.0724   -3.1466    1.1027 C.3       1 GTP         0.1111
     16 O4'        -0.8674   -3.1929   -0.0945 O.3       1 GTP        -0.1436
     17 C3'         0.1338   -1.6715    1.4027 C.3       1 GTP         0.1111
     18 O3'         1.2893   -1.4445    2.1808 O.3       1 GTP        -0.2728
     19 C2'         0.2158   -1.0724    0.0128 C.3       1 GTP         0.1111
     20 O2'         1.5141   -1.2448   -0.5513 O.3       1 GTP        -0.2728
     21 C1'        -0.7897   -1.9176   -0.7583 C.3       1 GTP         0.2693
     22 N9         -2.1040   -1.3333   -0.7704 N.pl3     1 GTP        -0.3222
     23 C8         -3.0597   -1.5109    0.1345 C.ar      1 GTP         0.1640
     24 N7         -4.1618   -0.8291   -0.1607 N.pl3     1 GTP        -0.3688
     25 C5         -3.8764   -0.1805   -1.3310 C.ar      1 GTP         0.0648
     26 C6         -4.7187    0.7111   -2.1152 C.ar      1 GTP         0.3597
     27 O6         -5.8617    1.0043   -1.7939 O.2       1 GTP        -0.2755
     28 N1         -4.0405    1.1608   -3.2468 N.pl3     1 GTP        -0.1604
     29 C2         -2.7239    0.8013   -3.5822 C.ar      1 GTP         0.4468
     30 N2         -2.2399    1.3534   -4.7394 N.pl3     1 GTP        -0.5618
     31 N3         -2.0053   -0.0071   -2.8402 N.2       1 GTP        -0.4283
     32 C4         -2.6290   -0.4727   -1.7210 C.ar      1 GTP         0.2226
     33 H5'        -0.9348   -4.9415    1.9415 H         1 GTP        -0.0393
     34 H5''       -1.7548   -3.4350    2.4278 H         1 GTP        -0.0393
     35 H4'         0.8874   -3.6466    0.8805 H         1 GTP        -0.0393
     36 H3'        -0.7376   -1.2333    1.9867 H         1 GTP        -0.0393
     37 HO3'        1.1626   -1.9325    3.0084 H         1 GTP         0.2010
     38 H2'        -0.0384   -0.0310    0.0096 H         1 GTP        -0.0393
     39 HO2'        2.1463   -0.7958    0.0370 H         1 GTP         0.2010
     40 H1'        -0.4769   -2.1002   -1.8093 H         1 GTP        -0.0393
     41 H8         -2.9610   -2.1316    1.0079 H         1 GTP         0.0000
     42 HN1        -4.5320    1.7923   -3.8726 H         1 GTP         0.0865
     43 HN21       -1.3128    1.1277   -5.0171 H         1 GTP         0.2048
     44 HN22       -2.8342    1.9586   -5.2572 H         1 GTP         0.2048
     45 H45        -5.0195   -0.8034    0.3729 H         1 GTP         0.2048
@<TRIPOS>BOND
     1    1    2 2
     2    1    3 1
     3    1    4 1
     4    1    5 1
     5    5    6 1
     6    6    7 2
     7    6    8 1
     8    6    9 1
     9    9   10 1
    10   10   11 2
    11   10   12 1
    12   10   13 1
    13   13   14 1
    14   14   15 1
    15   14   33 1
    16   14   34 1
    17   15   16 1
    18   15   17 1
    19   15   35 1
    20   16   21 1
    21   17   18 1
    22   17   19 1
    23   17   36 1
    24   18   37 1
    25   19   20 1
    26   19   21 1
    27   19   38 1
    28   20   39 1
    29   21   22 1
    30   21   40 1
    31   22   23 ar
    32   22   32 ar
    33   23   24 ar
    34   23   41 1
    35   24   25 ar
    36   24   45 1
    37   25   26 ar
    38   25   32 ar
    39   26   27 2
    40   26   28 ar
    41   28   29 ar
    42   28   42 1
    43   29   30 1
    44   29   31 ar
    45   30   43 1
    46   30   44 1
    47   31   32 ar
@<TRIPOS>SUBSTRUCTURE
     1 GTP         1 GROUP 0 A     ****
@<TRIPOS>MOLECULE
[[[5-(2-amino-6-oxo-7,8-dihydro-1~{H}-purin-8-ylium-9-yl)-3,4-dihydroxy-tetrahydrofuran-2-yl]methoxy-oxido-phosphoryl]oxy-oxido-phosphoryl] phosphate
   45    47     1     0     0
SMALL
USER_CHARGES

@<TRIPOS>ATOM
      1 PG          0.2198   -5.1268    0.1119 P.3       1 GTP        -1.1921
      2 O1G         1.2935   -4.0682    0.3412 O.co2     1 GTP         0.3195
      3 O2G        -0.8745   -5.1530    1.1737 O.co2     1 GTP         0.3195
      4 O3G         0.7653   -6.5018   -0.2589 O.co2     1 GTP         0.3195
      5 O3B        -0.5548   -4.6285   -1.2561 O.3       1 GTP         0.4672
      6 PB          0.0269   -4.3847   -2.7631 P.3       1 GTP        -1.1062
      7 O1B         0.7274   -5.6434   -3.2242 O.co2     1 GTP         0.3195
      8 O2B        -1.0397   -3.7193   -3.6039 O.co2     1 GTP         0.3195
      9 O3A         1.1373   -3.2347   -2.4311 O.3       1 GTP         0.4672
     10 PA          2.1639   -2.4504   -3.4314 P.3       1 GTP        -1.1062
     11 O1A         3.1601   -3.4529   -3.9719 O.co2     1 GTP         0.3195
     12 O2A         1.3665   -1.5618   -4.3612 O.co2     1 GTP         0.3195
     13 O5'         2.9216   -1.4836   -2.3516 O.3       1 GTP         0.1618
     14 C5'         2.2816   -0.2918   -1.9206 C.3       1 GTP         0.1504
     15 C4'         2.7248    0.0226   -0.4980 C.3       1 GTP         0.1111
     16 O4'         2.4697    1.4219   -0.2462 O.3       1 GTP        -0.1436
     17 C3'         1.9404   -0.7419    0.5596 C.3       1 GTP         0.1111
     18 O3'         2.7418   -0.8086    1.7389 O.3       1 GTP        -0.2728
     19 C2'         0.7477    0.1630    0.7858 C.3       1 GTP         0.1111
     20 O2'         0.1373   -0.0577    2.0407 O.3       1 GTP        -0.2728
     21 C1'         1.3733    1.5427    0.6747 C.3       1 GTP         0.2693
     22 N9          0.4520    2.5240    0.1767 N.pl3     1 GTP        -0.3222
     23 C8          0.2203    2.8205   -1.0970 C.ar      1 GTP         0.1640
     24 N7         -0.6947    3.7752   -1.2304 N.pl3     1 GTP        -0.3688
     25 C5         -1.0607    4.0987    0.0476 C.ar      1 GTP         0.0648
     26 C6         -2.0310    5.0839    0.5029 C.ar      1 GTP         0.3597
     27 O6         -2.6779    5.7867   -0.2609 O.2       1 GTP        -0.2755
     28 N1         -2.1030    5.0975    1.8948 N.pl3     1 GTP        -0.1604
     29 C2         -1.3422    4.2721    2.7403 C.ar      1 GTP         0.4468
     30 N2         -1.5624    4.4419    4.0823 N.pl3     1 GTP        -0.5618
     31 N3         -0.4796    3.3981    2.2792 N.2       1 GTP        -0.4283
     32 C4         -0.3754    3.3496    0.9208 C.ar      1 GTP         0.2226
     33 H5'         2.5589    0.5217   -2.5976 H         1 GTP        -0.0393
     34 H5''        1.1982   -0.4388   -1.9617 H         1 GTP        -0.0393
     35 H4'         3.8044   -0.1397   -0.4040 H         1 GTP        -0.0393
     36 H3'         1.6764   -1.7639    0.2728 H         1 GTP        -0.0393
     37 HO3'        2.2232   -1.2979    2.3953 H         1 GTP         0.2010
     38 H2'        -0.0011    0.0027    0.0003 H         1 GTP        -0.0393
     39 HO2'       -0.6141    0.5574    2.1082 H         1 GTP         0.2010
     40 H1'         1.7826    1.9024    1.6451 H         1 GTP        -0.0393
     41 H8          0.7110    2.3472   -1.9295 H         1 GTP         0.0000
     42 HN1        -2.7504    5.7495    2.3282 H         1 GTP         0.0865
     43 HN21       -1.0467    3.8796    4.7190 H         1 GTP         0.2048
     44 HN22       -2.2294    5.1209    4.3680 H         1 GTP         0.2048
     45 H45        -1.0382    4.1687   -2.0954 H         1 GTP         0.2048
@<TRIPOS>BOND
     1    1    2 2
     2    1    3 1
     3    1    4 1
     4    1    5 1
     5    5    6 1
     6    6    7 2
     7    6    8 1
     8    6    9 1
     9    9   10 1
    10   10   11 2
    11   10   12 1
    12   10   13 1
    13   13   14 1
    14   14   15 1
    15   14   33 1
    16   14   34 1
    17   15   16 1
    18   15   17 1
    19   15   35 1
    20   16   21 1
    21   17   18 1
    22   17   19 1
    23   17   36 1
    24   18   37 1
    25   19   20 1
    26   19   21 1
    27   19   38 1
    28   20   39 1
    29   21   22 1
    30   21   40 1
    31   22   23 ar
    32   22   32 ar
    33   23   24 ar
    34   23   41 1
    35   24   25 ar
    36   24   45 1
    37   25   26 ar
    38   25   32 ar
    39   26   27 2
    40   26   28 ar
    41   28   29 ar
    42   28   42 1
    43   29   30 1
    44   29   31 ar
    45   30   43 1
    46   30   44 1
    47   31   32 ar
@<TRIPOS>SUBSTRUCTURE
     1 GTP         1 GROUP 0 A     ****
@<TRIPOS>MOLECULE
[[[5-(2-amino-6-oxo-7,8-dihydro-1~{H}-purin-8-ylium-9-yl)-3,4-dihydroxy-tetrahydrofuran-2-yl]methoxy-oxido-phosphoryl]oxy-oxido-phosphoryl] phosphate
   45    47     1     0     0
SMALL
USER_CHARGES

@<TRIPOS>ATOM
      1 PG          6.5443   -3.8250   -5.2292 P.3       1 GTP        -1.1921
      2 O1G         7.0672   -3.9573   -3.8027 O.co2     1 GTP         0.3195
      3 O2G         5.9389   -5.1038   -5.7983 O.co2     1 GTP         0.3195
      4 O3G         7.4948   -3.1052   -6.1803 O.co2     1 GTP         0.3195
      5 O3B         5.2638   -2.7941   -5.0974 O.3       1 GTP         0.4672
      6 PB          5.2069   -1.2534   -4.5571 P.3       1 GTP        -1.1062
      7 O1B         5.5463   -1.2414   -3.0832 O.co2     1 GTP         0.3195
      8 O2B         5.9238   -0.3567   -5.5416 O.co2     1 GTP         0.3195
      9 O3A         3.6110   -0.9682   -4.7501 O.3       1 GTP         0.4672
     10 PA          2.7413    0.3775   -4.4298 P.3       1 GTP        -1.1062
     11 O1A         3.3915    1.5444   -5.1406 O.co2     1 GTP         0.3195
     12 O2A         1.2708    0.0714   -4.6137 O.co2     1 GTP         0.3195
     13 O5'         3.0213    0.5153   -2.8245 O.3       1 GTP         0.1618
     14 C5'         2.2816   -0.2918   -1.9206 C.3       1 GTP         0.1504
     15 C4'         2.7248    0.0226   -0.4980 C.3       1 GTP         0.1111
     16 O4'         2.4697    1.4219   -0.2462 O.3       1 GTP        -0.1436
     17 C3'         1.9404   -0.7419    0.5596 C.3       1 GTP         0.1111
     18 O3'         2.7418   -0.8086    1.7389 O.3       1 GTP        -0.2728
     19 C2'         0.7477    0.1630    0.7858 C.3       1 GTP         0.1111
     20 O2'         0.1373   -0.0577    2.0407 O.3       1 GTP        -0.2728
     21 C1'         1.3733    1.5427    0.6747 C.3       1 GTP         0.2693
     22 N9          0.4520    2.5240    0.1767 N.pl3     1 GTP        -0.3222
     23 C8         -0.8613    2.5511    0.3730 C.ar      1 GTP         0.1640
     24 N7         -1.4346    3.5939   -0.2188 N.pl3     1 GTP        -0.3688
     25 C5         -0.4099    4.2657   -0.8276 C.ar      1 GTP         0.0648
     26 C6         -0.4554    5.4854   -1.6209 C.ar      1 GTP         0.3597
     27 O6         -1.4907    6.0944   -1.8508 O.2       1 GTP        -0.2755
     28 N1          0.8205    5.8357   -2.0593 N.pl3     1 GTP        -0.1604
     29 C2          1.9890    5.1091   -1.7730 C.ar      1 GTP         0.4468
     30 N2          3.1452    5.6230   -2.2997 N.pl3     1 GTP        -0.5618
     31 N3          1.9765    4.0139   -1.0514 N.2       1 GTP        -0.4283
     32 C4          0.7480    3.6324   -0.6003 C.ar      1 GTP         0.2226
     33 H5'         1.2163   -0.0770   -2.0471 H         1 GTP        -0.0393
     34 H5''        2.4655   -1.3443   -2.1563 H         1 GTP        -0.0393
     35 H4'         3.8044   -0.1397   -0.4040 H         1 GTP        -0.0393
     36 H3'         1.6764   -1.7639    0.2728 H         1 GTP        -0.0393
     37 HO3'        2.2232   -1.2979    2.3953 H         1 GTP         0.2010
     38 H2'        -0.0011    0.0027    0.0003 H         1 GTP        -0.0393
     39 HO2'       -0.1563   -0.9855    2.0596 H         1 GTP         0.2010
     40 H1'         1.7826    1.9024    1.6451 H         1 GTP        -0.0393
     41 H8         -1.4050    1.8187    0.9438 H         1 GTP         0.0000
     42 HN1         0.9121    6.6744   -2.6251 H         1 GTP         0.0865
     43 HN21        3.9971    5.1427   -2.1235 H         1 GTP         0.2048
     44 HN22        3.0881    6.4564   -2.8380 H         1 GTP         0.2048
     45 H45        -2.4173    3.8294   -0.2127 H         1 GTP         0.2048
@<TRIPOS>BOND
     1    1    2 2
     2    1    3 1
     3    1    4 1
     4    1    5 1
     5    5    6 1
     6    6    7 2
     7    6    8 1
     8    6    9 1
     9    9   10 1
    10   10   11 2
    11   10   12 1
    12   10   13 1
    13   13   14 1
    14   14   15 1
    15   14   33 1
    16   14   34 1
    17   15   16 1
    18   15   17 1
    19   15   35 1
    20   16   21 1
    21   17   18 1
    22   17   19 1
    23   17   36 1
    24   18   37 1
    25   19   20 1
    26   19   21 1
    27   19   38 1
    28   20   39 1
    29   21   22 1
    30   21   40 1
    31   22   23 ar
    32   22   32 ar
    33   23   24 ar
    34   23   41 1
    35   24   25 ar
    36   24   45 1
    37   25   26 ar
    38   25   32 ar
    39   26   27 2
    40   26   28 ar
    41   28   29 ar
    42   28   42 1
    43   29   30 1
    44   29   31 ar
    45   30   43 1
    46   30   44 1
    47   31   32 ar
@<TRIPOS>SUBSTRUCTURE
     1 GTP         1 GROUP 0 A     ****
@<TRIPOS>MOLECULE
[[[5-(2-amino-6-oxo-7,8-dihydro-1~{H}-purin-8-ylium-9-yl)-3,4-dihydroxy-tetrahydrofuran-2-yl]methoxy-oxido-phosphoryl]oxy-oxido-phosphoryl] phosphate
   45    47     1     0     0
SMALL
USER_CHARGES

@<TRIPOS>ATOM
      1 PG         -1.9382   -4.4518    6.8301 P.3       1 GTP        -1.1921
      2 O1G        -1.9946   -3.7583    5.4730 O.co2     1 GTP         0.3195
      3 O2G        -3.1813   -4.2524    7.6906 O.co2     1 GTP         0.3195
      4 O3G        -0.6224   -4.2600    7.5771 O.co2     1 GTP         0.3195
      5 O3B        -1.9523   -6.0599    6.4642 O.3       1 GTP         0.4672
      6 PB         -0.9064   -6.9437    5.5731 P.3       1 GTP        -1.1062
      7 O1B         0.4890   -6.7457    6.1219 O.co2     1 GTP         0.3195
      8 O2B        -1.4836   -8.3250    5.3581 O.co2     1 GTP         0.3195
      9 O3A        -1.0478   -6.1575    4.1493 O.3       1 GTP         0.4672
     10 PA         -0.3075   -6.4382    2.7200 P.3       1 GTP        -1.1062
     11 O1A         1.1702   -6.1585    2.8867 O.co2     1 GTP         0.3195
     12 O2A        -0.7951   -7.7572    2.1610 O.co2     1 GTP         0.3195
     13 O5'        -0.9724   -5.2440    1.8220 O.3       1 GTP         0.1618
     14 C5'        -0.7840   -3.8935    2.2172 C.3       1 GTP         0.1504
     15 C4'        -0.0724   -3.1466    1.1027 C.3       1 GTP         0.1111
     16 O4'        -0.8674   -3.1929   -0.0945 O.3       1 GTP        -0.1436
     17 C3'         0.1338   -1.6715    1.4027 C.3       1 GTP         0.1111
     18 O3'         1.2893   -1.4445    2.1808 O.3       1 GTP        -0.2728
     19 C2'         0.2158   -1.0724    0.0128 C.3       1 GTP         0.1111
     20 O2'         1.5141   -1.2448   -0.5513 O.3       1 GTP        -0.2728
     21 C1'        -0.7897   -1.9176   -0.7583 C.3       1 GTP         0.2693
     22 N9         -2.1040   -1.3333   -0.7704 N.pl3     1 GTP        -0.3222
     23 C8         -3.0597   -1.5109    0.1345 C.ar      1 GTP         0.1640
     24 N7         -4.1618   -0.8291   -0.1607 N.pl3     1 GTP        -0.3688
     25 C5         -3.8764   -0.1805   -1.3310 C.ar      1 GTP         0.0648
     26 C6         -4.7187    0.7111   -2.1152 C.ar      1 GTP         0.3597
     27 O6         -5.8617    1.0043   -1.7939 O.2       1 GTP        -0.2755
     28 N1         -4.0405    1.1608   -3.2468 N.pl3     1 GTP        -0.1604
     29 C2         -2.7239    0.8013   -3.5822 C.ar      1 GTP         0.4468
     30 N2         -2.2399    1.3534   -4.7394 N.pl3     1 GTP        -0.5618
     31 N3         -2.0053   -0.0071   -2.8402 N.2       1 GTP        -0.4283
     32 C4         -2.6290   -0.4727   -1.7210 C.ar      1 GTP         0.2226
     33 H5'        -1.7618   -3.4448    2.4164 H         1 GTP        -0.0393
     34 H5''       -0.1874   -3.8744    3.1341 H         1 GTP        -0.0393
     35 H4'         0.8874   -3.6466    0.8805 H         1 GTP        -0.0393
     36 H3'        -0.7376   -1.2333    1.9867 H         1 GTP        -0.0393
     37 HO3'        1.3408   -0.4870    2.3219 H         1 GTP         0.2010
     38 H2'        -0.0384   -0.0310    0.0096 H         1 GTP        -0.0393
     39 HO2'        2.1463   -0.7958    0.0370 H         1 GTP         0.2010
     40 H1'        -0.4769   -2.1002   -1.8093 H         1 GTP        -0.0393
     41 H8         -2.9610   -2.1316    1.0079 H         1 GTP         0.0000
     42 HN1        -4.5320    1.7923   -3.8726 H         1 GTP         0.0865
     43 HN21       -1.3128    1.1277   -5.0171 H         1 GTP         0.2048
     44 HN22       -2.8342    1.9586   -5.2572 H         1 GTP         0.2048
     45 H45        -5.0195   -0.8034    0.3729 H         1 GTP         0.2048
@<TRIPOS>BOND
     1    1    2 2
     2    1    3 1
     3    1    4 1
     4    1    5 1
     5    5    6 1
     6    6    7 2
     7    6    8 1
     8    6    9 1
     9    9   10 1
    10   10   11 2
    11   10   12 1
    12   10   13 1
    13   13   14 1
    14   14   15 1
    15   14   33 1
    16   14   34 1
    17   15   16 1
    18   15   17 1
    19   15   35 1
    20   16   21 1
    21   17   18 1
    22   17   19 1
    23   17   36 1
    24   18   37 1
    25   19   20 1
    26   19   21 1
    27   19   38 1
    28   20   39 1
    29   21   22 1
    30   21   40 1
    31   22   23 ar
    32   22   32 ar
    33   23   24 ar
    34   23   41 1
    35   24   25 ar
    36   24   45 1
    37   25   26 ar
    38   25   32 ar
    39   26   27 2
    40   26   28 ar
    41   28   29 ar
    42   28   42 1
    43   29   30 1
    44   29   31 ar
    45   30   43 1
    46   30   44 1
    47   31   32 ar
@<TRIPOS>SUBSTRUCTURE
     1 GTP         1 GROUP 0 A     ****
@<TRIPOS>MOLECULE
[[[5-(2-amino-6-oxo-7,8-dihydro-1~{H}-purin-8-ylium-9-yl)-3,4-dihydroxy-tetrahydrofuran-2-yl]methoxy-oxido-phosphoryl]oxy-oxido-phosphoryl] phosphate
   45    47     1     0     0
SMALL
USER_CHARGES

@<TRIPOS>ATOM
      1 PG          3.9902   -2.4547   -8.4181 P.3       1 GTP        -1.1921
      2 O1G         2.6667   -2.5574   -9.1687 O.co2     1 GTP         0.3195
      3 O2G         4.9262   -1.3692   -8.9389 O.co2     1 GTP         0.3195
      4 O3G         4.6692   -3.7956   -8.1597 O.co2     1 GTP         0.3195
      5 O3B         3.5629   -1.9333   -6.9129 O.3       1 GTP         0.4672
      6 PB          2.5807   -2.6203   -5.8027 P.3       1 GTP        -1.1062
      7 O1B         1.1699   -2.6413   -6.3475 O.co2     1 GTP         0.3195
      8 O2B         3.2400   -3.8704   -5.2645 O.co2     1 GTP         0.3195
      9 O3A         2.6922   -1.4956   -4.6245 O.3       1 GTP         0.4672
     10 PA          4.0014   -0.9657   -3.8031 P.3       1 GTP        -1.1062
     11 O1A         4.5254   -2.1054   -2.9568 O.co2     1 GTP         0.3195
     12 O2A         4.9102   -0.2149   -4.7520 O.co2     1 GTP         0.3195
     13 O5'         3.2903    0.1346   -2.8241 O.3       1 GTP         0.1618
     14 C5'         2.2816   -0.2918   -1.9206 C.3       1 GTP         0.1504
     15 C4'         2.7248    0.0226   -0.4980 C.3       1 GTP         0.1111
     16 O4'         2.4697    1.4219   -0.2462 O.3       1 GTP        -0.1436
     17 C3'         1.9404   -0.7419    0.5596 C.3       1 GTP         0.1111
     18 O3'         2.7418   -0.8086    1.7389 O.3       1 GTP        -0.2728
     19 C2'         0.7477    0.1630    0.7858 C.3       1 GTP         0.1111
     20 O2'         0.1373   -0.0577    2.0407 O.3       1 GTP        -0.2728
     21 C1'         1.3733    1.5427    0.6747 C.3       1 GTP         0.2693
     22 N9          0.4520    2.5240    0.1767 N.pl3     1 GTP        -0.3222
     23 C8          0.5671    3.2221   -0.9473 C.ar      1 GTP         0.1640
     24 N7         -0.4560    4.0508   -1.1290 N.pl3     1 GTP        -0.3688
     25 C5         -1.2671    3.8585   -0.0441 C.ar      1 GTP         0.0648
     26 C6         -2.5318    4.5014    0.2817 C.ar      1 GTP         0.3597
     27 O6         -3.0527    5.3493   -0.4293 O.2       1 GTP        -0.2755
     28 N1         -3.0357    4.0149    1.4868 N.pl3     1 GTP        -0.1604
     29 C2         -2.4069    3.0373    2.2768 C.ar      1 GTP         0.4468
     30 N2         -3.0679    2.6964    3.4278 N.pl3     1 GTP        -0.5618
     31 N3         -1.2653    2.4872    1.9379 N.2       1 GTP        -0.4283
     32 C4         -0.7342    2.9334    0.7643 C.ar      1 GTP         0.2226
     33 H5'         1.3514    0.2330   -2.1577 H         1 GTP        -0.0393
     34 H5''        2.1280   -1.3678   -2.0460 H         1 GTP        -0.0393
     35 H4'         3.8044   -0.1397   -0.4040 H         1 GTP        -0.0393
     36 H3'         1.6764   -1.7639    0.2728 H         1 GTP        -0.0393
     37 HO3'        3.5554   -1.2733    1.4914 H         1 GTP         0.2010
     38 H2'        -0.0011    0.0027    0.0003 H         1 GTP        -0.0393
     39 HO2'       -0.1563   -0.9855    2.0596 H         1 GTP         0.2010
     40 H1'         1.7826    1.9024    1.6451 H         1 GTP        -0.0393
     41 H8          1.3888    3.1325   -1.6361 H         1 GTP         0.0000
     42 HN1        -3.9188    4.3932    1.8170 H         1 GTP         0.0865
     43 HN21       -2.6609    2.0087    4.0186 H         1 GTP         0.2048
     44 HN22       -3.9293    3.1496    3.6283 H         1 GTP         0.2048
     45 H45        -0.5938    4.6820   -1.9060 H         1 GTP         0.2048
@<TRIPOS>BOND
     1    1    2 2
     2    1    3 1
     3    1    4 1
     4    1    5 1
     5    5    6 1
     6    6    7 2
     7    6    8 1
     8    6    9 1
     9    9   10 1
    10   10   11 2
    11   10   12 1
    12   10   13 1
    13   13   14 1
    14   14   15 1
    15   14   33 1
    16   14   34 1
    17   15   16 1
    18   15   17 1
    19   15   35 1
    20   16   21 1
    21   17   18 1
    22   17   19 1
    23   17   36 1
    24   18   37 1
    25   19   20 1
    26   19   21 1
    27   19   38 1
    28   20   39 1
    29   21   22 1
    30   21   40 1
    31   22   23 ar
    32   22   32 ar
    33   23   24 ar
    34   23   41 1
    35   24   25 ar
    36   24   45 1
    37   25   26 ar
    38   25   32 ar
    39   26   27 2
    40   26   28 ar
    41   28   29 ar
    42   28   42 1
    43   29   30 1
    44   29   31 ar
    45   30   43 1
    46   30   44 1
    47   31   32 ar
@<TRIPOS>SUBSTRUCTURE
     1 GTP         1 GROUP 0 A     ****
@<TRIPOS>MOLECULE
[[[5-(2-amino-6-oxo-7,8-dihydro-1~{H}-purin-8-ylium-9-yl)-3,4-dihydroxy-tetrahydrofuran-2-yl]methoxy-oxido-phosphoryl]oxy-oxido-phosphoryl] phosphate
   45    47     1     0     0
SMALL
USER_CHARGES

@<TRIPOS>ATOM
      1 PG          4.9279    1.3750   -7.4789 P.3       1 GTP        -1.1921
      2 O1G         3.7953    2.0766   -8.2211 O.co2     1 GTP         0.3195
      3 O2G         5.8694    2.3154   -6.7340 O.co2     1 GTP         0.3195
      4 O3G         5.6351    0.2957   -8.2918 O.co2     1 GTP         0.3195
      5 O3B         4.1673    0.5320   -6.2828 O.3       1 GTP         0.4672
      6 PB          3.0322   -0.6389   -6.3814 P.3       1 GTP        -1.1062
      7 O1B         1.7667   -0.0430   -6.9567 O.co2     1 GTP         0.3195
      8 O2B         3.6568   -1.8859   -6.9663 O.co2     1 GTP         0.3195
      9 O3A         2.8207   -0.9317   -4.7892 O.3       1 GTP         0.4672
     10 PA          3.8941   -1.4366   -3.6656 P.3       1 GTP        -1.1062
     11 O1A         4.3160   -2.8480   -4.0112 O.co2     1 GTP         0.3195
     12 O2A         4.9202   -0.3480   -3.4373 O.co2     1 GTP         0.3195
     13 O5'         2.9216   -1.4836   -2.3516 O.3       1 GTP         0.1618
     14 C5'         2.2816   -0.2918   -1.9206 C.3       1 GTP         0.1504
     15 C4'         2.7248    0.0226   -0.4980 C.3       1 GTP         0.1111
     16 O4'         2.4697    1.4219   -0.2462 O.3       1 GTP        -0.1436
     17 C3'         1.9404   -0.7419    0.5596 C.3       1 GTP         0.1111
     18 O3'         2.7418   -0.8086    1.7389 O.3       1 GTP        -0.2728
     19 C2'         0.7477    0.1630    0.7858 C.3       1 GTP         0.1111
     20 O2'         0.1373   -0.0577    2.0407 O.3       1 GTP        -0.2728
     21 C1'         1.3733    1.5427    0.6747 C.3       1 GTP         0.2693
     22 N9          0.4520    2.5240    0.1767 N.pl3     1 GTP        -0.3222
     23 C8         -0.2009    2.4849   -0.9792 C.ar      1 GTP         0.1640
     24 N7         -0.9840    3.5454   -1.1481 N.pl3     1 GTP        -0.3688
     25 C5         -0.8090    4.3005   -0.0206 C.ar      1 GTP         0.0648
     26 C6         -1.4206    5.5724    0.3362 C.ar      1 GTP         0.3597
     27 O6         -2.2199    6.1544   -0.3836 O.2       1 GTP        -0.2755
     28 N1         -0.9680    6.0043    1.5817 N.pl3     1 GTP        -0.1604
     29 C2         -0.0474    5.3055    2.3814 C.ar      1 GTP         0.4468
     30 N2          0.2680    5.9024    3.5740 N.pl3     1 GTP        -0.5618
     31 N3          0.4755    4.1601    2.0138 N.2       1 GTP        -0.4283
     32 C4          0.0611    3.6981    0.8001 C.ar      1 GTP         0.2226
     33 H5'         2.5589    0.5217   -2.5976 H         1 GTP        -0.0393
     34 H5''        1.1982   -0.4388   -1.9617 H         1 GTP        -0.0393
     35 H4'         3.8044   -0.1397   -0.4040 H         1 GTP        -0.0393
     36 H3'         1.6764   -1.7639    0.2728 H         1 GTP        -0.0393
     37 HO3'        2.2232   -1.2979    2.3953 H         1 GTP         0.2010
     38 H2'        -0.0011    0.0027    0.0003 H         1 GTP        -0.0393
     39 HO2'       -0.1563   -0.9855    2.0596 H         1 GTP         0.2010
     40 H1'         1.7826    1.9024    1.6451 H         1 GTP        -0.0393
     41 H8         -0.1126    1.6906   -1.6997 H         1 GTP         0.0000
     42 HN1        -1.3285    6.8855    1.9361 H         1 GTP         0.0865
     43 HN21        0.9153    5.4446    4.1732 H         1 GTP         0.2048
     44 HN22       -0.1624    6.7706    3.7948 H         1 GTP         0.2048
     45 H45        -1.5768    3.7405   -1.9429 H         1 GTP         0.2048
@<TRIPOS>BOND
     1    1    2 2
     2    1    3 1
     3    1    4 1
     4    1    5 1
     5    5    6 1
     6    6    7 2
     7    6    8 1
     8    6    9 1
     9    9   10 1
    10   10   11 2
    11   10   12 1
    12   10   13 1
    13   13   14 1
    14   14   15 1
    15   14   33 1
    16   14   34 1
    17   15   16 1
    18   15   17 1
    19   15   35 1
    20   16   21 1
    21   17   18 1
    22   17   19 1
    23   17   36 1
    24   18   37 1
    25   19   20 1
    26   19   21 1
    27   19   38 1
    28   20   39 1
    29   21   22 1
    30   21   40 1
    31   22   23 ar
    32   22   32 ar
    33   23   24 ar
    34   23   41 1
    35   24   25 ar
    36   24   45 1
    37   25   26 ar
    38   25   32 ar
    39   26   27 2
    40   26   28 ar
    41   28   29 ar
    42   28   42 1
    43   29   30 1
    44   29   31 ar
    45   30   43 1
    46   30   44 1
    47   31   32 ar
@<TRIPOS>SUBSTRUCTURE
     1 GTP         1 GROUP 0 A     ****
@<TRIPOS>MOLECULE
[[[5-(2-amino-6-oxo-7,8-dihydro-1~{H}-purin-8-ylium-9-yl)-3,4-dihydroxy-tetrahydrofuran-2-yl]methoxy-oxido-phosphoryl]oxy-oxido-phosphoryl] phosphate
   45    47     1     0     0
SMALL
USER_CHARGES

@<TRIPOS>ATOM
      1 PG          6.6126   -1.4594   -5.3321 P.3       1 GTP        -1.1921
      2 O1G         7.0103   -2.8757   -5.7345 O.co2     1 GTP         0.3195
      3 O2G         7.5599   -0.3740   -5.8322 O.co2     1 GTP         0.3195
      4 O3G         6.2111   -1.3139   -3.8680 O.co2     1 GTP         0.3195
      5 O3B         5.2099   -1.1834   -6.1543 O.3       1 GTP         0.4672
      6 PB          3.7844   -1.9794   -6.0966 P.3       1 GTP        -1.1062
      7 O1B         2.7769   -1.2361   -6.9452 O.co2     1 GTP         0.3195
      8 O2B         4.0359   -3.4593   -6.2810 O.co2     1 GTP         0.3195
      9 O3A         3.4295   -1.7646   -4.5176 O.3       1 GTP         0.4672
     10 PA          2.1375   -2.2725   -3.6560 P.3       1 GTP        -1.1062
     11 O1A         0.9094   -1.5552   -4.1728 O.co2     1 GTP         0.3195
     12 O2A         2.1749   -3.7817   -3.5514 O.co2     1 GTP         0.3195
     13 O5'         2.5245   -1.6648   -2.1878 O.3       1 GTP         0.1618
     14 C5'         2.2816   -0.2918   -1.9206 C.3       1 GTP         0.1504
     15 C4'         2.7248    0.0226   -0.4980 C.3       1 GTP         0.1111
     16 O4'         2.4697    1.4219   -0.2462 O.3       1 GTP        -0.1436
     17 C3'         1.9404   -0.7419    0.5596 C.3       1 GTP         0.1111
     18 O3'         2.7418   -0.8086    1.7389 O.3       1 GTP        -0.2728
     19 C2'         0.7477    0.1630    0.7858 C.3       1 GTP         0.1111
     20 O2'         0.1373   -0.0577    2.0407 O.3       1 GTP        -0.2728
     21 C1'         1.3733    1.5427    0.6747 C.3       1 GTP         0.2693
     22 N9          0.4520    2.5240    0.1767 N.pl3     1 GTP        -0.3222
     23 C8          0.5671    3.2221   -0.9473 C.ar      1 GTP         0.1640
     24 N7         -0.4560    4.0508   -1.1290 N.pl3     1 GTP        -0.3688
     25 C5         -1.2671    3.8585   -0.0441 C.ar      1 GTP         0.0648
     26 C6         -2.5318    4.5014    0.2817 C.ar      1 GTP         0.3597
     27 O6         -3.0527    5.3493   -0.4293 O.2       1 GTP        -0.2755
     28 N1         -3.0357    4.0149    1.4868 N.pl3     1 GTP        -0.1604
     29 C2         -2.4069    3.0373    2.2768 C.ar      1 GTP         0.4468
     30 N2         -3.0679    2.6964    3.4278 N.pl3     1 GTP        -0.5618
     31 N3         -1.2653    2.4872    1.9379 N.2       1 GTP        -0.4283
     32 C4         -0.7342    2.9334    0.7643 C.ar      1 GTP         0.2226
     33 H5'         2.8432    0.3119   -2.6398 H         1 GTP        -0.0393
     34 H5''        1.2128   -0.0927   -2.0428 H         1 GTP        -0.0393
     35 H4'         3.8044   -0.1397   -0.4040 H         1 GTP        -0.0393
     36 H3'         1.6764   -1.7639    0.2728 H         1 GTP        -0.0393
     37 HO3'        3.5554   -1.2733    1.4914 H         1 GTP         0.2010
     38 H2'        -0.0011    0.0027    0.0003 H         1 GTP        -0.0393
     39 HO2'       -0.1563   -0.9855    2.0596 H         1 GTP         0.2010
     40 H1'         1.7826    1.9024    1.6451 H         1 GTP        -0.0393
     41 H8          1.3888    3.1325   -1.6361 H         1 GTP         0.0000
     42 HN1        -3.9188    4.3932    1.8170 H         1 GTP         0.0865
     43 HN21       -2.6609    2.0087    4.0186 H         1 GTP         0.2048
     44 HN22       -3.9293    3.1496    3.6283 H         1 GTP         0.2048
     45 H45        -0.5938    4.6820   -1.9060 H         1 GTP         0.2048
@<TRIPOS>BOND
     1    1    2 2
     2    1    3 1
     3    1    4 1
     4    1    5 1
     5    5    6 1
     6    6    7 2
     7    6    8 1
     8    6    9 1
     9    9   10 1
    10   10   11 2
    11   10   12 1
    12   10   13 1
    13   13   14 1
    14   14   15 1
    15   14   33 1
    16   14   34 1
    17   15   16 1
    18   15   17 1
    19   15   35 1
    20   16   21 1
    21   17   18 1
    22   17   19 1
    23   17   36 1
    24   18   37 1
    25   19   20 1
    26   19   21 1
    27   19   38 1
    28   20   39 1
    29   21   22 1
    30   21   40 1
    31   22   23 ar
    32   22   32 ar
    33   23   24 ar
    34   23   41 1
    35   24   25 ar
    36   24   45 1
    37   25   26 ar
    38   25   32 ar
    39   26   27 2
    40   26   28 ar
    41   28   29 ar
    42   28   42 1
    43   29   30 1
    44   29   31 ar
    45   30   43 1
    46   30   44 1
    47   31   32 ar
@<TRIPOS>SUBSTRUCTURE
     1 GTP         1 GROUP 0 A     ****
@<TRIPOS>MOLECULE
[[[5-(2-amino-6-oxo-7,8-dihydro-1~{H}-purin-8-ylium-9-yl)-3,4-dihydroxy-tetrahydrofuran-2-yl]methoxy-oxido-phosphoryl]oxy-oxido-phosphoryl] phosphate
   45    47     1     0     0
SMALL
USER_CHARGES

@<TRIPOS>ATOM
      1 PG         -1.5053   -5.9447   -2.9820 P.3       1 GTP        -1.1921
      2 O1G        -1.3268   -7.4165   -3.3394 O.co2     1 GTP         0.3195
      3 O2G        -1.7806   -5.0364   -4.1756 O.co2     1 GTP         0.3195
      4 O3G        -0.4594   -5.4045   -2.0123 O.co2     1 GTP         0.3195
      5 O3B        -2.9058   -5.9061   -2.1119 O.3       1 GTP         0.4672
      6 PB         -3.2956   -6.6577   -0.7147 P.3       1 GTP        -1.1062
      7 O1B        -4.6575   -6.1763   -0.2664 O.co2     1 GTP         0.3195
      8 O2B        -2.9789   -8.1312   -0.8401 O.co2     1 GTP         0.3195
      9 O3A        -2.1469   -6.0194    0.2540 O.3       1 GTP         0.4672
     10 PA         -1.8559   -6.2737    1.8416 P.3       1 GTP        -1.1062
     11 O1A        -3.0240   -5.7268    2.6328 O.co2     1 GTP         0.3195
     12 O2A        -1.3786   -7.6966    2.0352 O.co2     1 GTP         0.3195
     13 O5'        -0.5687   -5.2869    2.0510 O.3       1 GTP         0.1618
     14 C5'        -0.7840   -3.8935    2.2172 C.3       1 GTP         0.1504
     15 C4'        -0.0724   -3.1466    1.1027 C.3       1 GTP         0.1111
     16 O4'        -0.8674   -3.1929   -0.0945 O.3       1 GTP        -0.1436
     17 C3'         0.1338   -1.6715    1.4027 C.3       1 GTP         0.1111
     18 O3'         1.2893   -1.4445    2.1808 O.3       1 GTP        -0.2728
     19 C2'         0.2158   -1.0724    0.0128 C.3       1 GTP         0.1111
     20 O2'         1.5141   -1.2448   -0.5513 O.3       1 GTP        -0.2728
     21 C1'        -0.7897   -1.9176   -0.7583 C.3       1 GTP         0.2693
     22 N9         -2.1040   -1.3333   -0.7704 N.pl3     1 GTP        -0.3222
     23 C8         -3.0597   -1.5109    0.1345 C.ar      1 GTP         0.1640
     24 N7         -4.1618   -0.8291   -0.1607 N.pl3     1 GTP        -0.3688
     25 C5         -3.8764   -0.1805   -1.3310 C.ar      1 GTP         0.0648
     26 C6         -4.7187    0.7111   -2.1152 C.ar      1 GTP         0.3597
     27 O6         -5.8617    1.0043   -1.7939 O.2       1 GTP        -0.2755
     28 N1         -4.0405    1.1608   -3.2468 N.pl3     1 GTP        -0.1604
     29 C2         -2.7239    0.8013   -3.5822 C.ar      1 GTP         0.4468
     30 N2         -2.2399    1.3534   -4.7394 N.pl3     1 GTP        -0.5618
     31 N3         -2.0053   -0.0071   -2.8402 N.2       1 GTP        -0.4283
     32 C4         -2.6290   -0.4727   -1.7210 C.ar      1 GTP         0.2226
     33 H5'        -1.8598   -3.6968    2.1850 H         1 GTP        -0.0393
     34 H5''       -0.3933   -3.5903    3.1931 H         1 GTP        -0.0393
     35 H4'         0.8874   -3.6466    0.8805 H         1 GTP        -0.0393
     36 H3'        -0.7376   -1.2333    1.9867 H         1 GTP        -0.0393
     37 HO3'        1.3408   -0.4870    2.3219 H         1 GTP         0.2010
     38 H2'        -0.0384   -0.0310    0.0096 H         1 GTP        -0.0393
     39 HO2'        2.1463   -0.7958    0.0370 H         1 GTP         0.2010
     40 H1'        -0.4769   -2.1002   -1.8093 H         1 GTP        -0.0393
     41 H8         -2.9610   -2.1316    1.0079 H         1 GTP         0.0000
     42 HN1        -4.5320    1.7923   -3.8726 H         1 GTP         0.0865
     43 HN21       -1.3128    1.1277   -5.0171 H         1 GTP         0.2048
     44 HN22       -2.8342    1.9586   -5.2572 H         1 GTP         0.2048
     45 H45        -5.0195   -0.8034    0.3729 H         1 GTP         0.2048
@<TRIPOS>BOND
     1    1    2 2
     2    1    3 1
     3    1    4 1
     4    1    5 1
     5    5    6 1
     6    6    7 2
     7    6    8 1
     8    6    9 1
     9    9   10 1
    10   10   11 2
    11   10   12 1
    12   10   13 1
    13   13   14 1
    14   14   15 1
    15   14   33 1
    16   14   34 1
    17   15   16 1
    18   15   17 1
    19   15   35 1
    20   16   21 1
    21   17   18 1
    22   17   19 1
    23   17   36 1
    24   18   37 1
    25   19   20 1
    26   19   21 1
    27   19   38 1
    28   20   39 1
    29   21   22 1
    30   21   40 1
    31   22   23 ar
    32   22   32 ar
    33   23   24 ar
    34   23   41 1
    35   24   25 ar
    36   24   45 1
    37   25   26 ar
    38   25   32 ar
    39   26   27 2
    40   26   28 ar
    41   28   29 ar
    42   28   42 1
    43   29   30 1
    44   29   31 ar
    45   30   43 1
    46   30   44 1
    47   31   32 ar
@<TRIPOS>SUBSTRUCTURE
     1 GTP         1 GROUP 0 A     ****
@<TRIPOS>MOLECULE
[[[5-(2-amino-6-oxo-7,8-dihydro-1~{H}-purin-8-ylium-9-yl)-3,4-dihydroxy-tetrahydrofuran-2-yl]methoxy-oxido-phosphoryl]oxy-oxido-phosphoryl] phosphate
   45    47     1     0     0
SMALL
USER_CHARGES

@<TRIPOS>ATOM
      1 PG          6.2254   -3.5234   -2.5709 P.3       1 GTP        -1.1921
      2 O1G         5.5200   -4.7609   -3.1157 O.co2     1 GTP         0.3195
      3 O2G         7.6077   -3.7934   -1.9863 O.co2     1 GTP         0.3195
      4 O3G         5.3432   -2.6300   -1.7052 O.co2     1 GTP         0.3195
      5 O3B         6.5232   -2.6053   -3.9082 O.3       1 GTP         0.4672
      6 PB          5.4856   -1.9685   -4.9977 P.3       1 GTP        -1.1062
      7 O1B         6.2620   -1.0914   -5.9545 O.co2     1 GTP         0.3195
      8 O2B         4.5604   -3.0566   -5.4949 O.co2     1 GTP         0.3195
      9 O3A         4.5998   -1.0308   -3.9969 O.3       1 GTP         0.4672
     10 PA          3.3347   -0.0507   -4.3265 P.3       1 GTP        -1.1062
     11 O1A         3.8300    1.0925   -5.1853 O.co2     1 GTP         0.3195
     12 O2A         2.1534   -0.8944   -4.7538 O.co2     1 GTP         0.3195
     13 O5'         3.0213    0.5153   -2.8245 O.3       1 GTP         0.1618
     14 C5'         2.2816   -0.2918   -1.9206 C.3       1 GTP         0.1504
     15 C4'         2.7248    0.0226   -0.4980 C.3       1 GTP         0.1111
     16 O4'         2.4697    1.4219   -0.2462 O.3       1 GTP        -0.1436
     17 C3'         1.9404   -0.7419    0.5596 C.3       1 GTP         0.1111
     18 O3'         2.7418   -0.8086    1.7389 O.3       1 GTP        -0.2728
     19 C2'         0.7477    0.1630    0.7858 C.3       1 GTP         0.1111
     20 O2'         0.1373   -0.0577    2.0407 O.3       1 GTP        -0.2728
     21 C1'         1.3733    1.5427    0.6747 C.3       1 GTP         0.2693
     22 N9          0.4520    2.5240    0.1767 N.pl3     1 GTP        -0.3222
     23 C8         -0.6818    2.9109    0.7501 C.ar      1 GTP         0.1640
     24 N7         -1.3103    3.8415    0.0391 N.pl3     1 GTP        -0.3688
     25 C5         -0.5155    4.0512   -1.0547 C.ar      1 GTP         0.0648
     26 C6         -0.7125    4.9651   -2.1705 C.ar      1 GTP         0.3597
     27 O6         -1.6819    5.7047   -2.2651 O.2       1 GTP        -0.2755
     28 N1          0.3401    4.8672   -3.0790 N.pl3     1 GTP        -0.1604
     29 C2          1.4396    4.0039   -2.9348 C.ar      1 GTP         0.4468
     30 N2          2.3679    4.0602   -3.9414 N.pl3     1 GTP        -0.5618
     31 N3          1.5708    3.1983   -1.9080 N.2       1 GTP        -0.4283
     32 C4          0.5630    3.2599   -0.9921 C.ar      1 GTP         0.2226
     33 H5'         1.2163   -0.0770   -2.0471 H         1 GTP        -0.0393
     34 H5''        2.4655   -1.3443   -2.1563 H         1 GTP        -0.0393
     35 H4'         3.8044   -0.1397   -0.4040 H         1 GTP        -0.0393
     36 H3'         1.6764   -1.7639    0.2728 H         1 GTP        -0.0393
     37 HO3'        2.2232   -1.2979    2.3953 H         1 GTP         0.2010
     38 H2'        -0.0011    0.0027    0.0003 H         1 GTP        -0.0393
     39 HO2'       -0.1563   -0.9855    2.0596 H         1 GTP         0.2010
     40 H1'         1.7826    1.9024    1.6451 H         1 GTP        -0.0393
     41 H8         -1.0545    2.5222    1.6816 H         1 GTP         0.0000
     42 HN1         0.3104    5.4612   -3.9026 H         1 GTP         0.0865
     43 HN21        3.1632    3.4672   -3.8824 H         1 GTP         0.2048
     44 HN22        2.2108    4.6918   -4.6924 H         1 GTP         0.2048
     45 H45        -2.1863    4.2902    0.2681 H         1 GTP         0.2048
@<TRIPOS>BOND
     1    1    2 2
     2    1    3 1
     3    1    4 1
     4    1    5 1
     5    5    6 1
     6    6    7 2
     7    6    8 1
     8    6    9 1
     9    9   10 1
    10   10   11 2
    11   10   12 1
    12   10   13 1
    13   13   14 1
    14   14   15 1
    15   14   33 1
    16   14   34 1
    17   15   16 1
    18   15   17 1
    19   15   35 1
    20   16   21 1
    21   17   18 1
    22   17   19 1
    23   17   36 1
    24   18   37 1
    25   19   20 1
    26   19   21 1
    27   19   38 1
    28   20   39 1
    29   21   22 1
    30   21   40 1
    31   22   23 ar
    32   22   32 ar
    33   23   24 ar
    34   23   41 1
    35   24   25 ar
    36   24   45 1
    37   25   26 ar
    38   25   32 ar
    39   26   27 2
    40   26   28 ar
    41   28   29 ar
    42   28   42 1
    43   29   30 1
    44   29   31 ar
    45   30   43 1
    46   30   44 1
    47   31   32 ar
@<TRIPOS>SUBSTRUCTURE
     1 GTP         1 GROUP 0 A     ****
@<TRIPOS>MOLECULE
[[[5-(2-amino-6-oxo-7,8-dihydro-1~{H}-purin-8-ylium-9-yl)-3,4-dihydroxy-tetrahydrofuran-2-yl]methoxy-oxido-phosphoryl]oxy-oxido-phosphoryl] phosphate
   45    47     1     0     0
SMALL
USER_CHARGES

@<TRIPOS>ATOM
      1 PG          5.7680   -1.8977   -6.9193 P.3       1 GTP        -1.1921
      2 O1G         6.2887   -1.5132   -5.5384 O.co2     1 GTP         0.3195
      3 O2G         6.0483   -3.3429   -7.3173 O.co2     1 GTP         0.3195
      4 O3G         6.0745   -0.8772   -8.0105 O.co2     1 GTP         0.3195
      5 O3B         4.1273   -1.8302   -6.7669 O.3       1 GTP         0.4672
      6 PB          3.1605   -0.5769   -6.3623 P.3       1 GTP        -1.1062
      7 O1B         3.8725    0.7150   -6.6965 O.co2     1 GTP         0.3195
      8 O2B         1.7569   -0.8564   -6.8514 O.co2     1 GTP         0.3195
      9 O3A         3.1340   -0.7803   -4.7426 O.3       1 GTP         0.4672
     10 PA          2.6201   -2.0522   -3.8550 P.3       1 GTP        -1.1062
     11 O1A         1.1236   -2.1846   -4.0358 O.co2     1 GTP         0.3195
     12 O2A         3.5431   -3.2274   -4.0940 O.co2     1 GTP         0.3195
     13 O5'         2.9216   -1.4836   -2.3516 O.3       1 GTP         0.1618
     14 C5'         2.2816   -0.2918   -1.9206 C.3       1 GTP         0.1504
     15 C4'         2.7248    0.0226   -0.4980 C.3       1 GTP         0.1111
     16 O4'         2.4697    1.4219   -0.2462 O.3       1 GTP        -0.1436
     17 C3'         1.9404   -0.7419    0.5596 C.3       1 GTP         0.1111
     18 O3'         2.7418   -0.8086    1.7389 O.3       1 GTP        -0.2728
     19 C2'         0.7477    0.1630    0.7858 C.3       1 GTP         0.1111
     20 O2'         0.1373   -0.0577    2.0407 O.3       1 GTP        -0.2728
     21 C1'         1.3733    1.5427    0.6747 C.3       1 GTP         0.2693
     22 N9          0.4520    2.5240    0.1767 N.pl3     1 GTP        -0.3222
     23 C8         -0.2009    2.4849   -0.9792 C.ar      1 GTP         0.1640
     24 N7         -0.9840    3.5454   -1.1481 N.pl3     1 GTP        -0.3688
     25 C5         -0.8090    4.3005   -0.0206 C.ar      1 GTP         0.0648
     26 C6         -1.4206    5.5724    0.3362 C.ar      1 GTP         0.3597
     27 O6         -2.2199    6.1544   -0.3836 O.2       1 GTP        -0.2755
     28 N1         -0.9680    6.0043    1.5817 N.pl3     1 GTP        -0.1604
     29 C2         -0.0474    5.3055    2.3814 C.ar      1 GTP         0.4468
     30 N2          0.2680    5.9024    3.5740 N.pl3     1 GTP        -0.5618
     31 N3          0.4755    4.1601    2.0138 N.2       1 GTP        -0.4283
     32 C4          0.0611    3.6981    0.8001 C.ar      1 GTP         0.2226
     33 H5'         2.5589    0.5217   -2.5976 H         1 GTP        -0.0393
     34 H5''        1.1982   -0.4388   -1.9617 H         1 GTP        -0.0393
     35 H4'         3.8044   -0.1397   -0.4040 H         1 GTP        -0.0393
     36 H3'         1.6764   -1.7639    0.2728 H         1 GTP        -0.0393
     37 HO3'        2.2232   -1.2979    2.3953 H         1 GTP         0.2010
     38 H2'        -0.0011    0.0027    0.0003 H         1 GTP        -0.0393
     39 HO2'       -0.6141    0.5574    2.1082 H         1 GTP         0.2010
     40 H1'         1.7826    1.9024    1.6451 H         1 GTP        -0.0393
     41 H8         -0.1126    1.6906   -1.6997 H         1 GTP         0.0000
     42 HN1        -1.3285    6.8855    1.9361 H         1 GTP         0.0865
     43 HN21        0.9153    5.4446    4.1732 H         1 GTP         0.2048
     44 HN22       -0.1624    6.7706    3.7948 H         1 GTP         0.2048
     45 H45        -1.5768    3.7405   -1.9429 H         1 GTP         0.2048
@<TRIPOS>BOND
     1    1    2 2
     2    1    3 1
     3    1    4 1
     4    1    5 1
     5    5    6 1
     6    6    7 2
     7    6    8 1
     8    6    9 1
     9    9   10 1
    10   10   11 2
    11   10   12 1
    12   10   13 1
    13   13   14 1
    14   14   15 1
    15   14   33 1
    16   14   34 1
    17   15   16 1
    18   15   17 1
    19   15   35 1
    20   16   21 1
    21   17   18 1
    22   17   19 1
    23   17   36 1
    24   18   37 1
    25   19   20 1
    26   19   21 1
    27   19   38 1
    28   20   39 1
    29   21   22 1
    30   21   40 1
    31   22   23 ar
    32   22   32 ar
    33   23   24 ar
    34   23   41 1
    35   24   25 ar
    36   24   45 1
    37   25   26 ar
    38   25   32 ar
    39   26   27 2
    40   26   28 ar
    41   28   29 ar
    42   28   42 1
    43   29   30 1
    44   29   31 ar
    45   30   43 1
    46   30   44 1
    47   31   32 ar
@<TRIPOS>SUBSTRUCTURE
     1 GTP         1 GROUP 0 A     ****
@<TRIPOS>MOLECULE
[[[5-(2-amino-6-oxo-7,8-dihydro-1~{H}-purin-8-ylium-9-yl)-3,4-dihydroxy-tetrahydrofuran-2-yl]methoxy-oxido-phosphoryl]oxy-oxido-phosphoryl] phosphate
   45    47     1     0     0
SMALL
USER_CHARGES

@<TRIPOS>ATOM
      1 PG          1.3552   -4.4497   -4.9164 P.3       1 GTP        -1.1921
      2 O1G         0.8997   -3.7534   -3.6384 O.co2     1 GTP         0.3195
      3 O2G         0.4448   -4.2182   -6.1177 O.co2     1 GTP         0.3195
      4 O3G         1.7775   -5.9022   -4.7217 O.co2     1 GTP         0.3195
      5 O3B         2.7587   -3.6822   -5.3178 O.3       1 GTP         0.4672
      6 PB          4.1534   -3.5369   -4.4795 P.3       1 GTP        -1.1062
      7 O1B         4.2548   -4.6850   -3.5002 O.co2     1 GTP         0.3195
      8 O2B         5.2766   -3.2140   -5.4394 O.co2     1 GTP         0.3195
      9 O3A         3.8279   -2.1576   -3.6689 O.3       1 GTP         0.4672
     10 PA          3.4850   -0.6647   -4.2376 P.3       1 GTP        -1.1062
     11 O1A         4.7151   -0.1278   -4.9364 O.co2     1 GTP         0.3195
     12 O2A         2.1420   -0.6972   -4.9342 O.co2     1 GTP         0.3195
     13 O5'         3.2903    0.1346   -2.8241 O.3       1 GTP         0.1618
     14 C5'         2.2816   -0.2918   -1.9206 C.3       1 GTP         0.1504
     15 C4'         2.7248    0.0226   -0.4980 C.3       1 GTP         0.1111
     16 O4'         2.4697    1.4219   -0.2462 O.3       1 GTP        -0.1436
     17 C3'         1.9404   -0.7419    0.5596 C.3       1 GTP         0.1111
     18 O3'         2.7418   -0.8086    1.7389 O.3       1 GTP        -0.2728
     19 C2'         0.7477    0.1630    0.7858 C.3       1 GTP         0.1111
     20 O2'         0.1373   -0.0577    2.0407 O.3       1 GTP        -0.2728
     21 C1'         1.3733    1.5427    0.6747 C.3       1 GTP         0.2693
     22 N9          0.4520    2.5240    0.1767 N.pl3     1 GTP        -0.3222
     23 C8         -0.2009    2.4849   -0.9792 C.ar      1 GTP         0.1640
     24 N7         -0.9840    3.5454   -1.1481 N.pl3     1 GTP        -0.3688
     25 C5         -0.8090    4.3005   -0.0206 C.ar      1 GTP         0.0648
     26 C6         -1.4206    5.5724    0.3362 C.ar      1 GTP         0.3597
     27 O6         -2.2199    6.1544   -0.3836 O.2       1 GTP        -0.2755
     28 N1         -0.9680    6.0043    1.5817 N.pl3     1 GTP        -0.1604
     29 C2         -0.0474    5.3055    2.3814 C.ar      1 GTP         0.4468
     30 N2          0.2680    5.9024    3.5740 N.pl3     1 GTP        -0.5618
     31 N3          0.4755    4.1601    2.0138 N.2       1 GTP        -0.4283
     32 C4          0.0611    3.6981    0.8001 C.ar      1 GTP         0.2226
     33 H5'         1.3514    0.2330   -2.1577 H         1 GTP        -0.0393
     34 H5''        2.1280   -1.3678   -2.0460 H         1 GTP        -0.0393
     35 H4'         3.8044   -0.1397   -0.4040 H         1 GTP        -0.0393
     36 H3'         1.6764   -1.7639    0.2728 H         1 GTP        -0.0393
     37 HO3'        2.2232   -1.2979    2.3953 H         1 GTP         0.2010
     38 H2'        -0.0011    0.0027    0.0003 H         1 GTP        -0.0393
     39 HO2'       -0.1563   -0.9855    2.0596 H         1 GTP         0.2010
     40 H1'         1.7826    1.9024    1.6451 H         1 GTP        -0.0393
     41 H8         -0.1126    1.6906   -1.6997 H         1 GTP         0.0000
     42 HN1        -1.3285    6.8855    1.9361 H         1 GTP         0.0865
     43 HN21        0.9153    5.4446    4.1732 H         1 GTP         0.2048
     44 HN22       -0.1624    6.7706    3.7948 H         1 GTP         0.2048
     45 H45        -1.5768    3.7405   -1.9429 H         1 GTP         0.2048
@<TRIPOS>BOND
     1    1    2 2
     2    1    3 1
     3    1    4 1
     4    1    5 1
     5    5    6 1
     6    6    7 2
     7    6    8 1
     8    6    9 1
     9    9   10 1
    10   10   11 2
    11   10   12 1
    12   10   13 1
    13   13   14 1
    14   14   15 1
    15   14   33 1
    16   14   34 1
    17   15   16 1
    18   15   17 1
    19   15   35 1
    20   16   21 1
    21   17   18 1
    22   17   19 1
    23   17   36 1
    24   18   37 1
    25   19   20 1
    26   19   21 1
    27   19   38 1
    28   20   39 1
    29   21   22 1
    30   21   40 1
    31   22   23 ar
    32   22   32 ar
    33   23   24 ar
    34   23   41 1
    35   24   25 ar
    36   24   45 1
    37   25   26 ar
    38   25   32 ar
    39   26   27 2
    40   26   28 ar
    41   28   29 ar
    42   28   42 1
    43   29   30 1
    44   29   31 ar
    45   30   43 1
    46   30   44 1
    47   31   32 ar
@<TRIPOS>SUBSTRUCTURE
     1 GTP         1 GROUP 0 A     ****
@<TRIPOS>MOLECULE
[[[5-(2-amino-6-oxo-7,8-dihydro-1~{H}-purin-8-ylium-9-yl)-3,4-dihydroxy-tetrahydrofuran-2-yl]methoxy-oxido-phosphoryl]oxy-oxido-phosphoryl] phosphate
   45    47     1     0     0
SMALL
USER_CHARGES

@<TRIPOS>ATOM
      1 PG          4.6343   -4.5088   -6.0869 P.3       1 GTP        -1.1921
      2 O1G         5.4181   -3.9898   -7.2878 O.co2     1 GTP         0.3195
      3 O2G         5.4993   -5.1011   -4.9795 O.co2     1 GTP         0.3195
      4 O3G         3.4179   -5.3538   -6.4508 O.co2     1 GTP         0.3195
      5 O3B         3.9835   -3.1524   -5.4111 O.3       1 GTP         0.4672
      6 PB          2.9619   -2.0480   -6.0480 P.3       1 GTP        -1.1062
      7 O1B         3.6700   -1.3184   -7.1677 O.co2     1 GTP         0.3195
      8 O2B         1.6066   -2.6873   -6.2527 O.co2     1 GTP         0.3195
      9 O3A         2.8145   -1.0558   -4.7598 O.3       1 GTP         0.4672
     10 PA          3.9556   -0.2056   -3.9568 P.3       1 GTP        -1.1062
     11 O1A         4.8843   -1.1846   -3.2722 O.co2     1 GTP         0.3195
     12 O2A         4.4944    0.8789   -4.8642 O.co2     1 GTP         0.3195
     13 O5'         3.0213    0.5153   -2.8245 O.3       1 GTP         0.1618
     14 C5'         2.2816   -0.2918   -1.9206 C.3       1 GTP         0.1504
     15 C4'         2.7248    0.0226   -0.4980 C.3       1 GTP         0.1111
     16 O4'         2.4697    1.4219   -0.2462 O.3       1 GTP        -0.1436
     17 C3'         1.9404   -0.7419    0.5596 C.3       1 GTP         0.1111
     18 O3'         2.7418   -0.8086    1.7389 O.3       1 GTP        -0.2728
     19 C2'         0.7477    0.1630    0.7858 C.3       1 GTP         0.1111
     20 O2'         0.1373   -0.0577    2.0407 O.3       1 GTP        -0.2728
     21 C1'         1.3733    1.5427    0.6747 C.3       1 GTP         0.2693
     22 N9          0.4520    2.5240    0.1767 N.pl3     1 GTP        -0.3222
     23 C8          0.5671    3.2221   -0.9473 C.ar      1 GTP         0.1640
     24 N7         -0.4560    4.0508   -1.1290 N.pl3     1 GTP        -0.3688
     25 C5         -1.2671    3.8585   -0.0441 C.ar      1 GTP         0.0648
     26 C6         -2.5318    4.5014    0.2817 C.ar      1 GTP         0.3597
     27 O6         -3.0527    5.3493   -0.4293 O.2       1 GTP        -0.2755
     28 N1         -3.0357    4.0149    1.4868 N.pl3     1 GTP        -0.1604
     29 C2         -2.4069    3.0373    2.2768 C.ar      1 GTP         0.4468
     30 N2         -3.0679    2.6964    3.4278 N.pl3     1 GTP        -0.5618
     31 N3         -1.2653    2.4872    1.9379 N.2       1 GTP        -0.4283
     32 C4         -0.7342    2.9334    0.7643 C.ar      1 GTP         0.2226
     33 H5'         1.2163   -0.0770   -2.0471 H         1 GTP        -0.0393
     34 H5''        2.4655   -1.3443   -2.1563 H         1 GTP        -0.0393
     35 H4'         3.8044   -0.1397   -0.4040 H         1 GTP        -0.0393
     36 H3'         1.6764   -1.7639    0.2728 H         1 GTP        -0.0393
     37 HO3'        3.5554   -1.2733    1.4914 H         1 GTP         0.2010
     38 H2'        -0.0011    0.0027    0.0003 H         1 GTP        -0.0393
     39 HO2'        0.8082    0.1199    2.7232 H         1 GTP         0.2010
     40 H1'         1.7826    1.9024    1.6451 H         1 GTP        -0.0393
     41 H8          1.3888    3.1325   -1.6361 H         1 GTP         0.0000
     42 HN1        -3.9188    4.3932    1.8170 H         1 GTP         0.0865
     43 HN21       -2.6609    2.0087    4.0186 H         1 GTP         0.2048
     44 HN22       -3.9293    3.1496    3.6283 H         1 GTP         0.2048
     45 H45        -0.5938    4.6820   -1.9060 H         1 GTP         0.2048
@<TRIPOS>BOND
     1    1    2 2
     2    1    3 1
     3    1    4 1
     4    1    5 1
     5    5    6 1
     6    6    7 2
     7    6    8 1
     8    6    9 1
     9    9   10 1
    10   10   11 2
    11   10   12 1
    12   10   13 1
    13   13   14 1
    14   14   15 1
    15   14   33 1
    16   14   34 1
    17   15   16 1
    18   15   17 1
    19   15   35 1
    20   16   21 1
    21   17   18 1
    22   17   19 1
    23   17   36 1
    24   18   37 1
    25   19   20 1
    26   19   21 1
    27   19   38 1
    28   20   39 1
    29   21   22 1
    30   21   40 1
    31   22   23 ar
    32   22   32 ar
    33   23   24 ar
    34   23   41 1
    35   24   25 ar
    36   24   45 1
    37   25   26 ar
    38   25   32 ar
    39   26   27 2
    40   26   28 ar
    41   28   29 ar
    42   28   42 1
    43   29   30 1
    44   29   31 ar
    45   30   43 1
    46   30   44 1
    47   31   32 ar
@<TRIPOS>SUBSTRUCTURE
     1 GTP         1 GROUP 0 A     ****
@<TRIPOS>MOLECULE
[[[5-(2-amino-6-oxo-7,8-dihydro-1~{H}-purin-8-ylium-9-yl)-3,4-dihydroxy-tetrahydrofuran-2-yl]methoxy-oxido-phosphoryl]oxy-oxido-phosphoryl] phosphate
   45    47     1     0     0
SMALL
USER_CHARGES

@<TRIPOS>ATOM
      1 PG          5.5256    0.3967   -5.8681 P.3       1 GTP        -1.1921
      2 O1G         6.1843    1.0511   -4.6583 O.co2     1 GTP         0.3195
      3 O2G         6.2925    0.5736   -7.1743 O.co2     1 GTP         0.3195
      4 O3G         4.0270    0.6563   -5.9819 O.co2     1 GTP         0.3195
      5 O3B         5.6225   -1.2200   -5.5571 O.3       1 GTP         0.4672
      6 PB          5.0166   -2.0887   -4.3131 P.3       1 GTP        -1.1062
      7 O1B         5.2692   -3.5566   -4.5757 O.co2     1 GTP         0.3195
      8 O2B         5.4218   -1.4365   -3.0101 O.co2     1 GTP         0.3195
      9 O3A         3.4295   -1.7646   -4.5176 O.3       1 GTP         0.4672
     10 PA          2.1375   -2.2725   -3.6560 P.3       1 GTP        -1.1062
     11 O1A         0.9094   -1.5552   -4.1728 O.co2     1 GTP         0.3195
     12 O2A         2.1749   -3.7817   -3.5514 O.co2     1 GTP         0.3195
     13 O5'         2.5245   -1.6648   -2.1878 O.3       1 GTP         0.1618
     14 C5'         2.2816   -0.2918   -1.9206 C.3       1 GTP         0.1504
     15 C4'         2.7248    0.0226   -0.4980 C.3       1 GTP         0.1111
     16 O4'         2.4697    1.4219   -0.2462 O.3       1 GTP        -0.1436
     17 C3'         1.9404   -0.7419    0.5596 C.3       1 GTP         0.1111
     18 O3'         2.7418   -0.8086    1.7389 O.3       1 GTP        -0.2728
     19 C2'         0.7477    0.1630    0.7858 C.3       1 GTP         0.1111
     20 O2'         0.1373   -0.0577    2.0407 O.3       1 GTP        -0.2728
     21 C1'         1.3733    1.5427    0.6747 C.3       1 GTP         0.2693
     22 N9          0.4520    2.5240    0.1767 N.pl3     1 GTP        -0.3222
     23 C8         -0.3350    3.3125    0.8998 C.ar      1 GTP         0.1640
     24 N7         -1.0716    4.1171    0.1405 N.pl3     1 GTP        -0.3688
     25 C5         -0.7219    3.8110   -1.1464 C.ar      1 GTP         0.0648
     26 C6         -1.2133    4.3827   -2.3917 C.ar      1 GTP         0.3597
     27 O6         -2.0567    5.2674   -2.4335 O.2       1 GTP        -0.2755
     28 N1         -0.5926    3.7846   -3.4870 N.pl3     1 GTP        -0.1604
     29 C2          0.3749    2.7691   -3.3983 C.ar      1 GTP         0.4468
     30 N2          0.8624    2.3146   -4.5959 N.pl3     1 GTP        -0.5618
     31 N3          0.7851    2.2875   -2.2493 N.2       1 GTP        -0.4283
     32 C4          0.2042    2.8436   -1.1486 C.ar      1 GTP         0.2226
     33 H5'         2.8432    0.3119   -2.6398 H         1 GTP        -0.0393
     34 H5''        1.2128   -0.0927   -2.0428 H         1 GTP        -0.0393
     35 H4'         3.8044   -0.1397   -0.4040 H         1 GTP        -0.0393
     36 H3'         1.6764   -1.7639    0.2728 H         1 GTP        -0.0393
     37 HO3'        2.2232   -1.2979    2.3953 H         1 GTP         0.2010
     38 H2'        -0.0011    0.0027    0.0003 H         1 GTP        -0.0393
     39 HO2'       -0.6141    0.5574    2.1082 H         1 GTP         0.2010
     40 H1'         1.7826    1.9024    1.6451 H         1 GTP        -0.0393
     41 H8         -0.3766    3.3075    1.9750 H         1 GTP         0.0000
     42 HN1        -0.8580    4.1049   -4.4138 H         1 GTP         0.0865
     43 HN21        1.5490    1.5963   -4.5827 H         1 GTP         0.2048
     44 HN22        0.5109    2.7205   -5.4321 H         1 GTP         0.2048
     45 H45        -1.7420    4.8034    0.4575 H         1 GTP         0.2048
@<TRIPOS>BOND
     1    1    2 2
     2    1    3 1
     3    1    4 1
     4    1    5 1
     5    5    6 1
     6    6    7 2
     7    6    8 1
     8    6    9 1
     9    9   10 1
    10   10   11 2
    11   10   12 1
    12   10   13 1
    13   13   14 1
    14   14   15 1
    15   14   33 1
    16   14   34 1
    17   15   16 1
    18   15   17 1
    19   15   35 1
    20   16   21 1
    21   17   18 1
    22   17   19 1
    23   17   36 1
    24   18   37 1
    25   19   20 1
    26   19   21 1
    27   19   38 1
    28   20   39 1
    29   21   22 1
    30   21   40 1
    31   22   23 ar
    32   22   32 ar
    33   23   24 ar
    34   23   41 1
    35   24   25 ar
    36   24   45 1
    37   25   26 ar
    38   25   32 ar
    39   26   27 2
    40   26   28 ar
    41   28   29 ar
    42   28   42 1
    43   29   30 1
    44   29   31 ar
    45   30   43 1
    46   30   44 1
    47   31   32 ar
@<TRIPOS>SUBSTRUCTURE
     1 GTP         1 GROUP 0 A     ****
@<TRIPOS>MOLECULE
[[[5-(2-amino-6-oxo-7,8-dihydro-1~{H}-purin-8-ylium-9-yl)-3,4-dihydroxy-tetrahydrofuran-2-yl]methoxy-oxido-phosphoryl]oxy-oxido-phosphoryl] phosphate
   45    47     1     0     0
SMALL
USER_CHARGES

@<TRIPOS>ATOM
      1 PG         -2.3824   -1.0219   -5.7292 P.3       1 GTP        -1.1921
      2 O1G        -3.0415   -0.5381   -4.4418 O.co2     1 GTP         0.3195
      3 O2G        -2.4036   -0.0065   -6.8668 O.co2     1 GTP         0.3195
      4 O3G        -2.7802   -2.4347   -6.1437 O.co2     1 GTP         0.3195
      5 O3B        -0.7859   -1.1607   -5.3397 O.3       1 GTP         0.4672
      6 PB         -0.0580   -2.0819   -4.2036 P.3       1 GTP        -1.1062
      7 O1B        -0.4928   -1.6029   -2.8364 O.co2     1 GTP         0.3195
      8 O2B        -0.1643   -3.5367   -4.6032 O.co2     1 GTP         0.3195
      9 O3A         1.4924   -1.6431   -4.4662 O.3       1 GTP         0.4672
     10 PA          2.8604   -2.1325   -3.7186 P.3       1 GTP        -1.1062
     11 O1A         2.9139   -3.6439   -3.7665 O.co2     1 GTP         0.3195
     12 O2A         4.0199   -1.2934   -4.2099 O.co2     1 GTP         0.3195
     13 O5'         2.5245   -1.6648   -2.1878 O.3       1 GTP         0.1618
     14 C5'         2.2816   -0.2918   -1.9206 C.3       1 GTP         0.1504
     15 C4'         2.7248    0.0226   -0.4980 C.3       1 GTP         0.1111
     16 O4'         2.4697    1.4219   -0.2462 O.3       1 GTP        -0.1436
     17 C3'         1.9404   -0.7419    0.5596 C.3       1 GTP         0.1111
     18 O3'         2.7418   -0.8086    1.7389 O.3       1 GTP        -0.2728
     19 C2'         0.7477    0.1630    0.7858 C.3       1 GTP         0.1111
     20 O2'         0.1373   -0.0577    2.0407 O.3       1 GTP        -0.2728
     21 C1'         1.3733    1.5427    0.6747 C.3       1 GTP         0.2693
     22 N9          0.4520    2.5240    0.1767 N.pl3     1 GTP        -0.3222
     23 C8         -0.2009    2.4849   -0.9792 C.ar      1 GTP         0.1640
     24 N7         -0.9840    3.5454   -1.1481 N.pl3     1 GTP        -0.3688
     25 C5         -0.8090    4.3005   -0.0206 C.ar      1 GTP         0.0648
     26 C6         -1.4206    5.5724    0.3362 C.ar      1 GTP         0.3597
     27 O6         -2.2199    6.1544   -0.3836 O.2       1 GTP        -0.2755
     28 N1         -0.9680    6.0043    1.5817 N.pl3     1 GTP        -0.1604
     29 C2         -0.0474    5.3055    2.3814 C.ar      1 GTP         0.4468
     30 N2          0.2680    5.9024    3.5740 N.pl3     1 GTP        -0.5618
     31 N3          0.4755    4.1601    2.0138 N.2       1 GTP        -0.4283
     32 C4          0.0611    3.6981    0.8001 C.ar      1 GTP         0.2226
     33 H5'         2.8432    0.3119   -2.6398 H         1 GTP        -0.0393
     34 H5''        1.2128   -0.0927   -2.0428 H         1 GTP        -0.0393
     35 H4'         3.8044   -0.1397   -0.4040 H         1 GTP        -0.0393
     36 H3'         1.6764   -1.7639    0.2728 H         1 GTP        -0.0393
     37 HO3'        3.5554   -1.2733    1.4914 H         1 GTP         0.2010
     38 H2'        -0.0011    0.0027    0.0003 H         1 GTP        -0.0393
     39 HO2'       -0.1563   -0.9855    2.0596 H         1 GTP         0.2010
     40 H1'         1.7826    1.9024    1.6451 H         1 GTP        -0.0393
     41 H8         -0.1126    1.6906   -1.6997 H         1 GTP         0.0000
     42 HN1        -1.3285    6.8855    1.9361 H         1 GTP         0.0865
     43 HN21        0.9153    5.4446    4.1732 H         1 GTP         0.2048
     44 HN22       -0.1624    6.7706    3.7948 H         1 GTP         0.2048
     45 H45        -1.5768    3.7405   -1.9429 H         1 GTP         0.2048
@<TRIPOS>BOND
     1    1    2 2
     2    1    3 1
     3    1    4 1
     4    1    5 1
     5    5    6 1
     6    6    7 2
     7    6    8 1
     8    6    9 1
     9    9   10 1
    10   10   11 2
    11   10   12 1
    12   10   13 1
    13   13   14 1
    14   14   15 1
    15   14   33 1
    16   14   34 1
    17   15   16 1
    18   15   17 1
    19   15   35 1
    20   16   21 1
    21   17   18 1
    22   17   19 1
    23   17   36 1
    24   18   37 1
    25   19   20 1
    26   19   21 1
    27   19   38 1
    28   20   39 1
    29   21   22 1
    30   21   40 1
    31   22   23 ar
    32   22   32 ar
    33   23   24 ar
    34   23   41 1
    35   24   25 ar
    36   24   45 1
    37   25   26 ar
    38   25   32 ar
    39   26   27 2
    40   26   28 ar
    41   28   29 ar
    42   28   42 1
    43   29   30 1
    44   29   31 ar
    45   30   43 1
    46   30   44 1
    47   31   32 ar
@<TRIPOS>SUBSTRUCTURE
     1 GTP         1 GROUP 0 A     ****
@<TRIPOS>MOLECULE
[[[5-(2-amino-6-oxo-7,8-dihydro-1~{H}-purin-8-ylium-9-yl)-3,4-dihydroxy-tetrahydrofuran-2-yl]methoxy-oxido-phosphoryl]oxy-oxido-phosphoryl] phosphate
   45    47     1     0     0
SMALL
USER_CHARGES

@<TRIPOS>ATOM
      1 PG          3.4096   -9.5520    2.6733 P.3       1 GTP        -1.1921
      2 O1G         3.3721   -9.8943    4.1589 O.co2     1 GTP         0.3195
      3 O2G         2.7416  -10.5855    1.7725 O.co2     1 GTP         0.3195
      4 O3G         4.7692   -9.0730    2.1752 O.co2     1 GTP         0.3195
      5 O3B         2.4494   -8.2177    2.5406 O.3       1 GTP         0.4672
      6 PB          2.5879   -6.7497    3.2440 P.3       1 GTP        -1.1062
      7 O1B         2.4023   -6.9056    4.7369 O.co2     1 GTP         0.3195
      8 O2B         3.7891   -6.0352    2.6661 O.co2     1 GTP         0.3195
      9 O3A         1.2700   -6.0288    2.6043 O.3       1 GTP         0.4672
     10 PA         -0.3075   -6.4382    2.7200 P.3       1 GTP        -1.1062
     11 O1A        -0.5103   -7.7566    2.0056 O.co2     1 GTP         0.3195
     12 O2A        -0.7651   -6.2453    4.1495 O.co2     1 GTP         0.3195
     13 O5'        -0.9724   -5.2440    1.8220 O.3       1 GTP         0.1618
     14 C5'        -0.7840   -3.8935    2.2172 C.3       1 GTP         0.1504
     15 C4'        -0.0724   -3.1466    1.1027 C.3       1 GTP         0.1111
     16 O4'        -0.8674   -3.1929   -0.0945 O.3       1 GTP        -0.1436
     17 C3'         0.1338   -1.6715    1.4027 C.3       1 GTP         0.1111
     18 O3'         1.2893   -1.4445    2.1808 O.3       1 GTP        -0.2728
     19 C2'         0.2158   -1.0724    0.0128 C.3       1 GTP         0.1111
     20 O2'         1.5141   -1.2448   -0.5513 O.3       1 GTP        -0.2728
     21 C1'        -0.7897   -1.9176   -0.7583 C.3       1 GTP         0.2693
     22 N9         -2.1040   -1.3333   -0.7704 N.pl3     1 GTP        -0.3222
     23 C8         -3.0597   -1.5109    0.1345 C.ar      1 GTP         0.1640
     24 N7         -4.1618   -0.8291   -0.1607 N.pl3     1 GTP        -0.3688
     25 C5         -3.8764   -0.1805   -1.3310 C.ar      1 GTP         0.0648
     26 C6         -4.7187    0.7111   -2.1152 C.ar      1 GTP         0.3597
     27 O6         -5.8617    1.0043   -1.7939 O.2       1 GTP        -0.2755
     28 N1         -4.0405    1.1608   -3.2468 N.pl3     1 GTP        -0.1604
     29 C2         -2.7239    0.8013   -3.5822 C.ar      1 GTP         0.4468
     30 N2         -2.2399    1.3534   -4.7394 N.pl3     1 GTP        -0.5618
     31 N3         -2.0053   -0.0071   -2.8402 N.2       1 GTP        -0.4283
     32 C4         -2.6290   -0.4727   -1.7210 C.ar      1 GTP         0.2226
     33 H5'        -1.7618   -3.4448    2.4164 H         1 GTP        -0.0393
     34 H5''       -0.1874   -3.8744    3.1341 H         1 GTP        -0.0393
     35 H4'         0.8874   -3.6466    0.8805 H         1 GTP        -0.0393
     36 H3'        -0.7376   -1.2333    1.9867 H         1 GTP        -0.0393
     37 HO3'        1.3408   -0.4870    2.3219 H         1 GTP         0.2010
     38 H2'        -0.0384   -0.0310    0.0096 H         1 GTP        -0.0393
     39 HO2'        2.1463   -0.7958    0.0370 H         1 GTP         0.2010
     40 H1'        -0.4769   -2.1002   -1.8093 H         1 GTP        -0.0393
     41 H8         -2.9610   -2.1316    1.0079 H         1 GTP         0.0000
     42 HN1        -4.5320    1.7923   -3.8726 H         1 GTP         0.0865
     43 HN21       -1.3128    1.1277   -5.0171 H         1 GTP         0.2048
     44 HN22       -2.8342    1.9586   -5.2572 H         1 GTP         0.2048
     45 H45        -5.0195   -0.8034    0.3729 H         1 GTP         0.2048
@<TRIPOS>BOND
     1    1    2 2
     2    1    3 1
     3    1    4 1
     4    1    5 1
     5    5    6 1
     6    6    7 2
     7    6    8 1
     8    6    9 1
     9    9   10 1
    10   10   11 2
    11   10   12 1
    12   10   13 1
    13   13   14 1
    14   14   15 1
    15   14   33 1
    16   14   34 1
    17   15   16 1
    18   15   17 1
    19   15   35 1
    20   16   21 1
    21   17   18 1
    22   17   19 1
    23   17   36 1
    24   18   37 1
    25   19   20 1
    26   19   21 1
    27   19   38 1
    28   20   39 1
    29   21   22 1
    30   21   40 1
    31   22   23 ar
    32   22   32 ar
    33   23   24 ar
    34   23   41 1
    35   24   25 ar
    36   24   45 1
    37   25   26 ar
    38   25   32 ar
    39   26   27 2
    40   26   28 ar
    41   28   29 ar
    42   28   42 1
    43   29   30 1
    44   29   31 ar
    45   30   43 1
    46   30   44 1
    47   31   32 ar
@<TRIPOS>SUBSTRUCTURE
     1 GTP         1 GROUP 0 A     ****
@<TRIPOS>MOLECULE
[[[5-(2-amino-6-oxo-7,8-dihydro-1~{H}-purin-8-ylium-9-yl)-3,4-dihydroxy-tetrahydrofuran-2-yl]methoxy-oxido-phosphoryl]oxy-oxido-phosphoryl] phosphate
   45    47     1     0     0
SMALL
USER_CHARGES

@<TRIPOS>ATOM
      1 PG          2.9491   -7.9363    5.1023 P.3       1 GTP        -1.1921
      2 O1G         3.8468   -7.3788    4.0027 O.co2     1 GTP         0.3195
      3 O2G         3.3855   -7.5699    6.5168 O.co2     1 GTP         0.3195
      4 O3G         2.5769   -9.4043    4.9225 O.co2     1 GTP         0.3195
      5 O3B         1.5190   -7.1401    4.9004 O.3       1 GTP         0.4672
      6 PB          0.5137   -7.0961    3.6134 P.3       1 GTP        -1.1062
      7 O1B         1.2193   -6.4055    2.4677 O.co2     1 GTP         0.3195
      8 O2B        -0.1316   -8.4532    3.4427 O.co2     1 GTP         0.3195
      9 O3A        -0.6389   -6.1095    4.2164 O.3       1 GTP         0.4672
     10 PA         -0.5242   -4.5704    4.7529 P.3       1 GTP        -1.1062
     11 O1A        -1.9184   -4.0686    5.0597 O.co2     1 GTP         0.3195
     12 O2A         0.5809   -4.4868    5.7833 O.co2     1 GTP         0.3195
     13 O5'         0.0118   -3.8395    3.3916 O.3       1 GTP         0.1618
     14 C5'        -0.7840   -3.8935    2.2172 C.3       1 GTP         0.1504
     15 C4'        -0.0724   -3.1466    1.1027 C.3       1 GTP         0.1111
     16 O4'        -0.8674   -3.1929   -0.0945 O.3       1 GTP        -0.1436
     17 C3'         0.1338   -1.6715    1.4027 C.3       1 GTP         0.1111
     18 O3'         1.2893   -1.4445    2.1808 O.3       1 GTP        -0.2728
     19 C2'         0.2158   -1.0724    0.0128 C.3       1 GTP         0.1111
     20 O2'         1.5141   -1.2448   -0.5513 O.3       1 GTP        -0.2728
     21 C1'        -0.7897   -1.9176   -0.7583 C.3       1 GTP         0.2693
     22 N9         -2.1040   -1.3333   -0.7704 N.pl3     1 GTP        -0.3222
     23 C8         -3.0597   -1.5109    0.1345 C.ar      1 GTP         0.1640
     24 N7         -4.1618   -0.8291   -0.1607 N.pl3     1 GTP        -0.3688
     25 C5         -3.8764   -0.1805   -1.3310 C.ar      1 GTP         0.0648
     26 C6         -4.7187    0.7111   -2.1152 C.ar      1 GTP         0.3597
     27 O6         -5.8617    1.0043   -1.7939 O.2       1 GTP        -0.2755
     28 N1         -4.0405    1.1608   -3.2468 N.pl3     1 GTP        -0.1604
     29 C2         -2.7239    0.8013   -3.5822 C.ar      1 GTP         0.4468
     30 N2         -2.2399    1.3534   -4.7394 N.pl3     1 GTP        -0.5618
     31 N3         -2.0053   -0.0071   -2.8402 N.2       1 GTP        -0.4283
     32 C4         -2.6290   -0.4727   -1.7210 C.ar      1 GTP         0.2226
     33 H5'        -0.9348   -4.9415    1.9415 H         1 GTP        -0.0393
     34 H5''       -1.7548   -3.4350    2.4278 H         1 GTP        -0.0393
     35 H4'         0.8874   -3.6466    0.8805 H         1 GTP        -0.0393
     36 H3'        -0.7376   -1.2333    1.9867 H         1 GTP        -0.0393
     37 HO3'        1.1626   -1.9325    3.0084 H         1 GTP         0.2010
     38 H2'        -0.0384   -0.0310    0.0096 H         1 GTP        -0.0393
     39 HO2'        2.1463   -0.7958    0.0370 H         1 GTP         0.2010
     40 H1'        -0.4769   -2.1002   -1.8093 H         1 GTP        -0.0393
     41 H8         -2.9610   -2.1316    1.0079 H         1 GTP         0.0000
     42 HN1        -4.5320    1.7923   -3.8726 H         1 GTP         0.0865
     43 HN21       -1.3128    1.1277   -5.0171 H         1 GTP         0.2048
     44 HN22       -2.8342    1.9586   -5.2572 H         1 GTP         0.2048
     45 H45        -5.0195   -0.8034    0.3729 H         1 GTP         0.2048
@<TRIPOS>BOND
     1    1    2 2
     2    1    3 1
     3    1    4 1
     4    1    5 1
     5    5    6 1
     6    6    7 2
     7    6    8 1
     8    6    9 1
     9    9   10 1
    10   10   11 2
    11   10   12 1
    12   10   13 1
    13   13   14 1
    14   14   15 1
    15   14   33 1
    16   14   34 1
    17   15   16 1
    18   15   17 1
    19   15   35 1
    20   16   21 1
    21   17   18 1
    22   17   19 1
    23   17   36 1
    24   18   37 1
    25   19   20 1
    26   19   21 1
    27   19   38 1
    28   20   39 1
    29   21   22 1
    30   21   40 1
    31   22   23 ar
    32   22   32 ar
    33   23   24 ar
    34   23   41 1
    35   24   25 ar
    36   24   45 1
    37   25   26 ar
    38   25   32 ar
    39   26   27 2
    40   26   28 ar
    41   28   29 ar
    42   28   42 1
    43   29   30 1
    44   29   31 ar
    45   30   43 1
    46   30   44 1
    47   31   32 ar
@<TRIPOS>SUBSTRUCTURE
     1 GTP         1 GROUP 0 A     ****
@<TRIPOS>MOLECULE
[[[5-(2-amino-6-oxo-7,8-dihydro-1~{H}-purin-8-ylium-9-yl)-3,4-dihydroxy-tetrahydrofuran-2-yl]methoxy-oxido-phosphoryl]oxy-oxido-phosphoryl] phosphate
   45    47     1     0     0
SMALL
USER_CHARGES

@<TRIPOS>ATOM
      1 PG          6.5726   -5.0830   -2.7045 P.3       1 GTP        -1.1921
      2 O1G         6.4050   -5.0635   -1.1888 O.co2     1 GTP         0.3195
      3 O2G         5.9884   -6.3157   -3.3862 O.co2     1 GTP         0.3195
      4 O3G         7.9700   -4.7052   -3.1847 O.co2     1 GTP         0.3195
      5 O3B         5.6255   -3.8406   -3.2328 O.3       1 GTP         0.4672
      6 PB          5.6989   -2.2448   -2.8908 P.3       1 GTP        -1.1062
      7 O1B         5.3828   -2.0459   -1.4252 O.co2     1 GTP         0.3195
      8 O2B         6.9450   -1.6608   -3.5180 O.co2     1 GTP         0.3195
      9 O3A         4.4413   -1.7265   -3.7938 O.3       1 GTP         0.4672
     10 PA          2.8604   -2.1325   -3.7186 P.3       1 GTP        -1.1062
     11 O1A         2.0958   -1.2470   -4.6782 O.co2     1 GTP         0.3195
     12 O2A         2.7334   -3.6393   -3.7755 O.co2     1 GTP         0.3195
     13 O5'         2.5245   -1.6648   -2.1878 O.3       1 GTP         0.1618
     14 C5'         2.2816   -0.2918   -1.9206 C.3       1 GTP         0.1504
     15 C4'         2.7248    0.0226   -0.4980 C.3       1 GTP         0.1111
     16 O4'         2.4697    1.4219   -0.2462 O.3       1 GTP        -0.1436
     17 C3'         1.9404   -0.7419    0.5596 C.3       1 GTP         0.1111
     18 O3'         2.7418   -0.8086    1.7389 O.3       1 GTP        -0.2728
     19 C2'         0.7477    0.1630    0.7858 C.3       1 GTP         0.1111
     20 O2'         0.1373   -0.0577    2.0407 O.3       1 GTP        -0.2728
     21 C1'         1.3733    1.5427    0.6747 C.3       1 GTP         0.2693
     22 N9          0.4520    2.5240    0.1767 N.pl3     1 GTP        -0.3222
     23 C8          0.5671    3.2221   -0.9473 C.ar      1 GTP         0.1640
     24 N7         -0.4560    4.0508   -1.1290 N.pl3     1 GTP        -0.3688
     25 C5         -1.2671    3.8585   -0.0441 C.ar      1 GTP         0.0648
     26 C6         -2.5318    4.5014    0.2817 C.ar      1 GTP         0.3597
     27 O6         -3.0527    5.3493   -0.4293 O.2       1 GTP        -0.2755
     28 N1         -3.0357    4.0149    1.4868 N.pl3     1 GTP        -0.1604
     29 C2         -2.4069    3.0373    2.2768 C.ar      1 GTP         0.4468
     30 N2         -3.0679    2.6964    3.4278 N.pl3     1 GTP        -0.5618
     31 N3         -1.2653    2.4872    1.9379 N.2       1 GTP        -0.4283
     32 C4         -0.7342    2.9334    0.7643 C.ar      1 GTP         0.2226
     33 H5'         2.8432    0.3119   -2.6398 H         1 GTP        -0.0393
     34 H5''        1.2128   -0.0927   -2.0428 H         1 GTP        -0.0393
     35 H4'         3.8044   -0.1397   -0.4040 H         1 GTP        -0.0393
     36 H3'         1.6764   -1.7639    0.2728 H         1 GTP        -0.0393
     37 HO3'        2.2232   -1.2979    2.3953 H         1 GTP         0.2010
     38 H2'        -0.0011    0.0027    0.0003 H         1 GTP        -0.0393
     39 HO2'       -0.1563   -0.9855    2.0596 H         1 GTP         0.2010
     40 H1'         1.7826    1.9024    1.6451 H         1 GTP        -0.0393
     41 H8          1.3888    3.1325   -1.6361 H         1 GTP         0.0000
     42 HN1        -3.9188    4.3932    1.8170 H         1 GTP         0.0865
     43 HN21       -2.6609    2.0087    4.0186 H         1 GTP         0.2048
     44 HN22       -3.9293    3.1496    3.6283 H         1 GTP         0.2048
     45 H45        -0.5938    4.6820   -1.9060 H         1 GTP         0.2048
@<TRIPOS>BOND
     1    1    2 2
     2    1    3 1
     3    1    4 1
     4    1    5 1
     5    5    6 1
     6    6    7 2
     7    6    8 1
     8    6    9 1
     9    9   10 1
    10   10   11 2
    11   10   12 1
    12   10   13 1
    13   13   14 1
    14   14   15 1
    15   14   33 1
    16   14   34 1
    17   15   16 1
    18   15   17 1
    19   15   35 1
    20   16   21 1
    21   17   18 1
    22   17   19 1
    23   17   36 1
    24   18   37 1
    25   19   20 1
    26   19   21 1
    27   19   38 1
    28   20   39 1
    29   21   22 1
    30   21   40 1
    31   22   23 ar
    32   22   32 ar
    33   23   24 ar
    34   23   41 1
    35   24   25 ar
    36   24   45 1
    37   25   26 ar
    38   25   32 ar
    39   26   27 2
    40   26   28 ar
    41   28   29 ar
    42   28   42 1
    43   29   30 1
    44   29   31 ar
    45   30   43 1
    46   30   44 1
    47   31   32 ar
@<TRIPOS>SUBSTRUCTURE
     1 GTP         1 GROUP 0 A     ****
@<TRIPOS>MOLECULE
[[[5-(2-amino-6-oxo-7,8-dihydro-1~{H}-purin-8-ylium-9-yl)-3,4-dihydroxy-tetrahydrofuran-2-yl]methoxy-oxido-phosphoryl]oxy-oxido-phosphoryl] phosphate
   45    47     1     0     0
SMALL
USER_CHARGES

@<TRIPOS>ATOM
      1 PG         -0.4317   -0.0141   -7.7850 P.3       1 GTP        -1.1921
      2 O1G         0.4876    0.0933   -8.9971 O.co2     1 GTP         0.3195
      3 O2G        -0.9469   -1.4227   -7.5091 O.co2     1 GTP         0.3195
      4 O3G        -1.5027    1.0694   -7.7135 O.co2     1 GTP         0.3195
      5 O3B         0.5496    0.3171   -6.5016 O.3       1 GTP         0.4672
      6 PB          1.4220    1.6566   -6.1644 P.3       1 GTP        -1.1062
      7 O1B         2.5050    1.8081   -7.2092 O.co2     1 GTP         0.3195
      8 O2B         0.4787    2.7911   -5.8321 O.co2     1 GTP         0.3195
      9 O3A         2.0908    1.1835   -4.7522 O.3       1 GTP         0.4672
     10 PA          3.0683   -0.0853   -4.4294 P.3       1 GTP        -1.1062
     11 O1A         2.2802   -1.3592   -4.6431 O.co2     1 GTP         0.3195
     12 O2A         4.4021    0.1320   -5.1103 O.co2     1 GTP         0.3195
     13 O5'         3.2903    0.1346   -2.8241 O.3       1 GTP         0.1618
     14 C5'         2.2816   -0.2918   -1.9206 C.3       1 GTP         0.1504
     15 C4'         2.7248    0.0226   -0.4980 C.3       1 GTP         0.1111
     16 O4'         2.4697    1.4219   -0.2462 O.3       1 GTP        -0.1436
     17 C3'         1.9404   -0.7419    0.5596 C.3       1 GTP         0.1111
     18 O3'         2.7418   -0.8086    1.7389 O.3       1 GTP        -0.2728
     19 C2'         0.7477    0.1630    0.7858 C.3       1 GTP         0.1111
     20 O2'         0.1373   -0.0577    2.0407 O.3       1 GTP        -0.2728
     21 C1'         1.3733    1.5427    0.6747 C.3       1 GTP         0.2693
     22 N9          0.4520    2.5240    0.1767 N.pl3     1 GTP        -0.3222
     23 C8         -0.6818    2.9109    0.7501 C.ar      1 GTP         0.1640
     24 N7         -1.3103    3.8415    0.0391 N.pl3     1 GTP        -0.3688
     25 C5         -0.5155    4.0512   -1.0547 C.ar      1 GTP         0.0648
     26 C6         -0.7125    4.9651   -2.1705 C.ar      1 GTP         0.3597
     27 O6         -1.6819    5.7047   -2.2651 O.2       1 GTP        -0.2755
     28 N1          0.3401    4.8672   -3.0790 N.pl3     1 GTP        -0.1604
     29 C2          1.4396    4.0039   -2.9348 C.ar      1 GTP         0.4468
     30 N2          2.3679    4.0602   -3.9414 N.pl3     1 GTP        -0.5618
     31 N3          1.5708    3.1983   -1.9080 N.2       1 GTP        -0.4283
     32 C4          0.5630    3.2599   -0.9921 C.ar      1 GTP         0.2226
     33 H5'         1.3514    0.2330   -2.1577 H         1 GTP        -0.0393
     34 H5''        2.1280   -1.3678   -2.0460 H         1 GTP        -0.0393
     35 H4'         3.8044   -0.1397   -0.4040 H         1 GTP        -0.0393
     36 H3'         1.6764   -1.7639    0.2728 H         1 GTP        -0.0393
     37 HO3'        3.5554   -1.2733    1.4914 H         1 GTP         0.2010
     38 H2'        -0.0011    0.0027    0.0003 H         1 GTP        -0.0393
     39 HO2'       -0.1563   -0.9855    2.0596 H         1 GTP         0.2010
     40 H1'         1.7826    1.9024    1.6451 H         1 GTP        -0.0393
     41 H8         -1.0545    2.5222    1.6816 H         1 GTP         0.0000
     42 HN1         0.3104    5.4612   -3.9026 H         1 GTP         0.0865
     43 HN21        3.1632    3.4672   -3.8824 H         1 GTP         0.2048
     44 HN22        2.2108    4.6918   -4.6924 H         1 GTP         0.2048
     45 H45        -2.1863    4.2902    0.2681 H         1 GTP         0.2048
@<TRIPOS>BOND
     1    1    2 2
     2    1    3 1
     3    1    4 1
     4    1    5 1
     5    5    6 1
     6    6    7 2
     7    6    8 1
     8    6    9 1
     9    9   10 1
    10   10   11 2
    11   10   12 1
    12   10   13 1
    13   13   14 1
    14   14   15 1
    15   14   33 1
    16   14   34 1
    17   15   16 1
    18   15   17 1
    19   15   35 1
    20   16   21 1
    21   17   18 1
    22   17   19 1
    23   17   36 1
    24   18   37 1
    25   19   20 1
    26   19   21 1
    27   19   38 1
    28   20   39 1
    29   21   22 1
    30   21   40 1
    31   22   23 ar
    32   22   32 ar
    33   23   24 ar
    34   23   41 1
    35   24   25 ar
    36   24   45 1
    37   25   26 ar
    38   25   32 ar
    39   26   27 2
    40   26   28 ar
    41   28   29 ar
    42   28   42 1
    43   29   30 1
    44   29   31 ar
    45   30   43 1
    46   30   44 1
    47   31   32 ar
@<TRIPOS>SUBSTRUCTURE
     1 GTP         1 GROUP 0 A     ****
@<TRIPOS>MOLECULE
[[[5-(2-amino-6-oxo-7,8-dihydro-1~{H}-purin-8-ylium-9-yl)-3,4-dihydroxy-tetrahydrofuran-2-yl]methoxy-oxido-phosphoryl]oxy-oxido-phosphoryl] phosphate
   45    47     1     0     0
SMALL
USER_CHARGES

@<TRIPOS>ATOM
      1 PG          7.7038   -5.0691   -1.9185 P.3       1 GTP        -1.1921
      2 O1G         8.2162   -5.2160   -0.4897 O.co2     1 GTP         0.3195
      3 O2G         7.0533   -6.3263   -2.4859 O.co2     1 GTP         0.3195
      4 O3G         8.6837   -4.3882   -2.8683 O.co2     1 GTP         0.3195
      5 O3B         6.4620   -3.9909   -1.7948 O.3       1 GTP         0.4672
      6 PB          6.4604   -2.4473   -1.2595 P.3       1 GTP        -1.1062
      7 O1B         6.7947   -2.4431    0.2155 O.co2     1 GTP         0.3195
      8 O2B         7.2136   -1.5812   -2.2442 O.co2     1 GTP         0.3195
      9 O3A         4.8769   -2.1037   -1.4595 O.3       1 GTP         0.4672
     10 PA          3.9665   -2.1124   -2.8163 P.3       1 GTP        -1.1062
     11 O1A         4.4633   -1.0128   -3.7294 O.co2     1 GTP         0.3195
     12 O2A         3.8288   -3.5360   -3.3105 O.co2     1 GTP         0.3195
     13 O5'         2.5245   -1.6648   -2.1878 O.3       1 GTP         0.1618
     14 C5'         2.2816   -0.2918   -1.9206 C.3       1 GTP         0.1504
     15 C4'         2.7248    0.0226   -0.4980 C.3       1 GTP         0.1111
     16 O4'         2.4697    1.4219   -0.2462 O.3       1 GTP        -0.1436
     17 C3'         1.9404   -0.7419    0.5596 C.3       1 GTP         0.1111
     18 O3'         2.7418   -0.8086    1.7389 O.3       1 GTP        -0.2728
     19 C2'         0.7477    0.1630    0.7858 C.3       1 GTP         0.1111
     20 O2'         0.1373   -0.0577    2.0407 O.3       1 GTP        -0.2728
     21 C1'         1.3733    1.5427    0.6747 C.3       1 GTP         0.2693
     22 N9          0.4520    2.5240    0.1767 N.pl3     1 GTP        -0.3222
     23 C8          0.2203    2.8205   -1.0970 C.ar      1 GTP         0.1640
     24 N7         -0.6947    3.7752   -1.2304 N.pl3     1 GTP        -0.3688
     25 C5         -1.0607    4.0987    0.0476 C.ar      1 GTP         0.0648
     26 C6         -2.0310    5.0839    0.5029 C.ar      1 GTP         0.3597
     27 O6         -2.6779    5.7867   -0.2609 O.2       1 GTP        -0.2755
     28 N1         -2.1030    5.0975    1.8948 N.pl3     1 GTP        -0.1604
     29 C2         -1.3422    4.2721    2.7403 C.ar      1 GTP         0.4468
     30 N2         -1.5624    4.4419    4.0823 N.pl3     1 GTP        -0.5618
     31 N3         -0.4796    3.3981    2.2792 N.2       1 GTP        -0.4283
     32 C4         -0.3754    3.3496    0.9208 C.ar      1 GTP         0.2226
     33 H5'         2.8432    0.3119   -2.6398 H         1 GTP        -0.0393
     34 H5''        1.2128   -0.0927   -2.0428 H         1 GTP        -0.0393
     35 H4'         3.8044   -0.1397   -0.4040 H         1 GTP        -0.0393
     36 H3'         1.6764   -1.7639    0.2728 H         1 GTP        -0.0393
     37 HO3'        3.5554   -1.2733    1.4914 H         1 GTP         0.2010
     38 H2'        -0.0011    0.0027    0.0003 H         1 GTP        -0.0393
     39 HO2'       -0.6141    0.5574    2.1082 H         1 GTP         0.2010
     40 H1'         1.7826    1.9024    1.6451 H         1 GTP        -0.0393
     41 H8          0.7110    2.3472   -1.9295 H         1 GTP         0.0000
     42 HN1        -2.7504    5.7495    2.3282 H         1 GTP         0.0865
     43 HN21       -1.0467    3.8796    4.7190 H         1 GTP         0.2048
     44 HN22       -2.2294    5.1209    4.3680 H         1 GTP         0.2048
     45 H45        -1.0382    4.1687   -2.0954 H         1 GTP         0.2048
@<TRIPOS>BOND
     1    1    2 2
     2    1    3 1
     3    1    4 1
     4    1    5 1
     5    5    6 1
     6    6    7 2
     7    6    8 1
     8    6    9 1
     9    9   10 1
    10   10   11 2
    11   10   12 1
    12   10   13 1
    13   13   14 1
    14   14   15 1
    15   14   33 1
    16   14   34 1
    17   15   16 1
    18   15   17 1
    19   15   35 1
    20   16   21 1
    21   17   18 1
    22   17   19 1
    23   17   36 1
    24   18   37 1
    25   19   20 1
    26   19   21 1
    27   19   38 1
    28   20   39 1
    29   21   22 1
    30   21   40 1
    31   22   23 ar
    32   22   32 ar
    33   23   24 ar
    34   23   41 1
    35   24   25 ar
    36   24   45 1
    37   25   26 ar
    38   25   32 ar
    39   26   27 2
    40   26   28 ar
    41   28   29 ar
    42   28   42 1
    43   29   30 1
    44   29   31 ar
    45   30   43 1
    46   30   44 1
    47   31   32 ar
@<TRIPOS>SUBSTRUCTURE
     1 GTP         1 GROUP 0 A     ****
@<TRIPOS>MOLECULE
[[[5-(2-amino-6-oxo-7,8-dihydro-1~{H}-purin-8-ylium-9-yl)-3,4-dihydroxy-tetrahydrofuran-2-yl]methoxy-oxido-phosphoryl]oxy-oxido-phosphoryl] phosphate
   45    47     1     0     0
SMALL
USER_CHARGES

@<TRIPOS>ATOM
      1 PG          5.9256    1.0301   -5.3984 P.3       1 GTP        -1.1921
      2 O1G         7.3514    1.5205   -5.1691 O.co2     1 GTP         0.3195
      3 O2G         5.4832    1.0424   -6.8578 O.co2     1 GTP         0.3195
      4 O3G         4.9007    1.6092   -4.4287 O.co2     1 GTP         0.3195
      5 O3B         5.9795   -0.5705   -5.0047 O.3       1 GTP         0.4672
      6 PB          6.3778   -1.2926   -3.5944 P.3       1 GTP        -1.1062
      7 O1B         6.8485   -2.7004   -3.8841 O.co2     1 GTP         0.3195
      8 O2B         7.2056   -0.3363   -2.7651 O.co2     1 GTP         0.3195
      9 O3A         4.9004   -1.3447   -2.9017 O.3       1 GTP         0.4672
     10 PA          3.5298   -2.0738   -3.4112 P.3       1 GTP        -1.1062
     11 O1A         3.0659   -1.3840   -4.6755 O.co2     1 GTP         0.3195
     12 O2A         3.7211   -3.5743   -3.3647 O.co2     1 GTP         0.3195
     13 O5'         2.5245   -1.6648   -2.1878 O.3       1 GTP         0.1618
     14 C5'         2.2816   -0.2918   -1.9206 C.3       1 GTP         0.1504
     15 C4'         2.7248    0.0226   -0.4980 C.3       1 GTP         0.1111
     16 O4'         2.4697    1.4219   -0.2462 O.3       1 GTP        -0.1436
     17 C3'         1.9404   -0.7419    0.5596 C.3       1 GTP         0.1111
     18 O3'         2.7418   -0.8086    1.7389 O.3       1 GTP        -0.2728
     19 C2'         0.7477    0.1630    0.7858 C.3       1 GTP         0.1111
     20 O2'         0.1373   -0.0577    2.0407 O.3       1 GTP        -0.2728
     21 C1'         1.3733    1.5427    0.6747 C.3       1 GTP         0.2693
     22 N9          0.4520    2.5240    0.1767 N.pl3     1 GTP        -0.3222
     23 C8         -0.2009    2.4849   -0.9792 C.ar      1 GTP         0.1640
     24 N7         -0.9840    3.5454   -1.1481 N.pl3     1 GTP        -0.3688
     25 C5         -0.8090    4.3005   -0.0206 C.ar      1 GTP         0.0648
     26 C6         -1.4206    5.5724    0.3362 C.ar      1 GTP         0.3597
     27 O6         -2.2199    6.1544   -0.3836 O.2       1 GTP        -0.2755
     28 N1         -0.9680    6.0043    1.5817 N.pl3     1 GTP        -0.1604
     29 C2         -0.0474    5.3055    2.3814 C.ar      1 GTP         0.4468
     30 N2          0.2680    5.9024    3.5740 N.pl3     1 GTP        -0.5618
     31 N3          0.4755    4.1601    2.0138 N.2       1 GTP        -0.4283
     32 C4          0.0611    3.6981    0.8001 C.ar      1 GTP         0.2226
     33 H5'         2.8432    0.3119   -2.6398 H         1 GTP        -0.0393
     34 H5''        1.2128   -0.0927   -2.0428 H         1 GTP        -0.0393
     35 H4'         3.8044   -0.1397   -0.4040 H         1 GTP        -0.0393
     36 H3'         1.6764   -1.7639    0.2728 H         1 GTP        -0.0393
     37 HO3'        3.5554   -1.2733    1.4914 H         1 GTP         0.2010
     38 H2'        -0.0011    0.0027    0.0003 H         1 GTP        -0.0393
     39 HO2'       -0.6141    0.5574    2.1082 H         1 GTP         0.2010
     40 H1'         1.7826    1.9024    1.6451 H         1 GTP        -0.0393
     41 H8         -0.1126    1.6906   -1.6997 H         1 GTP         0.0000
     42 HN1        -1.3285    6.8855    1.9361 H         1 GTP         0.0865
     43 HN21        0.9153    5.4446    4.1732 H         1 GTP         0.2048
     44 HN22       -0.1624    6.7706    3.7948 H         1 GTP         0.2048
     45 H45        -1.5768    3.7405   -1.9429 H         1 GTP         0.2048
@<TRIPOS>BOND
     1    1    2 2
     2    1    3 1
     3    1    4 1
     4    1    5 1
     5    5    6 1
     6    6    7 2
     7    6    8 1
     8    6    9 1
     9    9   10 1
    10   10   11 2
    11   10   12 1
    12   10   13 1
    13   13   14 1
    14   14   15 1
    15   14   33 1
    16   14   34 1
    17   15   16 1
    18   15   17 1
    19   15   35 1
    20   16   21 1
    21   17   18 1
    22   17   19 1
    23   17   36 1
    24   18   37 1
    25   19   20 1
    26   19   21 1
    27   19   38 1
    28   20   39 1
    29   21   22 1
    30   21   40 1
    31   22   23 ar
    32   22   32 ar
    33   23   24 ar
    34   23   41 1
    35   24   25 ar
    36   24   45 1
    37   25   26 ar
    38   25   32 ar
    39   26   27 2
    40   26   28 ar
    41   28   29 ar
    42   28   42 1
    43   29   30 1
    44   29   31 ar
    45   30   43 1
    46   30   44 1
    47   31   32 ar
@<TRIPOS>SUBSTRUCTURE
     1 GTP         1 GROUP 0 A     ****
@<TRIPOS>MOLECULE
[[[5-(2-amino-6-oxo-7,8-dihydro-1~{H}-purin-8-ylium-9-yl)-3,4-dihydroxy-tetrahydrofuran-2-yl]methoxy-oxido-phosphoryl]oxy-oxido-phosphoryl] phosphate
   45    47     1     0     0
SMALL
USER_CHARGES

@<TRIPOS>ATOM
      1 PG         -0.2126   -0.5805   -7.8617 P.3       1 GTP        -1.1921
      2 O1G         0.3867    0.3083   -8.9464 O.co2     1 GTP         0.3195
      3 O2G        -0.5097   -2.0073   -8.3107 O.co2     1 GTP         0.3195
      4 O3G        -1.3389    0.0733   -7.0679 O.co2     1 GTP         0.3195
      5 O3B         1.0014   -0.7474   -6.7580 O.3       1 GTP         0.4672
      6 PB          1.7927    0.3861   -5.8872 P.3       1 GTP        -1.1062
      7 O1B         2.5848    1.2613   -6.8328 O.co2     1 GTP         0.3195
      8 O2B         0.8453    0.9775   -4.8675 O.co2     1 GTP         0.3195
      9 O3A         2.8127   -0.5848   -5.0612 O.3       1 GTP         0.4672
     10 PA          3.9556   -0.2056   -3.9568 P.3       1 GTP        -1.1062
     11 O1A         4.5100   -1.4922   -3.3851 O.co2     1 GTP         0.3195
     12 O2A         4.8713    0.8510   -4.5355 O.co2     1 GTP         0.3195
     13 O5'         3.0213    0.5153   -2.8245 O.3       1 GTP         0.1618
     14 C5'         2.2816   -0.2918   -1.9206 C.3       1 GTP         0.1504
     15 C4'         2.7248    0.0226   -0.4980 C.3       1 GTP         0.1111
     16 O4'         2.4697    1.4219   -0.2462 O.3       1 GTP        -0.1436
     17 C3'         1.9404   -0.7419    0.5596 C.3       1 GTP         0.1111
     18 O3'         2.7418   -0.8086    1.7389 O.3       1 GTP        -0.2728
     19 C2'         0.7477    0.1630    0.7858 C.3       1 GTP         0.1111
     20 O2'         0.1373   -0.0577    2.0407 O.3       1 GTP        -0.2728
     21 C1'         1.3733    1.5427    0.6747 C.3       1 GTP         0.2693
     22 N9          0.4520    2.5240    0.1767 N.pl3     1 GTP        -0.3222
     23 C8         -0.2009    2.4849   -0.9792 C.ar      1 GTP         0.1640
     24 N7         -0.9840    3.5454   -1.1481 N.pl3     1 GTP        -0.3688
     25 C5         -0.8090    4.3005   -0.0206 C.ar      1 GTP         0.0648
     26 C6         -1.4206    5.5724    0.3362 C.ar      1 GTP         0.3597
     27 O6         -2.2199    6.1544   -0.3836 O.2       1 GTP        -0.2755
     28 N1         -0.9680    6.0043    1.5817 N.pl3     1 GTP        -0.1604
     29 C2         -0.0474    5.3055    2.3814 C.ar      1 GTP         0.4468
     30 N2          0.2680    5.9024    3.5740 N.pl3     1 GTP        -0.5618
     31 N3          0.4755    4.1601    2.0138 N.2       1 GTP        -0.4283
     32 C4          0.0611    3.6981    0.8001 C.ar      1 GTP         0.2226
     33 H5'         1.2163   -0.0770   -2.0471 H         1 GTP        -0.0393
     34 H5''        2.4655   -1.3443   -2.1563 H         1 GTP        -0.0393
     35 H4'         3.8044   -0.1397   -0.4040 H         1 GTP        -0.0393
     36 H3'         1.6764   -1.7639    0.2728 H         1 GTP        -0.0393
     37 HO3'        3.5554   -1.2733    1.4914 H         1 GTP         0.2010
     38 H2'        -0.0011    0.0027    0.0003 H         1 GTP        -0.0393
     39 HO2'       -0.1563   -0.9855    2.0596 H         1 GTP         0.2010
     40 H1'         1.7826    1.9024    1.6451 H         1 GTP        -0.0393
     41 H8         -0.1126    1.6906   -1.6997 H         1 GTP         0.0000
     42 HN1        -1.3285    6.8855    1.9361 H         1 GTP         0.0865
     43 HN21        0.9153    5.4446    4.1732 H         1 GTP         0.2048
     44 HN22       -0.1624    6.7706    3.7948 H         1 GTP         0.2048
     45 H45        -1.5768    3.7405   -1.9429 H         1 GTP         0.2048
@<TRIPOS>BOND
     1    1    2 2
     2    1    3 1
     3    1    4 1
     4    1    5 1
     5    5    6 1
     6    6    7 2
     7    6    8 1
     8    6    9 1
     9    9   10 1
    10   10   11 2
    11   10   12 1
    12   10   13 1
    13   13   14 1
    14   14   15 1
    15   14   33 1
    16   14   34 1
    17   15   16 1
    18   15   17 1
    19   15   35 1
    20   16   21 1
    21   17   18 1
    22   17   19 1
    23   17   36 1
    24   18   37 1
    25   19   20 1
    26   19   21 1
    27   19   38 1
    28   20   39 1
    29   21   22 1
    30   21   40 1
    31   22   23 ar
    32   22   32 ar
    33   23   24 ar
    34   23   41 1
    35   24   25 ar
    36   24   45 1
    37   25   26 ar
    38   25   32 ar
    39   26   27 2
    40   26   28 ar
    41   28   29 ar
    42   28   42 1
    43   29   30 1
    44   29   31 ar
    45   30   43 1
    46   30   44 1
    47   31   32 ar
@<TRIPOS>SUBSTRUCTURE
     1 GTP         1 GROUP 0 A     ****
@<TRIPOS>MOLECULE
[[[5-(2-amino-6-oxo-7,8-dihydro-1~{H}-purin-8-ylium-9-yl)-3,4-dihydroxy-tetrahydrofuran-2-yl]methoxy-oxido-phosphoryl]oxy-oxido-phosphoryl] phosphate
   45    47     1     0     0
SMALL
USER_CHARGES

@<TRIPOS>ATOM
      1 PG          6.4849   -2.8683   -0.1003 P.3       1 GTP        -1.1921
      2 O1G         5.6849   -1.5731   -0.0078 O.co2     1 GTP         0.3195
      3 O2G         6.3681   -3.7686    1.1250 O.co2     1 GTP         0.3195
      4 O3G         7.9105   -2.6885   -0.6115 O.co2     1 GTP         0.3195
      5 O3B         5.7405   -3.7193   -1.3009 O.3       1 GTP         0.4672
      6 PB          5.5083   -3.3357   -2.8719 P.3       1 GTP        -1.1062
      7 O1B         6.8449   -2.9956   -3.4928 O.co2     1 GTP         0.3195
      8 O2B         4.5808   -4.3531   -3.4980 O.co2     1 GTP         0.3195
      9 O3A         4.6341   -1.9702   -2.6804 O.3       1 GTP         0.4672
     10 PA          4.0014   -0.9657   -3.8031 P.3       1 GTP        -1.1062
     11 O1A         5.1417   -0.2980   -4.5405 O.co2     1 GTP         0.3195
     12 O2A         2.9038   -1.6896   -4.5521 O.co2     1 GTP         0.3195
     13 O5'         3.2903    0.1346   -2.8241 O.3       1 GTP         0.1618
     14 C5'         2.2816   -0.2918   -1.9206 C.3       1 GTP         0.1504
     15 C4'         2.7248    0.0226   -0.4980 C.3       1 GTP         0.1111
     16 O4'         2.4697    1.4219   -0.2462 O.3       1 GTP        -0.1436
     17 C3'         1.9404   -0.7419    0.5596 C.3       1 GTP         0.1111
     18 O3'         2.7418   -0.8086    1.7389 O.3       1 GTP        -0.2728
     19 C2'         0.7477    0.1630    0.7858 C.3       1 GTP         0.1111
     20 O2'         0.1373   -0.0577    2.0407 O.3       1 GTP        -0.2728
     21 C1'         1.3733    1.5427    0.6747 C.3       1 GTP         0.2693
     22 N9          0.4520    2.5240    0.1767 N.pl3     1 GTP        -0.3222
     23 C8         -0.2009    2.4849   -0.9792 C.ar      1 GTP         0.1640
     24 N7         -0.9840    3.5454   -1.1481 N.pl3     1 GTP        -0.3688
     25 C5         -0.8090    4.3005   -0.0206 C.ar      1 GTP         0.0648
     26 C6         -1.4206    5.5724    0.3362 C.ar      1 GTP         0.3597
     27 O6         -2.2199    6.1544   -0.3836 O.2       1 GTP        -0.2755
     28 N1         -0.9680    6.0043    1.5817 N.pl3     1 GTP        -0.1604
     29 C2         -0.0474    5.3055    2.3814 C.ar      1 GTP         0.4468
     30 N2          0.2680    5.9024    3.5740 N.pl3     1 GTP        -0.5618
     31 N3          0.4755    4.1601    2.0138 N.2       1 GTP        -0.4283
     32 C4          0.0611    3.6981    0.8001 C.ar      1 GTP         0.2226
     33 H5'         1.3514    0.2330   -2.1577 H         1 GTP        -0.0393
     34 H5''        2.1280   -1.3678   -2.0460 H         1 GTP        -0.0393
     35 H4'         3.8044   -0.1397   -0.4040 H         1 GTP        -0.0393
     36 H3'         1.6764   -1.7639    0.2728 H         1 GTP        -0.0393
     37 HO3'        3.5554   -1.2733    1.4914 H         1 GTP         0.2010
     38 H2'        -0.0011    0.0027    0.0003 H         1 GTP        -0.0393
     39 HO2'       -0.1563   -0.9855    2.0596 H         1 GTP         0.2010
     40 H1'         1.7826    1.9024    1.6451 H         1 GTP        -0.0393
     41 H8         -0.1126    1.6906   -1.6997 H         1 GTP         0.0000
     42 HN1        -1.3285    6.8855    1.9361 H         1 GTP         0.0865
     43 HN21        0.9153    5.4446    4.1732 H         1 GTP         0.2048
     44 HN22       -0.1624    6.7706    3.7948 H         1 GTP         0.2048
     45 H45        -1.5768    3.7405   -1.9429 H         1 GTP         0.2048
@<TRIPOS>BOND
     1    1    2 2
     2    1    3 1
     3    1    4 1
     4    1    5 1
     5    5    6 1
     6    6    7 2
     7    6    8 1
     8    6    9 1
     9    9   10 1
    10   10   11 2
    11   10   12 1
    12   10   13 1
    13   13   14 1
    14   14   15 1
    15   14   33 1
    16   14   34 1
    17   15   16 1
    18   15   17 1
    19   15   35 1
    20   16   21 1
    21   17   18 1
    22   17   19 1
    23   17   36 1
    24   18   37 1
    25   19   20 1
    26   19   21 1
    27   19   38 1
    28   20   39 1
    29   21   22 1
    30   21   40 1
    31   22   23 ar
    32   22   32 ar
    33   23   24 ar
    34   23   41 1
    35   24   25 ar
    36   24   45 1
    37   25   26 ar
    38   25   32 ar
    39   26   27 2
    40   26   28 ar
    41   28   29 ar
    42   28   42 1
    43   29   30 1
    44   29   31 ar
    45   30   43 1
    46   30   44 1
    47   31   32 ar
@<TRIPOS>SUBSTRUCTURE
     1 GTP         1 GROUP 0 A     ****
@<TRIPOS>MOLECULE
[[[5-(2-amino-6-oxo-7,8-dihydro-1~{H}-purin-8-ylium-9-yl)-3,4-dihydroxy-tetrahydrofuran-2-yl]methoxy-oxido-phosphoryl]oxy-oxido-phosphoryl] phosphate
   45    47     1     0     0
SMALL
USER_CHARGES

@<TRIPOS>ATOM
      1 PG          3.7758    1.4133   -6.1376 P.3       1 GTP        -1.1921
      2 O1G         5.0569    2.1691   -5.8010 O.co2     1 GTP         0.3195
      3 O2G         3.1282    1.8282   -7.4544 O.co2     1 GTP         0.3195
      4 O3G         2.7997    1.2856   -4.9728 O.co2     1 GTP         0.3195
      5 O3B         4.2770   -0.1354   -6.4028 O.3       1 GTP         0.4672
      6 PB          5.0480   -1.1753   -5.4061 P.3       1 GTP        -1.1062
      7 O1B         5.1532   -2.5193   -6.0917 O.co2     1 GTP         0.3195
      8 O2B         6.2610   -0.4898   -4.8178 O.co2     1 GTP         0.3195
      9 O3A         3.9400   -1.2599   -4.2100 O.3       1 GTP         0.4672
     10 PA          3.9665   -2.1124   -2.8163 P.3       1 GTP        -1.1062
     11 O1A         3.9137   -3.5853   -3.1586 O.co2     1 GTP         0.3195
     12 O2A         5.0501   -1.5573   -1.9175 O.co2     1 GTP         0.3195
     13 O5'         2.5245   -1.6648   -2.1878 O.3       1 GTP         0.1618
     14 C5'         2.2816   -0.2918   -1.9206 C.3       1 GTP         0.1504
     15 C4'         2.7248    0.0226   -0.4980 C.3       1 GTP         0.1111
     16 O4'         2.4697    1.4219   -0.2462 O.3       1 GTP        -0.1436
     17 C3'         1.9404   -0.7419    0.5596 C.3       1 GTP         0.1111
     18 O3'         2.7418   -0.8086    1.7389 O.3       1 GTP        -0.2728
     19 C2'         0.7477    0.1630    0.7858 C.3       1 GTP         0.1111
     20 O2'         0.1373   -0.0577    2.0407 O.3       1 GTP        -0.2728
     21 C1'         1.3733    1.5427    0.6747 C.3       1 GTP         0.2693
     22 N9          0.4520    2.5240    0.1767 N.pl3     1 GTP        -0.3222
     23 C8          0.2203    2.8205   -1.0970 C.ar      1 GTP         0.1640
     24 N7         -0.6947    3.7752   -1.2304 N.pl3     1 GTP        -0.3688
     25 C5         -1.0607    4.0987    0.0476 C.ar      1 GTP         0.0648
     26 C6         -2.0310    5.0839    0.5029 C.ar      1 GTP         0.3597
     27 O6         -2.6779    5.7867   -0.2609 O.2       1 GTP        -0.2755
     28 N1         -2.1030    5.0975    1.8948 N.pl3     1 GTP        -0.1604
     29 C2         -1.3422    4.2721    2.7403 C.ar      1 GTP         0.4468
     30 N2         -1.5624    4.4419    4.0823 N.pl3     1 GTP        -0.5618
     31 N3         -0.4796    3.3981    2.2792 N.2       1 GTP        -0.4283
     32 C4         -0.3754    3.3496    0.9208 C.ar      1 GTP         0.2226
     33 H5'         2.8432    0.3119   -2.6398 H         1 GTP        -0.0393
     34 H5''        1.2128   -0.0927   -2.0428 H         1 GTP        -0.0393
     35 H4'         3.8044   -0.1397   -0.4040 H         1 GTP        -0.0393
     36 H3'         1.6764   -1.7639    0.2728 H         1 GTP        -0.0393
     37 HO3'        3.5554   -1.2733    1.4914 H         1 GTP         0.2010
     38 H2'        -0.0011    0.0027    0.0003 H         1 GTP        -0.0393
     39 HO2'       -0.1563   -0.9855    2.0596 H         1 GTP         0.2010
     40 H1'         1.7826    1.9024    1.6451 H         1 GTP        -0.0393
     41 H8          0.7110    2.3472   -1.9295 H         1 GTP         0.0000
     42 HN1        -2.7504    5.7495    2.3282 H         1 GTP         0.0865
     43 HN21       -1.0467    3.8796    4.7190 H         1 GTP         0.2048
     44 HN22       -2.2294    5.1209    4.3680 H         1 GTP         0.2048
     45 H45        -1.0382    4.1687   -2.0954 H         1 GTP         0.2048
@<TRIPOS>BOND
     1    1    2 2
     2    1    3 1
     3    1    4 1
     4    1    5 1
     5    5    6 1
     6    6    7 2
     7    6    8 1
     8    6    9 1
     9    9   10 1
    10   10   11 2
    11   10   12 1
    12   10   13 1
    13   13   14 1
    14   14   15 1
    15   14   33 1
    16   14   34 1
    17   15   16 1
    18   15   17 1
    19   15   35 1
    20   16   21 1
    21   17   18 1
    22   17   19 1
    23   17   36 1
    24   18   37 1
    25   19   20 1
    26   19   21 1
    27   19   38 1
    28   20   39 1
    29   21   22 1
    30   21   40 1
    31   22   23 ar
    32   22   32 ar
    33   23   24 ar
    34   23   41 1
    35   24   25 ar
    36   24   45 1
    37   25   26 ar
    38   25   32 ar
    39   26   27 2
    40   26   28 ar
    41   28   29 ar
    42   28   42 1
    43   29   30 1
    44   29   31 ar
    45   30   43 1
    46   30   44 1
    47   31   32 ar
@<TRIPOS>SUBSTRUCTURE
     1 GTP         1 GROUP 0 A     ****
@<TRIPOS>MOLECULE
[[[5-(2-amino-6-oxo-7,8-dihydro-1~{H}-purin-8-ylium-9-yl)-3,4-dihydroxy-tetrahydrofuran-2-yl]methoxy-oxido-phosphoryl]oxy-oxido-phosphoryl] phosphate
   45    47     1     0     0
SMALL
USER_CHARGES

@<TRIPOS>ATOM
      1 PG          3.6637   -5.7223    4.0756 P.3       1 GTP        -1.1921
      2 O1G         2.5071   -5.3001    4.9755 O.co2     1 GTP         0.3195
      3 O2G         4.8525   -6.3221    4.8189 O.co2     1 GTP         0.3195
      4 O3G         4.0425   -4.6912    3.0175 O.co2     1 GTP         0.3195
      5 O3B         3.0567   -6.9807    3.1993 O.3       1 GTP         0.4672
      6 PB          1.7806   -7.0326    2.1805 P.3       1 GTP        -1.1062
      7 O1B         1.9508   -5.9561    1.1318 O.co2     1 GTP         0.3195
      8 O2B         1.5082   -8.4710    1.8012 O.co2     1 GTP         0.3195
      9 O3A         0.5992   -6.5975    3.2200 O.3       1 GTP         0.4672
     10 PA         -1.0041   -6.4128    2.9654 P.3       1 GTP        -1.1062
     11 O1A        -1.5372   -7.6866    2.3466 O.co2     1 GTP         0.3195
     12 O2A        -1.6373   -5.8224    4.2066 O.co2     1 GTP         0.3195
     13 O5'        -0.9724   -5.2440    1.8220 O.3       1 GTP         0.1618
     14 C5'        -0.7840   -3.8935    2.2172 C.3       1 GTP         0.1504
     15 C4'        -0.0724   -3.1466    1.1027 C.3       1 GTP         0.1111
     16 O4'        -0.8674   -3.1929   -0.0945 O.3       1 GTP        -0.1436
     17 C3'         0.1338   -1.6715    1.4027 C.3       1 GTP         0.1111
     18 O3'         1.2893   -1.4445    2.1808 O.3       1 GTP        -0.2728
     19 C2'         0.2158   -1.0724    0.0128 C.3       1 GTP         0.1111
     20 O2'         1.5141   -1.2448   -0.5513 O.3       1 GTP        -0.2728
     21 C1'        -0.7897   -1.9176   -0.7583 C.3       1 GTP         0.2693
     22 N9         -2.1040   -1.3333   -0.7704 N.pl3     1 GTP        -0.3222
     23 C8         -3.0597   -1.5109    0.1345 C.ar      1 GTP         0.1640
     24 N7         -4.1618   -0.8291   -0.1607 N.pl3     1 GTP        -0.3688
     25 C5         -3.8764   -0.1805   -1.3310 C.ar      1 GTP         0.0648
     26 C6         -4.7187    0.7111   -2.1152 C.ar      1 GTP         0.3597
     27 O6         -5.8617    1.0043   -1.7939 O.2       1 GTP        -0.2755
     28 N1         -4.0405    1.1608   -3.2468 N.pl3     1 GTP        -0.1604
     29 C2         -2.7239    0.8013   -3.5822 C.ar      1 GTP         0.4468
     30 N2         -2.2399    1.3534   -4.7394 N.pl3     1 GTP        -0.5618
     31 N3         -2.0053   -0.0071   -2.8402 N.2       1 GTP        -0.4283
     32 C4         -2.6290   -0.4727   -1.7210 C.ar      1 GTP         0.2226
     33 H5'        -1.7618   -3.4448    2.4164 H         1 GTP        -0.0393
     34 H5''       -0.1874   -3.8744    3.1341 H         1 GTP        -0.0393
     35 H4'         0.8874   -3.6466    0.8805 H         1 GTP        -0.0393
     36 H3'        -0.7376   -1.2333    1.9867 H         1 GTP        -0.0393
     37 HO3'        1.1626   -1.9325    3.0084 H         1 GTP         0.2010
     38 H2'        -0.0384   -0.0310    0.0096 H         1 GTP        -0.0393
     39 HO2'        2.1463   -0.7958    0.0370 H         1 GTP         0.2010
     40 H1'        -0.4769   -2.1002   -1.8093 H         1 GTP        -0.0393
     41 H8         -2.9610   -2.1316    1.0079 H         1 GTP         0.0000
     42 HN1        -4.5320    1.7923   -3.8726 H         1 GTP         0.0865
     43 HN21       -1.3128    1.1277   -5.0171 H         1 GTP         0.2048
     44 HN22       -2.8342    1.9586   -5.2572 H         1 GTP         0.2048
     45 H45        -5.0195   -0.8034    0.3729 H         1 GTP         0.2048
@<TRIPOS>BOND
     1    1    2 2
     2    1    3 1
     3    1    4 1
     4    1    5 1
     5    5    6 1
     6    6    7 2
     7    6    8 1
     8    6    9 1
     9    9   10 1
    10   10   11 2
    11   10   12 1
    12   10   13 1
    13   13   14 1
    14   14   15 1
    15   14   33 1
    16   14   34 1
    17   15   16 1
    18   15   17 1
    19   15   35 1
    20   16   21 1
    21   17   18 1
    22   17   19 1
    23   17   36 1
    24   18   37 1
    25   19   20 1
    26   19   21 1
    27   19   38 1
    28   20   39 1
    29   21   22 1
    30   21   40 1
    31   22   23 ar
    32   22   32 ar
    33   23   24 ar
    34   23   41 1
    35   24   25 ar
    36   24   45 1
    37   25   26 ar
    38   25   32 ar
    39   26   27 2
    40   26   28 ar
    41   28   29 ar
    42   28   42 1
    43   29   30 1
    44   29   31 ar
    45   30   43 1
    46   30   44 1
    47   31   32 ar
@<TRIPOS>SUBSTRUCTURE
     1 GTP         1 GROUP 0 A     ****
@<TRIPOS>MOLECULE
[[[5-(2-amino-6-oxo-7,8-dihydro-1~{H}-purin-8-ylium-9-yl)-3,4-dihydroxy-tetrahydrofuran-2-yl]methoxy-oxido-phosphoryl]oxy-oxido-phosphoryl] phosphate
   45    47     1     0     0
SMALL
USER_CHARGES

@<TRIPOS>ATOM
      1 PG         -3.7083   -3.9771    6.0304 P.3       1 GTP        -1.1921
      2 O1G        -4.2138   -3.4339    4.6980 O.co2     1 GTP         0.3195
      3 O2G        -4.7602   -4.0152    7.1339 O.co2     1 GTP         0.3195
      4 O3G        -2.3622   -3.4091    6.4680 O.co2     1 GTP         0.3195
      5 O3B        -3.3846   -5.5649    5.7240 O.3       1 GTP         0.4672
      6 PB         -2.3504   -6.2387    4.6537 P.3       1 GTP        -1.1062
      7 O1B        -0.9708   -5.6618    4.8804 O.co2     1 GTP         0.3195
      8 O2B        -2.5864   -7.7319    4.6100 O.co2     1 GTP         0.3195
      9 O3A        -2.9734   -5.6321    3.2719 O.3       1 GTP         0.4672
     10 PA         -2.4913   -5.8423    1.7249 P.3       1 GTP        -1.1062
     11 O1A        -2.4139   -7.3280    1.4486 O.co2     1 GTP         0.3195
     12 O2A        -3.2901   -4.9213    0.8284 O.co2     1 GTP         0.3195
     13 O5'        -0.9724   -5.2440    1.8220 O.3       1 GTP         0.1618
     14 C5'        -0.7840   -3.8935    2.2172 C.3       1 GTP         0.1504
     15 C4'        -0.0724   -3.1466    1.1027 C.3       1 GTP         0.1111
     16 O4'        -0.8674   -3.1929   -0.0945 O.3       1 GTP        -0.1436
     17 C3'         0.1338   -1.6715    1.4027 C.3       1 GTP         0.1111
     18 O3'         1.2893   -1.4445    2.1808 O.3       1 GTP        -0.2728
     19 C2'         0.2158   -1.0724    0.0128 C.3       1 GTP         0.1111
     20 O2'         1.5141   -1.2448   -0.5513 O.3       1 GTP        -0.2728
     21 C1'        -0.7897   -1.9176   -0.7583 C.3       1 GTP         0.2693
     22 N9         -2.1040   -1.3333   -0.7704 N.pl3     1 GTP        -0.3222
     23 C8         -3.0597   -1.5109    0.1345 C.ar      1 GTP         0.1640
     24 N7         -4.1618   -0.8291   -0.1607 N.pl3     1 GTP        -0.3688
     25 C5         -3.8764   -0.1805   -1.3310 C.ar      1 GTP         0.0648
     26 C6         -4.7187    0.7111   -2.1152 C.ar      1 GTP         0.3597
     27 O6         -5.8617    1.0043   -1.7939 O.2       1 GTP        -0.2755
     28 N1         -4.0405    1.1608   -3.2468 N.pl3     1 GTP        -0.1604
     29 C2         -2.7239    0.8013   -3.5822 C.ar      1 GTP         0.4468
     30 N2         -2.2399    1.3534   -4.7394 N.pl3     1 GTP        -0.5618
     31 N3         -2.0053   -0.0071   -2.8402 N.2       1 GTP        -0.4283
     32 C4         -2.6290   -0.4727   -1.7210 C.ar      1 GTP         0.2226
     33 H5'        -1.7618   -3.4448    2.4164 H         1 GTP        -0.0393
     34 H5''       -0.1874   -3.8744    3.1341 H         1 GTP        -0.0393
     35 H4'         0.8874   -3.6466    0.8805 H         1 GTP        -0.0393
     36 H3'        -0.7376   -1.2333    1.9867 H         1 GTP        -0.0393
     37 HO3'        1.3408   -0.4870    2.3219 H         1 GTP         0.2010
     38 H2'        -0.0384   -0.0310    0.0096 H         1 GTP        -0.0393
     39 HO2'        1.4998   -0.8412   -1.4369 H         1 GTP         0.2010
     40 H1'        -0.4769   -2.1002   -1.8093 H         1 GTP        -0.0393
     41 H8         -2.9610   -2.1316    1.0079 H         1 GTP         0.0000
     42 HN1        -4.5320    1.7923   -3.8726 H         1 GTP         0.0865
     43 HN21       -1.3128    1.1277   -5.0171 H         1 GTP         0.2048
     44 HN22       -2.8342    1.9586   -5.2572 H         1 GTP         0.2048
     45 H45        -5.0195   -0.8034    0.3729 H         1 GTP         0.2048
@<TRIPOS>BOND
     1    1    2 2
     2    1    3 1
     3    1    4 1
     4    1    5 1
     5    5    6 1
     6    6    7 2
     7    6    8 1
     8    6    9 1
     9    9   10 1
    10   10   11 2
    11   10   12 1
    12   10   13 1
    13   13   14 1
    14   14   15 1
    15   14   33 1
    16   14   34 1
    17   15   16 1
    18   15   17 1
    19   15   35 1
    20   16   21 1
    21   17   18 1
    22   17   19 1
    23   17   36 1
    24   18   37 1
    25   19   20 1
    26   19   21 1
    27   19   38 1
    28   20   39 1
    29   21   22 1
    30   21   40 1
    31   22   23 ar
    32   22   32 ar
    33   23   24 ar
    34   23   41 1
    35   24   25 ar
    36   24   45 1
    37   25   26 ar
    38   25   32 ar
    39   26   27 2
    40   26   28 ar
    41   28   29 ar
    42   28   42 1
    43   29   30 1
    44   29   31 ar
    45   30   43 1
    46   30   44 1
    47   31   32 ar
@<TRIPOS>SUBSTRUCTURE
     1 GTP         1 GROUP 0 A     ****
@<TRIPOS>MOLECULE
[[[5-(2-amino-6-oxo-7,8-dihydro-1~{H}-purin-8-ylium-9-yl)-3,4-dihydroxy-tetrahydrofuran-2-yl]methoxy-oxido-phosphoryl]oxy-oxido-phosphoryl] phosphate
   45    47     1     0     0
SMALL
USER_CHARGES

@<TRIPOS>ATOM
      1 PG          4.5132   -2.9481   -8.0670 P.3       1 GTP        -1.1921
      2 O1G         3.3846   -2.5939   -9.0296 O.co2     1 GTP         0.3195
      3 O2G         5.8232   -2.2154   -8.3368 O.co2     1 GTP         0.3195
      4 O3G         4.6731   -4.4433   -7.8125 O.co2     1 GTP         0.3195
      5 O3B         4.0081   -2.3533   -6.6141 O.3       1 GTP         0.4672
      6 PB          2.6747   -2.7089   -5.7397 P.3       1 GTP        -1.1062
      7 O1B         1.4534   -2.2542   -6.5074 O.co2     1 GTP         0.3195
      8 O2B         2.7943   -4.1189   -5.2058 O.co2     1 GTP         0.3195
      9 O3A         2.9217   -1.7121   -4.4705 O.3       1 GTP         0.4672
     10 PA          3.0683   -0.0853   -4.4294 P.3       1 GTP        -1.1062
     11 O1A         4.3403    0.2960   -5.1548 O.co2     1 GTP         0.3195
     12 O2A         1.7407    0.5404   -4.7982 O.co2     1 GTP         0.3195
     13 O5'         3.2903    0.1346   -2.8241 O.3       1 GTP         0.1618
     14 C5'         2.2816   -0.2918   -1.9206 C.3       1 GTP         0.1504
     15 C4'         2.7248    0.0226   -0.4980 C.3       1 GTP         0.1111
     16 O4'         2.4697    1.4219   -0.2462 O.3       1 GTP        -0.1436
     17 C3'         1.9404   -0.7419    0.5596 C.3       1 GTP         0.1111
     18 O3'         2.7418   -0.8086    1.7389 O.3       1 GTP        -0.2728
     19 C2'         0.7477    0.1630    0.7858 C.3       1 GTP         0.1111
     20 O2'         0.1373   -0.0577    2.0407 O.3       1 GTP        -0.2728
     21 C1'         1.3733    1.5427    0.6747 C.3       1 GTP         0.2693
     22 N9          0.4520    2.5240    0.1767 N.pl3     1 GTP        -0.3222
     23 C8         -0.8613    2.5511    0.3730 C.ar      1 GTP         0.1640
     24 N7         -1.4346    3.5939   -0.2188 N.pl3     1 GTP        -0.3688
     25 C5         -0.4099    4.2657   -0.8276 C.ar      1 GTP         0.0648
     26 C6         -0.4554    5.4854   -1.6209 C.ar      1 GTP         0.3597
     27 O6         -1.4907    6.0944   -1.8508 O.2       1 GTP        -0.2755
     28 N1          0.8205    5.8357   -2.0593 N.pl3     1 GTP        -0.1604
     29 C2          1.9890    5.1091   -1.7730 C.ar      1 GTP         0.4468
     30 N2          3.1452    5.6230   -2.2997 N.pl3     1 GTP        -0.5618
     31 N3          1.9765    4.0139   -1.0514 N.2       1 GTP        -0.4283
     32 C4          0.7480    3.6324   -0.6003 C.ar      1 GTP         0.2226
     33 H5'         1.3514    0.2330   -2.1577 H         1 GTP        -0.0393
     34 H5''        2.1280   -1.3678   -2.0460 H         1 GTP        -0.0393
     35 H4'         3.8044   -0.1397   -0.4040 H         1 GTP        -0.0393
     36 H3'         1.6764   -1.7639    0.2728 H         1 GTP        -0.0393
     37 HO3'        3.5554   -1.2733    1.4914 H         1 GTP         0.2010
     38 H2'        -0.0011    0.0027    0.0003 H         1 GTP        -0.0393
     39 HO2'       -0.1563   -0.9855    2.0596 H         1 GTP         0.2010
     40 H1'         1.7826    1.9024    1.6451 H         1 GTP        -0.0393
     41 H8         -1.4050    1.8187    0.9438 H         1 GTP         0.0000
     42 HN1         0.9121    6.6744   -2.6251 H         1 GTP         0.0865
     43 HN21        3.9971    5.1427   -2.1235 H         1 GTP         0.2048
     44 HN22        3.0881    6.4564   -2.8380 H         1 GTP         0.2048
     45 H45        -2.4173    3.8294   -0.2127 H         1 GTP         0.2048
@<TRIPOS>BOND
     1    1    2 2
     2    1    3 1
     3    1    4 1
     4    1    5 1
     5    5    6 1
     6    6    7 2
     7    6    8 1
     8    6    9 1
     9    9   10 1
    10   10   11 2
    11   10   12 1
    12   10   13 1
    13   13   14 1
    14   14   15 1
    15   14   33 1
    16   14   34 1
    17   15   16 1
    18   15   17 1
    19   15   35 1
    20   16   21 1
    21   17   18 1
    22   17   19 1
    23   17   36 1
    24   18   37 1
    25   19   20 1
    26   19   21 1
    27   19   38 1
    28   20   39 1
    29   21   22 1
    30   21   40 1
    31   22   23 ar
    32   22   32 ar
    33   23   24 ar
    34   23   41 1
    35   24   25 ar
    36   24   45 1
    37   25   26 ar
    38   25   32 ar
    39   26   27 2
    40   26   28 ar
    41   28   29 ar
    42   28   42 1
    43   29   30 1
    44   29   31 ar
    45   30   43 1
    46   30   44 1
    47   31   32 ar
@<TRIPOS>SUBSTRUCTURE
     1 GTP         1 GROUP 0 A     ****
@<TRIPOS>MOLECULE
[[[5-(2-amino-6-oxo-7,8-dihydro-1~{H}-purin-8-ylium-9-yl)-3,4-dihydroxy-tetrahydrofuran-2-yl]methoxy-oxido-phosphoryl]oxy-oxido-phosphoryl] phosphate
   45    47     1     0     0
SMALL
USER_CHARGES

@<TRIPOS>ATOM
      1 PG          1.8910    0.4890   -8.9243 P.3       1 GTP        -1.1921
      2 O1G         0.4046    0.6411   -9.2297 O.co2     1 GTP         0.3195
      3 O2G         2.7223    1.7356   -9.2080 O.co2     1 GTP         0.3195
      4 O3G         2.5075   -0.8060   -9.4431 O.co2     1 GTP         0.3195
      5 O3B         1.9530    0.3251   -7.2844 O.3       1 GTP         0.4672
      6 PB          1.2770   -0.8029   -6.3151 P.3       1 GTP        -1.1062
      7 O1B        -0.2277   -0.6651   -6.3835 O.co2     1 GTP         0.3195
      8 O2B         1.9615   -2.1311   -6.5489 O.co2     1 GTP         0.3195
      9 O3A         1.8081   -0.2577   -4.8708 O.3       1 GTP         0.4672
     10 PA          3.3347   -0.0507   -4.3265 P.3       1 GTP        -1.1062
     11 O1A         3.9865   -1.4112   -4.2092 O.co2     1 GTP         0.3195
     12 O2A         3.9917    1.0658   -5.1088 O.co2     1 GTP         0.3195
     13 O5'         3.0213    0.5153   -2.8245 O.3       1 GTP         0.1618
     14 C5'         2.2816   -0.2918   -1.9206 C.3       1 GTP         0.1504
     15 C4'         2.7248    0.0226   -0.4980 C.3       1 GTP         0.1111
     16 O4'         2.4697    1.4219   -0.2462 O.3       1 GTP        -0.1436
     17 C3'         1.9404   -0.7419    0.5596 C.3       1 GTP         0.1111
     18 O3'         2.7418   -0.8086    1.7389 O.3       1 GTP        -0.2728
     19 C2'         0.7477    0.1630    0.7858 C.3       1 GTP         0.1111
     20 O2'         0.1373   -0.0577    2.0407 O.3       1 GTP        -0.2728
     21 C1'         1.3733    1.5427    0.6747 C.3       1 GTP         0.2693
     22 N9          0.4520    2.5240    0.1767 N.pl3     1 GTP        -0.3222
     23 C8         -0.8613    2.5511    0.3730 C.ar      1 GTP         0.1640
     24 N7         -1.4346    3.5939   -0.2188 N.pl3     1 GTP        -0.3688
     25 C5         -0.4099    4.2657   -0.8276 C.ar      1 GTP         0.0648
     26 C6         -0.4554    5.4854   -1.6209 C.ar      1 GTP         0.3597
     27 O6         -1.4907    6.0944   -1.8508 O.2       1 GTP        -0.2755
     28 N1          0.8205    5.8357   -2.0593 N.pl3     1 GTP        -0.1604
     29 C2          1.9890    5.1091   -1.7730 C.ar      1 GTP         0.4468
     30 N2          3.1452    5.6230   -2.2997 N.pl3     1 GTP        -0.5618
     31 N3          1.9765    4.0139   -1.0514 N.2       1 GTP        -0.4283
     32 C4          0.7480    3.6324   -0.6003 C.ar      1 GTP         0.2226
     33 H5'         1.2163   -0.0770   -2.0471 H         1 GTP        -0.0393
     34 H5''        2.4655   -1.3443   -2.1563 H         1 GTP        -0.0393
     35 H4'         3.8044   -0.1397   -0.4040 H         1 GTP        -0.0393
     36 H3'         1.6764   -1.7639    0.2728 H         1 GTP        -0.0393
     37 HO3'        2.2232   -1.2979    2.3953 H         1 GTP         0.2010
     38 H2'        -0.0011    0.0027    0.0003 H         1 GTP        -0.0393
     39 HO2'       -0.1563   -0.9855    2.0596 H         1 GTP         0.2010
     40 H1'         1.7826    1.9024    1.6451 H         1 GTP        -0.0393
     41 H8         -1.4050    1.8187    0.9438 H         1 GTP         0.0000
     42 HN1         0.9121    6.6744   -2.6251 H         1 GTP         0.0865
     43 HN21        3.9971    5.1427   -2.1235 H         1 GTP         0.2048
     44 HN22        3.0881    6.4564   -2.8380 H         1 GTP         0.2048
     45 H45        -2.4173    3.8294   -0.2127 H         1 GTP         0.2048
@<TRIPOS>BOND
     1    1    2 2
     2    1    3 1
     3    1    4 1
     4    1    5 1
     5    5    6 1
     6    6    7 2
     7    6    8 1
     8    6    9 1
     9    9   10 1
    10   10   11 2
    11   10   12 1
    12   10   13 1
    13   13   14 1
    14   14   15 1
    15   14   33 1
    16   14   34 1
    17   15   16 1
    18   15   17 1
    19   15   35 1
    20   16   21 1
    21   17   18 1
    22   17   19 1
    23   17   36 1
    24   18   37 1
    25   19   20 1
    26   19   21 1
    27   19   38 1
    28   20   39 1
    29   21   22 1
    30   21   40 1
    31   22   23 ar
    32   22   32 ar
    33   23   24 ar
    34   23   41 1
    35   24   25 ar
    36   24   45 1
    37   25   26 ar
    38   25   32 ar
    39   26   27 2
    40   26   28 ar
    41   28   29 ar
    42   28   42 1
    43   29   30 1
    44   29   31 ar
    45   30   43 1
    46   30   44 1
    47   31   32 ar
@<TRIPOS>SUBSTRUCTURE
     1 GTP         1 GROUP 0 A     ****
@<TRIPOS>MOLECULE
[[[5-(2-amino-6-oxo-7,8-dihydro-1~{H}-purin-8-ylium-9-yl)-3,4-dihydroxy-tetrahydrofuran-2-yl]methoxy-oxido-phosphoryl]oxy-oxido-phosphoryl] phosphate
   45    47     1     0     0
SMALL
USER_CHARGES

@<TRIPOS>ATOM
      1 PG         -5.6337   -6.5323    5.4097 P.3       1 GTP        -1.1921
      2 O1G        -5.6255   -5.7998    6.7473 O.co2     1 GTP         0.3195
      3 O2G        -6.6049   -5.9579    4.3838 O.co2     1 GTP         0.3195
      4 O3G        -5.6752   -8.0523    5.5284 O.co2     1 GTP         0.3195
      5 O3B        -4.1436   -6.2278    4.7719 O.3       1 GTP         0.4672
      6 PB         -2.6590   -6.5787    5.3566 P.3       1 GTP        -1.1062
      7 O1B        -2.4332   -5.7817    6.6221 O.co2     1 GTP         0.3195
      8 O2B        -2.4526   -8.0764    5.3171 O.co2     1 GTP         0.3195
      9 O3A        -1.7503   -5.9555    4.1518 O.3       1 GTP         0.4672
     10 PA         -1.7123   -6.3376    2.5636 P.3       1 GTP        -1.1062
     11 O1A        -1.1775   -7.7464    2.4261 O.co2     1 GTP         0.3195
     12 O2A        -3.0240   -5.9338    1.9262 O.co2     1 GTP         0.3195
     13 O5'        -0.5687   -5.2869    2.0510 O.3       1 GTP         0.1618
     14 C5'        -0.7840   -3.8935    2.2172 C.3       1 GTP         0.1504
     15 C4'        -0.0724   -3.1466    1.1027 C.3       1 GTP         0.1111
     16 O4'        -0.8674   -3.1929   -0.0945 O.3       1 GTP        -0.1436
     17 C3'         0.1338   -1.6715    1.4027 C.3       1 GTP         0.1111
     18 O3'         1.2893   -1.4445    2.1808 O.3       1 GTP        -0.2728
     19 C2'         0.2158   -1.0724    0.0128 C.3       1 GTP         0.1111
     20 O2'         1.5141   -1.2448   -0.5513 O.3       1 GTP        -0.2728
     21 C1'        -0.7897   -1.9176   -0.7583 C.3       1 GTP         0.2693
     22 N9         -2.1040   -1.3333   -0.7704 N.pl3     1 GTP        -0.3222
     23 C8         -3.0597   -1.5109    0.1345 C.ar      1 GTP         0.1640
     24 N7         -4.1618   -0.8291   -0.1607 N.pl3     1 GTP        -0.3688
     25 C5         -3.8764   -0.1805   -1.3310 C.ar      1 GTP         0.0648
     26 C6         -4.7187    0.7111   -2.1152 C.ar      1 GTP         0.3597
     27 O6         -5.8617    1.0043   -1.7939 O.2       1 GTP        -0.2755
     28 N1         -4.0405    1.1608   -3.2468 N.pl3     1 GTP        -0.1604
     29 C2         -2.7239    0.8013   -3.5822 C.ar      1 GTP         0.4468
     30 N2         -2.2399    1.3534   -4.7394 N.pl3     1 GTP        -0.5618
     31 N3         -2.0053   -0.0071   -2.8402 N.2       1 GTP        -0.4283
     32 C4         -2.6290   -0.4727   -1.7210 C.ar      1 GTP         0.2226
     33 H5'        -1.8598   -3.6968    2.1850 H         1 GTP        -0.0393
     34 H5''       -0.3933   -3.5903    3.1931 H         1 GTP        -0.0393
     35 H4'         0.8874   -3.6466    0.8805 H         1 GTP        -0.0393
     36 H3'        -0.7376   -1.2333    1.9867 H         1 GTP        -0.0393
     37 HO3'        1.1626   -1.9325    3.0084 H         1 GTP         0.2010
     38 H2'        -0.0384   -0.0310    0.0096 H         1 GTP        -0.0393
     39 HO2'        1.4998   -0.8412   -1.4369 H         1 GTP         0.2010
     40 H1'        -0.4769   -2.1002   -1.8093 H         1 GTP        -0.0393
     41 H8         -2.9610   -2.1316    1.0079 H         1 GTP         0.0000
     42 HN1        -4.5320    1.7923   -3.8726 H         1 GTP         0.0865
     43 HN21       -1.3128    1.1277   -5.0171 H         1 GTP         0.2048
     44 HN22       -2.8342    1.9586   -5.2572 H         1 GTP         0.2048
     45 H45        -5.0195   -0.8034    0.3729 H         1 GTP         0.2048
@<TRIPOS>BOND
     1    1    2 2
     2    1    3 1
     3    1    4 1
     4    1    5 1
     5    5    6 1
     6    6    7 2
     7    6    8 1
     8    6    9 1
     9    9   10 1
    10   10   11 2
    11   10   12 1
    12   10   13 1
    13   13   14 1
    14   14   15 1
    15   14   33 1
    16   14   34 1
    17   15   16 1
    18   15   17 1
    19   15   35 1
    20   16   21 1
    21   17   18 1
    22   17   19 1
    23   17   36 1
    24   18   37 1
    25   19   20 1
    26   19   21 1
    27   19   38 1
    28   20   39 1
    29   21   22 1
    30   21   40 1
    31   22   23 ar
    32   22   32 ar
    33   23   24 ar
    34   23   41 1
    35   24   25 ar
    36   24   45 1
    37   25   26 ar
    38   25   32 ar
    39   26   27 2
    40   26   28 ar
    41   28   29 ar
    42   28   42 1
    43   29   30 1
    44   29   31 ar
    45   30   43 1
    46   30   44 1
    47   31   32 ar
@<TRIPOS>SUBSTRUCTURE
     1 GTP         1 GROUP 0 A     ****
@<TRIPOS>MOLECULE
[[[5-(2-amino-6-oxo-7,8-dihydro-1~{H}-purin-8-ylium-9-yl)-3,4-dihydroxy-tetrahydrofuran-2-yl]methoxy-oxido-phosphoryl]oxy-oxido-phosphoryl] phosphate
   45    47     1     0     0
SMALL
USER_CHARGES

@<TRIPOS>ATOM
      1 PG         -1.7298   -5.6575   -0.7265 P.3       1 GTP        -1.1921
      2 O1G        -1.2157   -7.0415   -1.1085 O.co2     1 GTP         0.3195
      3 O2G        -1.7999   -5.4049    0.7758 O.co2     1 GTP         0.3195
      4 O3G        -2.9721   -5.2172   -1.4939 O.co2     1 GTP         0.3195
      5 O3B        -0.5548   -4.6285   -1.2561 O.3       1 GTP         0.4672
      6 PB          0.0269   -4.3847   -2.7631 P.3       1 GTP        -1.1062
      7 O1B         0.7274   -5.6434   -3.2242 O.co2     1 GTP         0.3195
      8 O2B        -1.0397   -3.7193   -3.6039 O.co2     1 GTP         0.3195
      9 O3A         1.1373   -3.2347   -2.4311 O.3       1 GTP         0.4672
     10 PA          2.1639   -2.4504   -3.4314 P.3       1 GTP        -1.1062
     11 O1A         3.1601   -3.4529   -3.9719 O.co2     1 GTP         0.3195
     12 O2A         1.3665   -1.5618   -4.3612 O.co2     1 GTP         0.3195
     13 O5'         2.9216   -1.4836   -2.3516 O.3       1 GTP         0.1618
     14 C5'         2.2816   -0.2918   -1.9206 C.3       1 GTP         0.1504
     15 C4'         2.7248    0.0226   -0.4980 C.3       1 GTP         0.1111
     16 O4'         2.4697    1.4219   -0.2462 O.3       1 GTP        -0.1436
     17 C3'         1.9404   -0.7419    0.5596 C.3       1 GTP         0.1111
     18 O3'         2.7418   -0.8086    1.7389 O.3       1 GTP        -0.2728
     19 C2'         0.7477    0.1630    0.7858 C.3       1 GTP         0.1111
     20 O2'         0.1373   -0.0577    2.0407 O.3       1 GTP        -0.2728
     21 C1'         1.3733    1.5427    0.6747 C.3       1 GTP         0.2693
     22 N9          0.4520    2.5240    0.1767 N.pl3     1 GTP        -0.3222
     23 C8          0.5671    3.2221   -0.9473 C.ar      1 GTP         0.1640
     24 N7         -0.4560    4.0508   -1.1290 N.pl3     1 GTP        -0.3688
     25 C5         -1.2671    3.8585   -0.0441 C.ar      1 GTP         0.0648
     26 C6         -2.5318    4.5014    0.2817 C.ar      1 GTP         0.3597
     27 O6         -3.0527    5.3493   -0.4293 O.2       1 GTP        -0.2755
     28 N1         -3.0357    4.0149    1.4868 N.pl3     1 GTP        -0.1604
     29 C2         -2.4069    3.0373    2.2768 C.ar      1 GTP         0.4468
     30 N2         -3.0679    2.6964    3.4278 N.pl3     1 GTP        -0.5618
     31 N3         -1.2653    2.4872    1.9379 N.2       1 GTP        -0.4283
     32 C4         -0.7342    2.9334    0.7643 C.ar      1 GTP         0.2226
     33 H5'         2.5589    0.5217   -2.5976 H         1 GTP        -0.0393
     34 H5''        1.1982   -0.4388   -1.9617 H         1 GTP        -0.0393
     35 H4'         3.8044   -0.1397   -0.4040 H         1 GTP        -0.0393
     36 H3'         1.6764   -1.7639    0.2728 H         1 GTP        -0.0393
     37 HO3'        2.2232   -1.2979    2.3953 H         1 GTP         0.2010
     38 H2'        -0.0011    0.0027    0.0003 H         1 GTP        -0.0393
     39 HO2'       -0.1563   -0.9855    2.0596 H         1 GTP         0.2010
     40 H1'         1.7826    1.9024    1.6451 H         1 GTP        -0.0393
     41 H8          1.3888    3.1325   -1.6361 H         1 GTP         0.0000
     42 HN1        -3.9188    4.3932    1.8170 H         1 GTP         0.0865
     43 HN21       -2.6609    2.0087    4.0186 H         1 GTP         0.2048
     44 HN22       -3.9293    3.1496    3.6283 H         1 GTP         0.2048
     45 H45        -0.5938    4.6820   -1.9060 H         1 GTP         0.2048
@<TRIPOS>BOND
     1    1    2 2
     2    1    3 1
     3    1    4 1
     4    1    5 1
     5    5    6 1
     6    6    7 2
     7    6    8 1
     8    6    9 1
     9    9   10 1
    10   10   11 2
    11   10   12 1
    12   10   13 1
    13   13   14 1
    14   14   15 1
    15   14   33 1
    16   14   34 1
    17   15   16 1
    18   15   17 1
    19   15   35 1
    20   16   21 1
    21   17   18 1
    22   17   19 1
    23   17   36 1
    24   18   37 1
    25   19   20 1
    26   19   21 1
    27   19   38 1
    28   20   39 1
    29   21   22 1
    30   21   40 1
    31   22   23 ar
    32   22   32 ar
    33   23   24 ar
    34   23   41 1
    35   24   25 ar
    36   24   45 1
    37   25   26 ar
    38   25   32 ar
    39   26   27 2
    40   26   28 ar
    41   28   29 ar
    42   28   42 1
    43   29   30 1
    44   29   31 ar
    45   30   43 1
    46   30   44 1
    47   31   32 ar
@<TRIPOS>SUBSTRUCTURE
     1 GTP         1 GROUP 0 A     ****
@<TRIPOS>MOLECULE
[[[5-(2-amino-6-oxo-7,8-dihydro-1~{H}-purin-8-ylium-9-yl)-3,4-dihydroxy-tetrahydrofuran-2-yl]methoxy-oxido-phosphoryl]oxy-oxido-phosphoryl] phosphate
   45    47     1     0     0
SMALL
USER_CHARGES

@<TRIPOS>ATOM
      1 PG          6.6288   -3.3735   -5.1160 P.3       1 GTP        -1.1921
      2 O1G         7.3175   -3.1132   -3.7804 O.co2     1 GTP         0.3195
      3 O2G         6.3479   -4.8447   -5.4027 O.co2     1 GTP         0.3195
      4 O3G         7.2322   -2.6108   -6.2908 O.co2     1 GTP         0.3195
      5 O3B         5.1328   -2.7026   -4.9378 O.3       1 GTP         0.4672
      6 PB          4.7052   -1.1590   -4.6159 P.3       1 GTP        -1.1062
      7 O1B         5.1837   -0.8009   -3.2265 O.co2     1 GTP         0.3195
      8 O2B         5.0328   -0.2946   -5.8130 O.co2     1 GTP         0.3195
      9 O3A         3.0822   -1.3351   -4.6038 O.3       1 GTP         0.4672
     10 PA          2.1375   -2.2725   -3.6560 P.3       1 GTP        -1.1062
     11 O1A         0.6906   -1.9446   -3.9539 O.co2     1 GTP         0.3195
     12 O2A         2.6428   -3.6980   -3.7095 O.co2     1 GTP         0.3195
     13 O5'         2.5245   -1.6648   -2.1878 O.3       1 GTP         0.1618
     14 C5'         2.2816   -0.2918   -1.9206 C.3       1 GTP         0.1504
     15 C4'         2.7248    0.0226   -0.4980 C.3       1 GTP         0.1111
     16 O4'         2.4697    1.4219   -0.2462 O.3       1 GTP        -0.1436
     17 C3'         1.9404   -0.7419    0.5596 C.3       1 GTP         0.1111
     18 O3'         2.7418   -0.8086    1.7389 O.3       1 GTP        -0.2728
     19 C2'         0.7477    0.1630    0.7858 C.3       1 GTP         0.1111
     20 O2'         0.1373   -0.0577    2.0407 O.3       1 GTP        -0.2728
     21 C1'         1.3733    1.5427    0.6747 C.3       1 GTP         0.2693
     22 N9          0.4520    2.5240    0.1767 N.pl3     1 GTP        -0.3222
     23 C8         -0.3350    3.3125    0.8998 C.ar      1 GTP         0.1640
     24 N7         -1.0716    4.1171    0.1405 N.pl3     1 GTP        -0.3688
     25 C5         -0.7219    3.8110   -1.1464 C.ar      1 GTP         0.0648
     26 C6         -1.2133    4.3827   -2.3917 C.ar      1 GTP         0.3597
     27 O6         -2.0567    5.2674   -2.4335 O.2       1 GTP        -0.2755
     28 N1         -0.5926    3.7846   -3.4870 N.pl3     1 GTP        -0.1604
     29 C2          0.3749    2.7691   -3.3983 C.ar      1 GTP         0.4468
     30 N2          0.8624    2.3146   -4.5959 N.pl3     1 GTP        -0.5618
     31 N3          0.7851    2.2875   -2.2493 N.2       1 GTP        -0.4283
     32 C4          0.2042    2.8436   -1.1486 C.ar      1 GTP         0.2226
     33 H5'         2.8432    0.3119   -2.6398 H         1 GTP        -0.0393
     34 H5''        1.2128   -0.0927   -2.0428 H         1 GTP        -0.0393
     35 H4'         3.8044   -0.1397   -0.4040 H         1 GTP        -0.0393
     36 H3'         1.6764   -1.7639    0.2728 H         1 GTP        -0.0393
     37 HO3'        2.2232   -1.2979    2.3953 H         1 GTP         0.2010
     38 H2'        -0.0011    0.0027    0.0003 H         1 GTP        -0.0393
     39 HO2'       -0.6141    0.5574    2.1082 H         1 GTP         0.2010
     40 H1'         1.7826    1.9024    1.6451 H         1 GTP        -0.0393
     41 H8         -0.3766    3.3075    1.9750 H         1 GTP         0.0000
     42 HN1        -0.8580    4.1049   -4.4138 H         1 GTP         0.0865
     43 HN21        1.5490    1.5963   -4.5827 H         1 GTP         0.2048
     44 HN22        0.5109    2.7205   -5.4321 H         1 GTP         0.2048
     45 H45        -1.7420    4.8034    0.4575 H         1 GTP         0.2048
@<TRIPOS>BOND
     1    1    2 2
     2    1    3 1
     3    1    4 1
     4    1    5 1
     5    5    6 1
     6    6    7 2
     7    6    8 1
     8    6    9 1
     9    9   10 1
    10   10   11 2
    11   10   12 1
    12   10   13 1
    13   13   14 1
    14   14   15 1
    15   14   33 1
    16   14   34 1
    17   15   16 1
    18   15   17 1
    19   15   35 1
    20   16   21 1
    21   17   18 1
    22   17   19 1
    23   17   36 1
    24   18   37 1
    25   19   20 1
    26   19   21 1
    27   19   38 1
    28   20   39 1
    29   21   22 1
    30   21   40 1
    31   22   23 ar
    32   22   32 ar
    33   23   24 ar
    34   23   41 1
    35   24   25 ar
    36   24   45 1
    37   25   26 ar
    38   25   32 ar
    39   26   27 2
    40   26   28 ar
    41   28   29 ar
    42   28   42 1
    43   29   30 1
    44   29   31 ar
    45   30   43 1
    46   30   44 1
    47   31   32 ar
@<TRIPOS>SUBSTRUCTURE
     1 GTP         1 GROUP 0 A     ****
@<TRIPOS>MOLECULE
[[[5-(2-amino-6-oxo-7,8-dihydro-1~{H}-purin-8-ylium-9-yl)-3,4-dihydroxy-tetrahydrofuran-2-yl]methoxy-oxido-phosphoryl]oxy-oxido-phosphoryl] phosphate
   45    47     1     0     0
SMALL
USER_CHARGES

@<TRIPOS>ATOM
      1 PG         -7.1074   -4.3688    1.5364 P.3       1 GTP        -1.1921
      2 O1G        -7.6895   -5.6774    1.0125 O.co2     1 GTP         0.3195
      3 O2G        -7.2717   -4.1641    3.0387 O.co2     1 GTP         0.3195
      4 O3G        -7.4596   -3.1459    0.6958 O.co2     1 GTP         0.3195
      5 O3B        -5.4803   -4.5360    1.3258 O.3       1 GTP         0.4672
      6 PB         -4.6177   -4.7836   -0.0394 P.3       1 GTP        -1.1062
      7 O1B        -4.9700   -6.1444   -0.5978 O.co2     1 GTP         0.3195
      8 O2B        -4.6762   -3.5378   -0.8948 O.co2     1 GTP         0.3195
      9 O3A        -3.1183   -4.8314    0.6047 O.3       1 GTP         0.4672
     10 PA         -2.4913   -5.8423    1.7249 P.3       1 GTP        -1.1062
     11 O1A        -3.1988   -5.5936    3.0391 O.co2     1 GTP         0.3195
     12 O2A        -2.3987   -7.2343    1.1384 O.co2     1 GTP         0.3195
     13 O5'        -0.9724   -5.2440    1.8220 O.3       1 GTP         0.1618
     14 C5'        -0.7840   -3.8935    2.2172 C.3       1 GTP         0.1504
     15 C4'        -0.0724   -3.1466    1.1027 C.3       1 GTP         0.1111
     16 O4'        -0.8674   -3.1929   -0.0945 O.3       1 GTP        -0.1436
     17 C3'         0.1338   -1.6715    1.4027 C.3       1 GTP         0.1111
     18 O3'         1.2893   -1.4445    2.1808 O.3       1 GTP        -0.2728
     19 C2'         0.2158   -1.0724    0.0128 C.3       1 GTP         0.1111
     20 O2'         1.5141   -1.2448   -0.5513 O.3       1 GTP        -0.2728
     21 C1'        -0.7897   -1.9176   -0.7583 C.3       1 GTP         0.2693
     22 N9         -2.1040   -1.3333   -0.7704 N.pl3     1 GTP        -0.3222
     23 C8         -3.0597   -1.5109    0.1345 C.ar      1 GTP         0.1640
     24 N7         -4.1618   -0.8291   -0.1607 N.pl3     1 GTP        -0.3688
     25 C5         -3.8764   -0.1805   -1.3310 C.ar      1 GTP         0.0648
     26 C6         -4.7187    0.7111   -2.1152 C.ar      1 GTP         0.3597
     27 O6         -5.8617    1.0043   -1.7939 O.2       1 GTP        -0.2755
     28 N1         -4.0405    1.1608   -3.2468 N.pl3     1 GTP        -0.1604
     29 C2         -2.7239    0.8013   -3.5822 C.ar      1 GTP         0.4468
     30 N2         -2.2399    1.3534   -4.7394 N.pl3     1 GTP        -0.5618
     31 N3         -2.0053   -0.0071   -2.8402 N.2       1 GTP        -0.4283
     32 C4         -2.6290   -0.4727   -1.7210 C.ar      1 GTP         0.2226
     33 H5'        -1.7618   -3.4448    2.4164 H         1 GTP        -0.0393
     34 H5''       -0.1874   -3.8744    3.1341 H         1 GTP        -0.0393
     35 H4'         0.8874   -3.6466    0.8805 H         1 GTP        -0.0393
     36 H3'        -0.7376   -1.2333    1.9867 H         1 GTP        -0.0393
     37 HO3'        1.3408   -0.4870    2.3219 H         1 GTP         0.2010
     38 H2'        -0.0384   -0.0310    0.0096 H         1 GTP        -0.0393
     39 HO2'        1.4998   -0.8412   -1.4369 H         1 GTP         0.2010
     40 H1'        -0.4769   -2.1002   -1.8093 H         1 GTP        -0.0393
     41 H8         -2.9610   -2.1316    1.0079 H         1 GTP         0.0000
     42 HN1        -4.5320    1.7923   -3.8726 H         1 GTP         0.0865
     43 HN21       -1.3128    1.1277   -5.0171 H         1 GTP         0.2048
     44 HN22       -2.8342    1.9586   -5.2572 H         1 GTP         0.2048
     45 H45        -5.0195   -0.8034    0.3729 H         1 GTP         0.2048
@<TRIPOS>BOND
     1    1    2 2
     2    1    3 1
     3    1    4 1
     4    1    5 1
     5    5    6 1
     6    6    7 2
     7    6    8 1
     8    6    9 1
     9    9   10 1
    10   10   11 2
    11   10   12 1
    12   10   13 1
    13   13   14 1
    14   14   15 1
    15   14   33 1
    16   14   34 1
    17   15   16 1
    18   15   17 1
    19   15   35 1
    20   16   21 1
    21   17   18 1
    22   17   19 1
    23   17   36 1
    24   18   37 1
    25   19   20 1
    26   19   21 1
    27   19   38 1
    28   20   39 1
    29   21   22 1
    30   21   40 1
    31   22   23 ar
    32   22   32 ar
    33   23   24 ar
    34   23   41 1
    35   24   25 ar
    36   24   45 1
    37   25   26 ar
    38   25   32 ar
    39   26   27 2
    40   26   28 ar
    41   28   29 ar
    42   28   42 1
    43   29   30 1
    44   29   31 ar
    45   30   43 1
    46   30   44 1
    47   31   32 ar
@<TRIPOS>SUBSTRUCTURE
     1 GTP         1 GROUP 0 A     ****
@<TRIPOS>MOLECULE
[[[5-(2-amino-6-oxo-7,8-dihydro-1~{H}-purin-8-ylium-9-yl)-3,4-dihydroxy-tetrahydrofuran-2-yl]methoxy-oxido-phosphoryl]oxy-oxido-phosphoryl] phosphate
   45    47     1     0     0
SMALL
USER_CHARGES

@<TRIPOS>ATOM
      1 PG          6.6126   -1.4594   -5.3321 P.3       1 GTP        -1.1921
      2 O1G         7.0103   -2.8757   -5.7345 O.co2     1 GTP         0.3195
      3 O2G         7.5599   -0.3740   -5.8322 O.co2     1 GTP         0.3195
      4 O3G         6.2111   -1.3139   -3.8680 O.co2     1 GTP         0.3195
      5 O3B         5.2099   -1.1834   -6.1543 O.3       1 GTP         0.4672
      6 PB          3.7844   -1.9794   -6.0966 P.3       1 GTP        -1.1062
      7 O1B         2.7769   -1.2361   -6.9452 O.co2     1 GTP         0.3195
      8 O2B         4.0359   -3.4593   -6.2810 O.co2     1 GTP         0.3195
      9 O3A         3.4295   -1.7646   -4.5176 O.3       1 GTP         0.4672
     10 PA          2.1375   -2.2725   -3.6560 P.3       1 GTP        -1.1062
     11 O1A         0.9094   -1.5552   -4.1728 O.co2     1 GTP         0.3195
     12 O2A         2.1749   -3.7817   -3.5514 O.co2     1 GTP         0.3195
     13 O5'         2.5245   -1.6648   -2.1878 O.3       1 GTP         0.1618
     14 C5'         2.2816   -0.2918   -1.9206 C.3       1 GTP         0.1504
     15 C4'         2.7248    0.0226   -0.4980 C.3       1 GTP         0.1111
     16 O4'         2.4697    1.4219   -0.2462 O.3       1 GTP        -0.1436
     17 C3'         1.9404   -0.7419    0.5596 C.3       1 GTP         0.1111
     18 O3'         2.7418   -0.8086    1.7389 O.3       1 GTP        -0.2728
     19 C2'         0.7477    0.1630    0.7858 C.3       1 GTP         0.1111
     20 O2'         0.1373   -0.0577    2.0407 O.3       1 GTP        -0.2728
     21 C1'         1.3733    1.5427    0.6747 C.3       1 GTP         0.2693
     22 N9          0.4520    2.5240    0.1767 N.pl3     1 GTP        -0.3222
     23 C8         -0.3350    3.3125    0.8998 C.ar      1 GTP         0.1640
     24 N7         -1.0716    4.1171    0.1405 N.pl3     1 GTP        -0.3688
     25 C5         -0.7219    3.8110   -1.1464 C.ar      1 GTP         0.0648
     26 C6         -1.2133    4.3827   -2.3917 C.ar      1 GTP         0.3597
     27 O6         -2.0567    5.2674   -2.4335 O.2       1 GTP        -0.2755
     28 N1         -0.5926    3.7846   -3.4870 N.pl3     1 GTP        -0.1604
     29 C2          0.3749    2.7691   -3.3983 C.ar      1 GTP         0.4468
     30 N2          0.8624    2.3146   -4.5959 N.pl3     1 GTP        -0.5618
     31 N3          0.7851    2.2875   -2.2493 N.2       1 GTP        -0.4283
     32 C4          0.2042    2.8436   -1.1486 C.ar      1 GTP         0.2226
     33 H5'         2.8432    0.3119   -2.6398 H         1 GTP        -0.0393
     34 H5''        1.2128   -0.0927   -2.0428 H         1 GTP        -0.0393
     35 H4'         3.8044   -0.1397   -0.4040 H         1 GTP        -0.0393
     36 H3'         1.6764   -1.7639    0.2728 H         1 GTP        -0.0393
     37 HO3'        2.2232   -1.2979    2.3953 H         1 GTP         0.2010
     38 H2'        -0.0011    0.0027    0.0003 H         1 GTP        -0.0393
     39 HO2'       -0.6141    0.5574    2.1082 H         1 GTP         0.2010
     40 H1'         1.7826    1.9024    1.6451 H         1 GTP        -0.0393
     41 H8         -0.3766    3.3075    1.9750 H         1 GTP         0.0000
     42 HN1        -0.8580    4.1049   -4.4138 H         1 GTP         0.0865
     43 HN21        1.5490    1.5963   -4.5827 H         1 GTP         0.2048
     44 HN22        0.5109    2.7205   -5.4321 H         1 GTP         0.2048
     45 H45        -1.7420    4.8034    0.4575 H         1 GTP         0.2048
@<TRIPOS>BOND
     1    1    2 2
     2    1    3 1
     3    1    4 1
     4    1    5 1
     5    5    6 1
     6    6    7 2
     7    6    8 1
     8    6    9 1
     9    9   10 1
    10   10   11 2
    11   10   12 1
    12   10   13 1
    13   13   14 1
    14   14   15 1
    15   14   33 1
    16   14   34 1
    17   15   16 1
    18   15   17 1
    19   15   35 1
    20   16   21 1
    21   17   18 1
    22   17   19 1
    23   17   36 1
    24   18   37 1
    25   19   20 1
    26   19   21 1
    27   19   38 1
    28   20   39 1
    29   21   22 1
    30   21   40 1
    31   22   23 ar
    32   22   32 ar
    33   23   24 ar
    34   23   41 1
    35   24   25 ar
    36   24   45 1
    37   25   26 ar
    38   25   32 ar
    39   26   27 2
    40   26   28 ar
    41   28   29 ar
    42   28   42 1
    43   29   30 1
    44   29   31 ar
    45   30   43 1
    46   30   44 1
    47   31   32 ar
@<TRIPOS>SUBSTRUCTURE
     1 GTP         1 GROUP 0 A     ****
@<TRIPOS>MOLECULE
[[[5-(2-amino-6-oxo-7,8-dihydro-1~{H}-purin-8-ylium-9-yl)-3,4-dihydroxy-tetrahydrofuran-2-yl]methoxy-oxido-phosphoryl]oxy-oxido-phosphoryl] phosphate
   45    47     1     0     0
SMALL
USER_CHARGES

@<TRIPOS>ATOM
      1 PG          1.0542   -7.5909    7.1952 P.3       1 GTP        -1.1921
      2 O1G         2.5490   -7.3603    7.3907 O.co2     1 GTP         0.3195
      3 O2G         0.1628   -6.7053    8.0593 O.co2     1 GTP         0.3195
      4 O3G         0.6448   -9.0599    7.1736 O.co2     1 GTP         0.3195
      5 O3B         0.7633   -7.0785    5.6548 O.3       1 GTP         0.4672
      6 PB          1.3885   -7.6002    4.2384 P.3       1 GTP        -1.1062
      7 O1B         2.8671   -7.2832    4.2127 O.co2     1 GTP         0.3195
      8 O2B         0.8725   -8.9929    3.9527 O.co2     1 GTP         0.3195
      9 O3A         0.5992   -6.5975    3.2200 O.3       1 GTP         0.4672
     10 PA         -1.0041   -6.4128    2.9654 P.3       1 GTP        -1.1062
     11 O1A        -1.5372   -7.6866    2.3466 O.co2     1 GTP         0.3195
     12 O2A        -1.6373   -5.8224    4.2066 O.co2     1 GTP         0.3195
     13 O5'        -0.9724   -5.2440    1.8220 O.3       1 GTP         0.1618
     14 C5'        -0.7840   -3.8935    2.2172 C.3       1 GTP         0.1504
     15 C4'        -0.0724   -3.1466    1.1027 C.3       1 GTP         0.1111
     16 O4'        -0.8674   -3.1929   -0.0945 O.3       1 GTP        -0.1436
     17 C3'         0.1338   -1.6715    1.4027 C.3       1 GTP         0.1111
     18 O3'         1.2893   -1.4445    2.1808 O.3       1 GTP        -0.2728
     19 C2'         0.2158   -1.0724    0.0128 C.3       1 GTP         0.1111
     20 O2'         1.5141   -1.2448   -0.5513 O.3       1 GTP        -0.2728
     21 C1'        -0.7897   -1.9176   -0.7583 C.3       1 GTP         0.2693
     22 N9         -2.1040   -1.3333   -0.7704 N.pl3     1 GTP        -0.3222
     23 C8         -3.0597   -1.5109    0.1345 C.ar      1 GTP         0.1640
     24 N7         -4.1618   -0.8291   -0.1607 N.pl3     1 GTP        -0.3688
     25 C5         -3.8764   -0.1805   -1.3310 C.ar      1 GTP         0.0648
     26 C6         -4.7187    0.7111   -2.1152 C.ar      1 GTP         0.3597
     27 O6         -5.8617    1.0043   -1.7939 O.2       1 GTP        -0.2755
     28 N1         -4.0405    1.1608   -3.2468 N.pl3     1 GTP        -0.1604
     29 C2         -2.7239    0.8013   -3.5822 C.ar      1 GTP         0.4468
     30 N2         -2.2399    1.3534   -4.7394 N.pl3     1 GTP        -0.5618
     31 N3         -2.0053   -0.0071   -2.8402 N.2       1 GTP        -0.4283
     32 C4         -2.6290   -0.4727   -1.7210 C.ar      1 GTP         0.2226
     33 H5'        -1.7618   -3.4448    2.4164 H         1 GTP        -0.0393
     34 H5''       -0.1874   -3.8744    3.1341 H         1 GTP        -0.0393
     35 H4'         0.8874   -3.6466    0.8805 H         1 GTP        -0.0393
     36 H3'        -0.7376   -1.2333    1.9867 H         1 GTP        -0.0393
     37 HO3'        1.3408   -0.4870    2.3219 H         1 GTP         0.2010
     38 H2'        -0.0384   -0.0310    0.0096 H         1 GTP        -0.0393
     39 HO2'        1.4998   -0.8412   -1.4369 H         1 GTP         0.2010
     40 H1'        -0.4769   -2.1002   -1.8093 H         1 GTP        -0.0393
     41 H8         -2.9610   -2.1316    1.0079 H         1 GTP         0.0000
     42 HN1        -4.5320    1.7923   -3.8726 H         1 GTP         0.0865
     43 HN21       -1.3128    1.1277   -5.0171 H         1 GTP         0.2048
     44 HN22       -2.8342    1.9586   -5.2572 H         1 GTP         0.2048
     45 H45        -5.0195   -0.8034    0.3729 H         1 GTP         0.2048
@<TRIPOS>BOND
     1    1    2 2
     2    1    3 1
     3    1    4 1
     4    1    5 1
     5    5    6 1
     6    6    7 2
     7    6    8 1
     8    6    9 1
     9    9   10 1
    10   10   11 2
    11   10   12 1
    12   10   13 1
    13   13   14 1
    14   14   15 1
    15   14   33 1
    16   14   34 1
    17   15   16 1
    18   15   17 1
    19   15   35 1
    20   16   21 1
    21   17   18 1
    22   17   19 1
    23   17   36 1
    24   18   37 1
    25   19   20 1
    26   19   21 1
    27   19   38 1
    28   20   39 1
    29   21   22 1
    30   21   40 1
    31   22   23 ar
    32   22   32 ar
    33   23   24 ar
    34   23   41 1
    35   24   25 ar
    36   24   45 1
    37   25   26 ar
    38   25   32 ar
    39   26   27 2
    40   26   28 ar
    41   28   29 ar
    42   28   42 1
    43   29   30 1
    44   29   31 ar
    45   30   43 1
    46   30   44 1
    47   31   32 ar
@<TRIPOS>SUBSTRUCTURE
     1 GTP         1 GROUP 0 A     ****
@<TRIPOS>MOLECULE
[[[5-(2-amino-6-oxo-7,8-dihydro-1~{H}-purin-8-ylium-9-yl)-3,4-dihydroxy-tetrahydrofuran-2-yl]methoxy-oxido-phosphoryl]oxy-oxido-phosphoryl] phosphate
   45    47     1     0     0
SMALL
USER_CHARGES

@<TRIPOS>ATOM
      1 PG          6.0746    1.4550   -4.2625 P.3       1 GTP        -1.1921
      2 O1G         5.1264    1.3397   -3.0737 O.co2     1 GTP         0.3195
      3 O2G         7.4853    1.9074   -3.9005 O.co2     1 GTP         0.3195
      4 O3G         5.4791    2.1692   -5.4714 O.co2     1 GTP         0.3195
      5 O3B         6.2675   -0.0992   -4.7791 O.3       1 GTP         0.4672
      6 PB          5.1593   -1.1733   -5.3153 P.3       1 GTP        -1.1062
      7 O1B         4.3825   -0.5454   -6.4511 O.co2     1 GTP         0.3195
      8 O2B         5.8132   -2.5295   -5.4583 O.co2     1 GTP         0.3195
      9 O3A         4.2121   -1.2550   -3.9881 O.3       1 GTP         0.4672
     10 PA          2.8604   -2.1325   -3.7186 P.3       1 GTP        -1.1062
     11 O1A         1.7706   -1.6210   -4.6353 O.co2     1 GTP         0.3195
     12 O2A         3.2235   -3.6010   -3.6797 O.co2     1 GTP         0.3195
     13 O5'         2.5245   -1.6648   -2.1878 O.3       1 GTP         0.1618
     14 C5'         2.2816   -0.2918   -1.9206 C.3       1 GTP         0.1504
     15 C4'         2.7248    0.0226   -0.4980 C.3       1 GTP         0.1111
     16 O4'         2.4697    1.4219   -0.2462 O.3       1 GTP        -0.1436
     17 C3'         1.9404   -0.7419    0.5596 C.3       1 GTP         0.1111
     18 O3'         2.7418   -0.8086    1.7389 O.3       1 GTP        -0.2728
     19 C2'         0.7477    0.1630    0.7858 C.3       1 GTP         0.1111
     20 O2'         0.1373   -0.0577    2.0407 O.3       1 GTP        -0.2728
     21 C1'         1.3733    1.5427    0.6747 C.3       1 GTP         0.2693
     22 N9          0.4520    2.5240    0.1767 N.pl3     1 GTP        -0.3222
     23 C8          0.5671    3.2221   -0.9473 C.ar      1 GTP         0.1640
     24 N7         -0.4560    4.0508   -1.1290 N.pl3     1 GTP        -0.3688
     25 C5         -1.2671    3.8585   -0.0441 C.ar      1 GTP         0.0648
     26 C6         -2.5318    4.5014    0.2817 C.ar      1 GTP         0.3597
     27 O6         -3.0527    5.3493   -0.4293 O.2       1 GTP        -0.2755
     28 N1         -3.0357    4.0149    1.4868 N.pl3     1 GTP        -0.1604
     29 C2         -2.4069    3.0373    2.2768 C.ar      1 GTP         0.4468
     30 N2         -3.0679    2.6964    3.4278 N.pl3     1 GTP        -0.5618
     31 N3         -1.2653    2.4872    1.9379 N.2       1 GTP        -0.4283
     32 C4         -0.7342    2.9334    0.7643 C.ar      1 GTP         0.2226
     33 H5'         2.8432    0.3119   -2.6398 H         1 GTP        -0.0393
     34 H5''        1.2128   -0.0927   -2.0428 H         1 GTP        -0.0393
     35 H4'         3.8044   -0.1397   -0.4040 H         1 GTP        -0.0393
     36 H3'         1.6764   -1.7639    0.2728 H         1 GTP        -0.0393
     37 HO3'        3.5554   -1.2733    1.4914 H         1 GTP         0.2010
     38 H2'        -0.0011    0.0027    0.0003 H         1 GTP        -0.0393
     39 HO2'        0.8082    0.1199    2.7232 H         1 GTP         0.2010
     40 H1'         1.7826    1.9024    1.6451 H         1 GTP        -0.0393
     41 H8          1.3888    3.1325   -1.6361 H         1 GTP         0.0000
     42 HN1        -3.9188    4.3932    1.8170 H         1 GTP         0.0865
     43 HN21       -2.6609    2.0087    4.0186 H         1 GTP         0.2048
     44 HN22       -3.9293    3.1496    3.6283 H         1 GTP         0.2048
     45 H45        -0.5938    4.6820   -1.9060 H         1 GTP         0.2048
@<TRIPOS>BOND
     1    1    2 2
     2    1    3 1
     3    1    4 1
     4    1    5 1
     5    5    6 1
     6    6    7 2
     7    6    8 1
     8    6    9 1
     9    9   10 1
    10   10   11 2
    11   10   12 1
    12   10   13 1
    13   13   14 1
    14   14   15 1
    15   14   33 1
    16   14   34 1
    17   15   16 1
    18   15   17 1
    19   15   35 1
    20   16   21 1
    21   17   18 1
    22   17   19 1
    23   17   36 1
    24   18   37 1
    25   19   20 1
    26   19   21 1
    27   19   38 1
    28   20   39 1
    29   21   22 1
    30   21   40 1
    31   22   23 ar
    32   22   32 ar
    33   23   24 ar
    34   23   41 1
    35   24   25 ar
    36   24   45 1
    37   25   26 ar
    38   25   32 ar
    39   26   27 2
    40   26   28 ar
    41   28   29 ar
    42   28   42 1
    43   29   30 1
    44   29   31 ar
    45   30   43 1
    46   30   44 1
    47   31   32 ar
@<TRIPOS>SUBSTRUCTURE
     1 GTP         1 GROUP 0 A     ****
@<TRIPOS>MOLECULE
[[[5-(2-amino-6-oxo-7,8-dihydro-1~{H}-purin-8-ylium-9-yl)-3,4-dihydroxy-tetrahydrofuran-2-yl]methoxy-oxido-phosphoryl]oxy-oxido-phosphoryl] phosphate
   45    47     1     0     0
SMALL
USER_CHARGES

@<TRIPOS>ATOM
      1 PG          5.1861   -0.6069   -7.6908 P.3       1 GTP        -1.1921
      2 O1G         5.2671   -1.9646   -8.3806 O.co2     1 GTP         0.3195
      3 O2G         4.0630    0.2909   -8.1992 O.co2     1 GTP         0.3195
      4 O3G         6.5296    0.0981   -7.5361 O.co2     1 GTP         0.3195
      5 O3B         4.7488   -0.9650   -6.1415 O.3       1 GTP         0.4672
      6 PB          5.5049   -1.8841   -5.0223 P.3       1 GTP        -1.1062
      7 O1B         5.5162   -3.3197   -5.4981 O.co2     1 GTP         0.3195
      8 O2B         6.7725   -1.1860   -4.5828 O.co2     1 GTP         0.3195
      9 O3A         4.4413   -1.7265   -3.7938 O.3       1 GTP         0.4672
     10 PA          2.8604   -2.1325   -3.7186 P.3       1 GTP        -1.1062
     11 O1A         2.0958   -1.2470   -4.6782 O.co2     1 GTP         0.3195
     12 O2A         2.7334   -3.6393   -3.7755 O.co2     1 GTP         0.3195
     13 O5'         2.5245   -1.6648   -2.1878 O.3       1 GTP         0.1618
     14 C5'         2.2816   -0.2918   -1.9206 C.3       1 GTP         0.1504
     15 C4'         2.7248    0.0226   -0.4980 C.3       1 GTP         0.1111
     16 O4'         2.4697    1.4219   -0.2462 O.3       1 GTP        -0.1436
     17 C3'         1.9404   -0.7419    0.5596 C.3       1 GTP         0.1111
     18 O3'         2.7418   -0.8086    1.7389 O.3       1 GTP        -0.2728
     19 C2'         0.7477    0.1630    0.7858 C.3       1 GTP         0.1111
     20 O2'         0.1373   -0.0577    2.0407 O.3       1 GTP        -0.2728
     21 C1'         1.3733    1.5427    0.6747 C.3       1 GTP         0.2693
     22 N9          0.4520    2.5240    0.1767 N.pl3     1 GTP        -0.3222
     23 C8          0.5671    3.2221   -0.9473 C.ar      1 GTP         0.1640
     24 N7         -0.4560    4.0508   -1.1290 N.pl3     1 GTP        -0.3688
     25 C5         -1.2671    3.8585   -0.0441 C.ar      1 GTP         0.0648
     26 C6         -2.5318    4.5014    0.2817 C.ar      1 GTP         0.3597
     27 O6         -3.0527    5.3493   -0.4293 O.2       1 GTP        -0.2755
     28 N1         -3.0357    4.0149    1.4868 N.pl3     1 GTP        -0.1604
     29 C2         -2.4069    3.0373    2.2768 C.ar      1 GTP         0.4468
     30 N2         -3.0679    2.6964    3.4278 N.pl3     1 GTP        -0.5618
     31 N3         -1.2653    2.4872    1.9379 N.2       1 GTP        -0.4283
     32 C4         -0.7342    2.9334    0.7643 C.ar      1 GTP         0.2226
     33 H5'         2.8432    0.3119   -2.6398 H         1 GTP        -0.0393
     34 H5''        1.2128   -0.0927   -2.0428 H         1 GTP        -0.0393
     35 H4'         3.8044   -0.1397   -0.4040 H         1 GTP        -0.0393
     36 H3'         1.6764   -1.7639    0.2728 H         1 GTP        -0.0393
     37 HO3'        3.5554   -1.2733    1.4914 H         1 GTP         0.2010
     38 H2'        -0.0011    0.0027    0.0003 H         1 GTP        -0.0393
     39 HO2'        0.8082    0.1199    2.7232 H         1 GTP         0.2010
     40 H1'         1.7826    1.9024    1.6451 H         1 GTP        -0.0393
     41 H8          1.3888    3.1325   -1.6361 H         1 GTP         0.0000
     42 HN1        -3.9188    4.3932    1.8170 H         1 GTP         0.0865
     43 HN21       -2.6609    2.0087    4.0186 H         1 GTP         0.2048
     44 HN22       -3.9293    3.1496    3.6283 H         1 GTP         0.2048
     45 H45        -0.5938    4.6820   -1.9060 H         1 GTP         0.2048
@<TRIPOS>BOND
     1    1    2 2
     2    1    3 1
     3    1    4 1
     4    1    5 1
     5    5    6 1
     6    6    7 2
     7    6    8 1
     8    6    9 1
     9    9   10 1
    10   10   11 2
    11   10   12 1
    12   10   13 1
    13   13   14 1
    14   14   15 1
    15   14   33 1
    16   14   34 1
    17   15   16 1
    18   15   17 1
    19   15   35 1
    20   16   21 1
    21   17   18 1
    22   17   19 1
    23   17   36 1
    24   18   37 1
    25   19   20 1
    26   19   21 1
    27   19   38 1
    28   20   39 1
    29   21   22 1
    30   21   40 1
    31   22   23 ar
    32   22   32 ar
    33   23   24 ar
    34   23   41 1
    35   24   25 ar
    36   24   45 1
    37   25   26 ar
    38   25   32 ar
    39   26   27 2
    40   26   28 ar
    41   28   29 ar
    42   28   42 1
    43   29   30 1
    44   29   31 ar
    45   30   43 1
    46   30   44 1
    47   31   32 ar
@<TRIPOS>SUBSTRUCTURE
     1 GTP         1 GROUP 0 A     ****
@<TRIPOS>MOLECULE
[[[5-(2-amino-6-oxo-7,8-dihydro-1~{H}-purin-8-ylium-9-yl)-3,4-dihydroxy-tetrahydrofuran-2-yl]methoxy-oxido-phosphoryl]oxy-oxido-phosphoryl] phosphate
   45    47     1     0     0
SMALL
USER_CHARGES

@<TRIPOS>ATOM
      1 PG          3.3302   -4.1833   -6.8635 P.3       1 GTP        -1.1921
      2 O1G         3.8444   -5.4627   -6.2120 O.co2     1 GTP         0.3195
      3 O2G         1.8347   -4.1865   -7.1619 O.co2     1 GTP         0.3195
      4 O3G         4.1962   -3.6729   -8.0105 O.co2     1 GTP         0.3195
      5 O3B         3.5077   -3.0337   -5.6945 O.3       1 GTP         0.4672
      6 PB          4.8525   -2.5198   -4.9221 P.3       1 GTP        -1.1062
      7 O1B         5.3962   -3.6550   -4.0834 O.co2     1 GTP         0.3195
      8 O2B         5.7282   -1.7682   -5.8996 O.co2     1 GTP         0.3195
      9 O3A         4.1798   -1.3965   -3.9468 O.3       1 GTP         0.4672
     10 PA          3.3347   -0.0507   -4.3265 P.3       1 GTP        -1.1062
     11 O1A         4.2665    0.9141   -5.0270 O.co2     1 GTP         0.3195
     12 O2A         2.0155   -0.4540   -4.9486 O.co2     1 GTP         0.3195
     13 O5'         3.0213    0.5153   -2.8245 O.3       1 GTP         0.1618
     14 C5'         2.2816   -0.2918   -1.9206 C.3       1 GTP         0.1504
     15 C4'         2.7248    0.0226   -0.4980 C.3       1 GTP         0.1111
     16 O4'         2.4697    1.4219   -0.2462 O.3       1 GTP        -0.1436
     17 C3'         1.9404   -0.7419    0.5596 C.3       1 GTP         0.1111
     18 O3'         2.7418   -0.8086    1.7389 O.3       1 GTP        -0.2728
     19 C2'         0.7477    0.1630    0.7858 C.3       1 GTP         0.1111
     20 O2'         0.1373   -0.0577    2.0407 O.3       1 GTP        -0.2728
     21 C1'         1.3733    1.5427    0.6747 C.3       1 GTP         0.2693
     22 N9          0.4520    2.5240    0.1767 N.pl3     1 GTP        -0.3222
     23 C8         -0.8613    2.5511    0.3730 C.ar      1 GTP         0.1640
     24 N7         -1.4346    3.5939   -0.2188 N.pl3     1 GTP        -0.3688
     25 C5         -0.4099    4.2657   -0.8276 C.ar      1 GTP         0.0648
     26 C6         -0.4554    5.4854   -1.6209 C.ar      1 GTP         0.3597
     27 O6         -1.4907    6.0944   -1.8508 O.2       1 GTP        -0.2755
     28 N1          0.8205    5.8357   -2.0593 N.pl3     1 GTP        -0.1604
     29 C2          1.9890    5.1091   -1.7730 C.ar      1 GTP         0.4468
     30 N2          3.1452    5.6230   -2.2997 N.pl3     1 GTP        -0.5618
     31 N3          1.9765    4.0139   -1.0514 N.2       1 GTP        -0.4283
     32 C4          0.7480    3.6324   -0.6003 C.ar      1 GTP         0.2226
     33 H5'         1.2163   -0.0770   -2.0471 H         1 GTP        -0.0393
     34 H5''        2.4655   -1.3443   -2.1563 H         1 GTP        -0.0393
     35 H4'         3.8044   -0.1397   -0.4040 H         1 GTP        -0.0393
     36 H3'         1.6764   -1.7639    0.2728 H         1 GTP        -0.0393
     37 HO3'        2.2232   -1.2979    2.3953 H         1 GTP         0.2010
     38 H2'        -0.0011    0.0027    0.0003 H         1 GTP        -0.0393
     39 HO2'       -0.1563   -0.9855    2.0596 H         1 GTP         0.2010
     40 H1'         1.7826    1.9024    1.6451 H         1 GTP        -0.0393
     41 H8         -1.4050    1.8187    0.9438 H         1 GTP         0.0000
     42 HN1         0.9121    6.6744   -2.6251 H         1 GTP         0.0865
     43 HN21        3.9971    5.1427   -2.1235 H         1 GTP         0.2048
     44 HN22        3.0881    6.4564   -2.8380 H         1 GTP         0.2048
     45 H45        -2.4173    3.8294   -0.2127 H         1 GTP         0.2048
@<TRIPOS>BOND
     1    1    2 2
     2    1    3 1
     3    1    4 1
     4    1    5 1
     5    5    6 1
     6    6    7 2
     7    6    8 1
     8    6    9 1
     9    9   10 1
    10   10   11 2
    11   10   12 1
    12   10   13 1
    13   13   14 1
    14   14   15 1
    15   14   33 1
    16   14   34 1
    17   15   16 1
    18   15   17 1
    19   15   35 1
    20   16   21 1
    21   17   18 1
    22   17   19 1
    23   17   36 1
    24   18   37 1
    25   19   20 1
    26   19   21 1
    27   19   38 1
    28   20   39 1
    29   21   22 1
    30   21   40 1
    31   22   23 ar
    32   22   32 ar
    33   23   24 ar
    34   23   41 1
    35   24   25 ar
    36   24   45 1
    37   25   26 ar
    38   25   32 ar
    39   26   27 2
    40   26   28 ar
    41   28   29 ar
    42   28   42 1
    43   29   30 1
    44   29   31 ar
    45   30   43 1
    46   30   44 1
    47   31   32 ar
@<TRIPOS>SUBSTRUCTURE
     1 GTP         1 GROUP 0 A     ****
@<TRIPOS>MOLECULE
[[[5-(2-amino-6-oxo-7,8-dihydro-1~{H}-purin-8-ylium-9-yl)-3,4-dihydroxy-tetrahydrofuran-2-yl]methoxy-oxido-phosphoryl]oxy-oxido-phosphoryl] phosphate
   45    47     1     0     0
SMALL
USER_CHARGES

@<TRIPOS>ATOM
      1 PG         -5.0201   -4.7396    5.1259 P.3       1 GTP        -1.1921
      2 O1G        -5.7832   -6.0368    5.3721 O.co2     1 GTP         0.3195
      3 O2G        -5.6700   -3.5020    5.7356 O.co2     1 GTP         0.3195
      4 O3G        -4.5477   -4.5543    3.6876 O.co2     1 GTP         0.3195
      5 O3B        -3.6209   -4.9245    5.9791 O.3       1 GTP         0.4672
      6 PB         -2.4486   -6.0541    5.8424 P.3       1 GTP        -1.1062
      7 O1B        -1.7222   -6.1644    7.1645 O.co2     1 GTP         0.3195
      8 O2B        -3.0134   -7.2719    5.1457 O.co2     1 GTP         0.3195
      9 O3A        -1.4890   -5.3039    4.7554 O.3       1 GTP         0.4672
     10 PA         -0.7207   -3.8652    4.8536 P.3       1 GTP        -1.1062
     11 O1A        -1.7646   -2.7705    4.8957 O.co2     1 GTP         0.3195
     12 O2A         0.3621   -3.9535    5.9070 O.co2     1 GTP         0.3195
     13 O5'         0.0118   -3.8395    3.3916 O.3       1 GTP         0.1618
     14 C5'        -0.7840   -3.8935    2.2172 C.3       1 GTP         0.1504
     15 C4'        -0.0724   -3.1466    1.1027 C.3       1 GTP         0.1111
     16 O4'        -0.8674   -3.1929   -0.0945 O.3       1 GTP        -0.1436
     17 C3'         0.1338   -1.6715    1.4027 C.3       1 GTP         0.1111
     18 O3'         1.2893   -1.4445    2.1808 O.3       1 GTP        -0.2728
     19 C2'         0.2158   -1.0724    0.0128 C.3       1 GTP         0.1111
     20 O2'         1.5141   -1.2448   -0.5513 O.3       1 GTP        -0.2728
     21 C1'        -0.7897   -1.9176   -0.7583 C.3       1 GTP         0.2693
     22 N9         -2.1040   -1.3333   -0.7704 N.pl3     1 GTP        -0.3222
     23 C8         -3.0597   -1.5109    0.1345 C.ar      1 GTP         0.1640
     24 N7         -4.1618   -0.8291   -0.1607 N.pl3     1 GTP        -0.3688
     25 C5         -3.8764   -0.1805   -1.3310 C.ar      1 GTP         0.0648
     26 C6         -4.7187    0.7111   -2.1152 C.ar      1 GTP         0.3597
     27 O6         -5.8617    1.0043   -1.7939 O.2       1 GTP        -0.2755
     28 N1         -4.0405    1.1608   -3.2468 N.pl3     1 GTP        -0.1604
     29 C2         -2.7239    0.8013   -3.5822 C.ar      1 GTP         0.4468
     30 N2         -2.2399    1.3534   -4.7394 N.pl3     1 GTP        -0.5618
     31 N3         -2.0053   -0.0071   -2.8402 N.2       1 GTP        -0.4283
     32 C4         -2.6290   -0.4727   -1.7210 C.ar      1 GTP         0.2226
     33 H5'        -0.9348   -4.9415    1.9415 H         1 GTP        -0.0393
     34 H5''       -1.7548   -3.4350    2.4278 H         1 GTP        -0.0393
     35 H4'         0.8874   -3.6466    0.8805 H         1 GTP        -0.0393
     36 H3'        -0.7376   -1.2333    1.9867 H         1 GTP        -0.0393
     37 HO3'        1.1626   -1.9325    3.0084 H         1 GTP         0.2010
     38 H2'        -0.0384   -0.0310    0.0096 H         1 GTP        -0.0393
     39 HO2'        1.4998   -0.8412   -1.4369 H         1 GTP         0.2010
     40 H1'        -0.4769   -2.1002   -1.8093 H         1 GTP        -0.0393
     41 H8         -2.9610   -2.1316    1.0079 H         1 GTP         0.0000
     42 HN1        -4.5320    1.7923   -3.8726 H         1 GTP         0.0865
     43 HN21       -1.3128    1.1277   -5.0171 H         1 GTP         0.2048
     44 HN22       -2.8342    1.9586   -5.2572 H         1 GTP         0.2048
     45 H45        -5.0195   -0.8034    0.3729 H         1 GTP         0.2048
@<TRIPOS>BOND
     1    1    2 2
     2    1    3 1
     3    1    4 1
     4    1    5 1
     5    5    6 1
     6    6    7 2
     7    6    8 1
     8    6    9 1
     9    9   10 1
    10   10   11 2
    11   10   12 1
    12   10   13 1
    13   13   14 1
    14   14   15 1
    15   14   33 1
    16   14   34 1
    17   15   16 1
    18   15   17 1
    19   15   35 1
    20   16   21 1
    21   17   18 1
    22   17   19 1
    23   17   36 1
    24   18   37 1
    25   19   20 1
    26   19   21 1
    27   19   38 1
    28   20   39 1
    29   21   22 1
    30   21   40 1
    31   22   23 ar
    32   22   32 ar
    33   23   24 ar
    34   23   41 1
    35   24   25 ar
    36   24   45 1
    37   25   26 ar
    38   25   32 ar
    39   26   27 2
    40   26   28 ar
    41   28   29 ar
    42   28   42 1
    43   29   30 1
    44   29   31 ar
    45   30   43 1
    46   30   44 1
    47   31   32 ar
@<TRIPOS>SUBSTRUCTURE
     1 GTP         1 GROUP 0 A     ****
@<TRIPOS>MOLECULE
[[[5-(2-amino-6-oxo-7,8-dihydro-1~{H}-purin-8-ylium-9-yl)-3,4-dihydroxy-tetrahydrofuran-2-yl]methoxy-oxido-phosphoryl]oxy-oxido-phosphoryl] phosphate
   45    47     1     0     0
SMALL
USER_CHARGES

@<TRIPOS>ATOM
      1 PG         -0.4146    0.6013   -5.7749 P.3       1 GTP        -1.1921
      2 O1G         0.7099    0.8917   -4.7865 O.co2     1 GTP         0.3195
      3 O2G        -0.1949    1.1843   -7.1668 O.co2     1 GTP         0.3195
      4 O3G        -1.8149    0.8288   -5.2148 O.co2     1 GTP         0.3195
      5 O3B        -0.3422   -1.0304   -6.0030 O.3       1 GTP         0.4672
      6 PB         -0.4961   -2.2495   -4.9262 P.3       1 GTP        -1.1062
      7 O1B        -1.8027   -2.0810   -4.1834 O.co2     1 GTP         0.3195
      8 O2B        -0.1309   -3.5536   -5.5995 O.co2     1 GTP         0.3195
      9 O3A         0.7459   -1.8788   -3.9335 O.3       1 GTP         0.4672
     10 PA          1.2687   -2.6351   -2.5828 P.3       1 GTP        -1.1062
     11 O1A         0.1988   -2.5052   -1.5207 O.co2     1 GTP         0.3195
     12 O2A         1.8350   -3.9866   -2.9603 O.co2     1 GTP         0.3195
     13 O5'         2.5245   -1.6648   -2.1878 O.3       1 GTP         0.1618
     14 C5'         2.2816   -0.2918   -1.9206 C.3       1 GTP         0.1504
     15 C4'         2.7248    0.0226   -0.4980 C.3       1 GTP         0.1111
     16 O4'         2.4697    1.4219   -0.2462 O.3       1 GTP        -0.1436
     17 C3'         1.9404   -0.7419    0.5596 C.3       1 GTP         0.1111
     18 O3'         2.7418   -0.8086    1.7389 O.3       1 GTP        -0.2728
     19 C2'         0.7477    0.1630    0.7858 C.3       1 GTP         0.1111
     20 O2'         0.1373   -0.0577    2.0407 O.3       1 GTP        -0.2728
     21 C1'         1.3733    1.5427    0.6747 C.3       1 GTP         0.2693
     22 N9          0.4520    2.5240    0.1767 N.pl3     1 GTP        -0.3222
     23 C8          0.5671    3.2221   -0.9473 C.ar      1 GTP         0.1640
     24 N7         -0.4560    4.0508   -1.1290 N.pl3     1 GTP        -0.3688
     25 C5         -1.2671    3.8585   -0.0441 C.ar      1 GTP         0.0648
     26 C6         -2.5318    4.5014    0.2817 C.ar      1 GTP         0.3597
     27 O6         -3.0527    5.3493   -0.4293 O.2       1 GTP        -0.2755
     28 N1         -3.0357    4.0149    1.4868 N.pl3     1 GTP        -0.1604
     29 C2         -2.4069    3.0373    2.2768 C.ar      1 GTP         0.4468
     30 N2         -3.0679    2.6964    3.4278 N.pl3     1 GTP        -0.5618
     31 N3         -1.2653    2.4872    1.9379 N.2       1 GTP        -0.4283
     32 C4         -0.7342    2.9334    0.7643 C.ar      1 GTP         0.2226
     33 H5'         2.8432    0.3119   -2.6398 H         1 GTP        -0.0393
     34 H5''        1.2128   -0.0927   -2.0428 H         1 GTP        -0.0393
     35 H4'         3.8044   -0.1397   -0.4040 H         1 GTP        -0.0393
     36 H3'         1.6764   -1.7639    0.2728 H         1 GTP        -0.0393
     37 HO3'        3.5554   -1.2733    1.4914 H         1 GTP         0.2010
     38 H2'        -0.0011    0.0027    0.0003 H         1 GTP        -0.0393
     39 HO2'       -0.1563   -0.9855    2.0596 H         1 GTP         0.2010
     40 H1'         1.7826    1.9024    1.6451 H         1 GTP        -0.0393
     41 H8          1.3888    3.1325   -1.6361 H         1 GTP         0.0000
     42 HN1        -3.9188    4.3932    1.8170 H         1 GTP         0.0865
     43 HN21       -2.6609    2.0087    4.0186 H         1 GTP         0.2048
     44 HN22       -3.9293    3.1496    3.6283 H         1 GTP         0.2048
     45 H45        -0.5938    4.6820   -1.9060 H         1 GTP         0.2048
@<TRIPOS>BOND
     1    1    2 2
     2    1    3 1
     3    1    4 1
     4    1    5 1
     5    5    6 1
     6    6    7 2
     7    6    8 1
     8    6    9 1
     9    9   10 1
    10   10   11 2
    11   10   12 1
    12   10   13 1
    13   13   14 1
    14   14   15 1
    15   14   33 1
    16   14   34 1
    17   15   16 1
    18   15   17 1
    19   15   35 1
    20   16   21 1
    21   17   18 1
    22   17   19 1
    23   17   36 1
    24   18   37 1
    25   19   20 1
    26   19   21 1
    27   19   38 1
    28   20   39 1
    29   21   22 1
    30   21   40 1
    31   22   23 ar
    32   22   32 ar
    33   23   24 ar
    34   23   41 1
    35   24   25 ar
    36   24   45 1
    37   25   26 ar
    38   25   32 ar
    39   26   27 2
    40   26   28 ar
    41   28   29 ar
    42   28   42 1
    43   29   30 1
    44   29   31 ar
    45   30   43 1
    46   30   44 1
    47   31   32 ar
@<TRIPOS>SUBSTRUCTURE
     1 GTP         1 GROUP 0 A     ****
@<TRIPOS>MOLECULE
[[[5-(2-amino-6-oxo-7,8-dihydro-1~{H}-purin-8-ylium-9-yl)-3,4-dihydroxy-tetrahydrofuran-2-yl]methoxy-oxido-phosphoryl]oxy-oxido-phosphoryl] phosphate
   45    47     1     0     0
SMALL
USER_CHARGES

@<TRIPOS>ATOM
      1 PG          1.3785   -3.8078   -5.5816 P.3       1 GTP        -1.1921
      2 O1G         0.0969   -2.9913   -5.4518 O.co2     1 GTP         0.3195
      3 O2G         1.2851   -4.9739   -6.5598 O.co2     1 GTP         0.3195
      4 O3G         2.0350   -4.1585   -4.2504 O.co2     1 GTP         0.3195
      5 O3B         2.4494   -2.7713   -6.2877 O.3       1 GTP         0.4672
      6 PB          3.0047   -1.3233   -5.7737 P.3       1 GTP        -1.1062
      7 O1B         4.0788   -0.8477   -6.7263 O.co2     1 GTP         0.3195
      8 O2B         1.8299   -0.4456   -5.4035 O.co2     1 GTP         0.3195
      9 O3A         3.6919   -1.7915   -4.3687 O.3       1 GTP         0.4672
     10 PA          4.4792   -0.9077   -3.2423 P.3       1 GTP        -1.1062
     11 O1A         4.7811   -1.8033   -2.0606 O.co2     1 GTP         0.3195
     12 O2A         5.5730   -0.1082   -3.9165 O.co2     1 GTP         0.3195
     13 O5'         3.2903    0.1346   -2.8241 O.3       1 GTP         0.1618
     14 C5'         2.2816   -0.2918   -1.9206 C.3       1 GTP         0.1504
     15 C4'         2.7248    0.0226   -0.4980 C.3       1 GTP         0.1111
     16 O4'         2.4697    1.4219   -0.2462 O.3       1 GTP        -0.1436
     17 C3'         1.9404   -0.7419    0.5596 C.3       1 GTP         0.1111
     18 O3'         2.7418   -0.8086    1.7389 O.3       1 GTP        -0.2728
     19 C2'         0.7477    0.1630    0.7858 C.3       1 GTP         0.1111
     20 O2'         0.1373   -0.0577    2.0407 O.3       1 GTP        -0.2728
     21 C1'         1.3733    1.5427    0.6747 C.3       1 GTP         0.2693
     22 N9          0.4520    2.5240    0.1767 N.pl3     1 GTP        -0.3222
     23 C8         -0.2009    2.4849   -0.9792 C.ar      1 GTP         0.1640
     24 N7         -0.9840    3.5454   -1.1481 N.pl3     1 GTP        -0.3688
     25 C5         -0.8090    4.3005   -0.0206 C.ar      1 GTP         0.0648
     26 C6         -1.4206    5.5724    0.3362 C.ar      1 GTP         0.3597
     27 O6         -2.2199    6.1544   -0.3836 O.2       1 GTP        -0.2755
     28 N1         -0.9680    6.0043    1.5817 N.pl3     1 GTP        -0.1604
     29 C2         -0.0474    5.3055    2.3814 C.ar      1 GTP         0.4468
     30 N2          0.2680    5.9024    3.5740 N.pl3     1 GTP        -0.5618
     31 N3          0.4755    4.1601    2.0138 N.2       1 GTP        -0.4283
     32 C4          0.0611    3.6981    0.8001 C.ar      1 GTP         0.2226
     33 H5'         1.3514    0.2330   -2.1577 H         1 GTP        -0.0393
     34 H5''        2.1280   -1.3678   -2.0460 H         1 GTP        -0.0393
     35 H4'         3.8044   -0.1397   -0.4040 H         1 GTP        -0.0393
     36 H3'         1.6764   -1.7639    0.2728 H         1 GTP        -0.0393
     37 HO3'        3.5554   -1.2733    1.4914 H         1 GTP         0.2010
     38 H2'        -0.0011    0.0027    0.0003 H         1 GTP        -0.0393
     39 HO2'       -0.1563   -0.9855    2.0596 H         1 GTP         0.2010
     40 H1'         1.7826    1.9024    1.6451 H         1 GTP        -0.0393
     41 H8         -0.1126    1.6906   -1.6997 H         1 GTP         0.0000
     42 HN1        -1.3285    6.8855    1.9361 H         1 GTP         0.0865
     43 HN21        0.9153    5.4446    4.1732 H         1 GTP         0.2048
     44 HN22       -0.1624    6.7706    3.7948 H         1 GTP         0.2048
     45 H45        -1.5768    3.7405   -1.9429 H         1 GTP         0.2048
@<TRIPOS>BOND
     1    1    2 2
     2    1    3 1
     3    1    4 1
     4    1    5 1
     5    5    6 1
     6    6    7 2
     7    6    8 1
     8    6    9 1
     9    9   10 1
    10   10   11 2
    11   10   12 1
    12   10   13 1
    13   13   14 1
    14   14   15 1
    15   14   33 1
    16   14   34 1
    17   15   16 1
    18   15   17 1
    19   15   35 1
    20   16   21 1
    21   17   18 1
    22   17   19 1
    23   17   36 1
    24   18   37 1
    25   19   20 1
    26   19   21 1
    27   19   38 1
    28   20   39 1
    29   21   22 1
    30   21   40 1
    31   22   23 ar
    32   22   32 ar
    33   23   24 ar
    34   23   41 1
    35   24   25 ar
    36   24   45 1
    37   25   26 ar
    38   25   32 ar
    39   26   27 2
    40   26   28 ar
    41   28   29 ar
    42   28   42 1
    43   29   30 1
    44   29   31 ar
    45   30   43 1
    46   30   44 1
    47   31   32 ar
@<TRIPOS>SUBSTRUCTURE
     1 GTP         1 GROUP 0 A     ****
@<TRIPOS>MOLECULE
[[[5-(2-amino-6-oxo-7,8-dihydro-1~{H}-purin-8-ylium-9-yl)-3,4-dihydroxy-tetrahydrofuran-2-yl]methoxy-oxido-phosphoryl]oxy-oxido-phosphoryl] phosphate
   45    47     1     0     0
SMALL
USER_CHARGES

@<TRIPOS>ATOM
      1 PG          8.6768   -0.9805   -2.5975 P.3       1 GTP        -1.1921
      2 O1G         9.1983   -2.2749   -3.2127 O.co2     1 GTP         0.3195
      3 O2G         8.6048    0.1932   -3.5684 O.co2     1 GTP         0.3195
      4 O3G         9.2927   -0.6374   -1.2451 O.co2     1 GTP         0.3195
      5 O3B         7.1004   -1.3082   -2.2402 O.3       1 GTP         0.4672
      6 PB          6.4604   -2.4473   -1.2595 P.3       1 GTP        -1.1062
      7 O1B         6.7571   -3.8121   -1.8400 O.co2     1 GTP         0.3195
      8 O2B         6.7935   -2.1085    0.1762 O.co2     1 GTP         0.3195
      9 O3A         4.8769   -2.1037   -1.4595 O.3       1 GTP         0.4672
     10 PA          3.9665   -2.1124   -2.8163 P.3       1 GTP        -1.1062
     11 O1A         4.4633   -1.0128   -3.7294 O.co2     1 GTP         0.3195
     12 O2A         3.8288   -3.5360   -3.3105 O.co2     1 GTP         0.3195
     13 O5'         2.5245   -1.6648   -2.1878 O.3       1 GTP         0.1618
     14 C5'         2.2816   -0.2918   -1.9206 C.3       1 GTP         0.1504
     15 C4'         2.7248    0.0226   -0.4980 C.3       1 GTP         0.1111
     16 O4'         2.4697    1.4219   -0.2462 O.3       1 GTP        -0.1436
     17 C3'         1.9404   -0.7419    0.5596 C.3       1 GTP         0.1111
     18 O3'         2.7418   -0.8086    1.7389 O.3       1 GTP        -0.2728
     19 C2'         0.7477    0.1630    0.7858 C.3       1 GTP         0.1111
     20 O2'         0.1373   -0.0577    2.0407 O.3       1 GTP        -0.2728
     21 C1'         1.3733    1.5427    0.6747 C.3       1 GTP         0.2693
     22 N9          0.4520    2.5240    0.1767 N.pl3     1 GTP        -0.3222
     23 C8         -0.2009    2.4849   -0.9792 C.ar      1 GTP         0.1640
     24 N7         -0.9840    3.5454   -1.1481 N.pl3     1 GTP        -0.3688
     25 C5         -0.8090    4.3005   -0.0206 C.ar      1 GTP         0.0648
     26 C6         -1.4206    5.5724    0.3362 C.ar      1 GTP         0.3597
     27 O6         -2.2199    6.1544   -0.3836 O.2       1 GTP        -0.2755
     28 N1         -0.9680    6.0043    1.5817 N.pl3     1 GTP        -0.1604
     29 C2         -0.0474    5.3055    2.3814 C.ar      1 GTP         0.4468
     30 N2          0.2680    5.9024    3.5740 N.pl3     1 GTP        -0.5618
     31 N3          0.4755    4.1601    2.0138 N.2       1 GTP        -0.4283
     32 C4          0.0611    3.6981    0.8001 C.ar      1 GTP         0.2226
     33 H5'         2.8432    0.3119   -2.6398 H         1 GTP        -0.0393
     34 H5''        1.2128   -0.0927   -2.0428 H         1 GTP        -0.0393
     35 H4'         3.8044   -0.1397   -0.4040 H         1 GTP        -0.0393
     36 H3'         1.6764   -1.7639    0.2728 H         1 GTP        -0.0393
     37 HO3'        2.2232   -1.2979    2.3953 H         1 GTP         0.2010
     38 H2'        -0.0011    0.0027    0.0003 H         1 GTP        -0.0393
     39 HO2'       -0.6141    0.5574    2.1082 H         1 GTP         0.2010
     40 H1'         1.7826    1.9024    1.6451 H         1 GTP        -0.0393
     41 H8         -0.1126    1.6906   -1.6997 H         1 GTP         0.0000
     42 HN1        -1.3285    6.8855    1.9361 H         1 GTP         0.0865
     43 HN21        0.9153    5.4446    4.1732 H         1 GTP         0.2048
     44 HN22       -0.1624    6.7706    3.7948 H         1 GTP         0.2048
     45 H45        -1.5768    3.7405   -1.9429 H         1 GTP         0.2048
@<TRIPOS>BOND
     1    1    2 2
     2    1    3 1
     3    1    4 1
     4    1    5 1
     5    5    6 1
     6    6    7 2
     7    6    8 1
     8    6    9 1
     9    9   10 1
    10   10   11 2
    11   10   12 1
    12   10   13 1
    13   13   14 1
    14   14   15 1
    15   14   33 1
    16   14   34 1
    17   15   16 1
    18   15   17 1
    19   15   35 1
    20   16   21 1
    21   17   18 1
    22   17   19 1
    23   17   36 1
    24   18   37 1
    25   19   20 1
    26   19   21 1
    27   19   38 1
    28   20   39 1
    29   21   22 1
    30   21   40 1
    31   22   23 ar
    32   22   32 ar
    33   23   24 ar
    34   23   41 1
    35   24   25 ar
    36   24   45 1
    37   25   26 ar
    38   25   32 ar
    39   26   27 2
    40   26   28 ar
    41   28   29 ar
    42   28   42 1
    43   29   30 1
    44   29   31 ar
    45   30   43 1
    46   30   44 1
    47   31   32 ar
@<TRIPOS>SUBSTRUCTURE
     1 GTP         1 GROUP 0 A     ****
@<TRIPOS>MOLECULE
[[[5-(2-amino-6-oxo-7,8-dihydro-1~{H}-purin-8-ylium-9-yl)-3,4-dihydroxy-tetrahydrofuran-2-yl]methoxy-oxido-phosphoryl]oxy-oxido-phosphoryl] phosphate
   45    47     1     0     0
SMALL
USER_CHARGES

@<TRIPOS>ATOM
      1 PG          4.8904   -3.3853   -6.6354 P.3       1 GTP        -1.1921
      2 O1G         6.0994   -2.9309   -5.8244 O.co2     1 GTP         0.3195
      3 O2G         4.6797   -4.8955   -6.6581 O.co2     1 GTP         0.3195
      4 O3G         4.7636   -2.7150   -7.9995 O.co2     1 GTP         0.3195
      5 O3B         3.5963   -2.8083   -5.7914 O.3       1 GTP         0.4672
      6 PB          3.1992   -1.2734   -5.3970 P.3       1 GTP        -1.1062
      7 O1B         4.2397   -0.7313   -4.4425 O.co2     1 GTP         0.3195
      8 O2B         2.8099   -0.5246   -6.6520 O.co2     1 GTP         0.3195
      9 O3A         1.8135   -1.5634   -4.5838 O.3       1 GTP         0.4672
     10 PA          1.5549   -2.4565   -3.2403 P.3       1 GTP        -1.1062
     11 O1A         0.1153   -2.2683   -2.8139 O.co2     1 GTP         0.3195
     12 O2A         2.1346   -3.8391   -3.4462 O.co2     1 GTP         0.3195
     13 O5'         2.5245   -1.6648   -2.1878 O.3       1 GTP         0.1618
     14 C5'         2.2816   -0.2918   -1.9206 C.3       1 GTP         0.1504
     15 C4'         2.7248    0.0226   -0.4980 C.3       1 GTP         0.1111
     16 O4'         2.4697    1.4219   -0.2462 O.3       1 GTP        -0.1436
     17 C3'         1.9404   -0.7419    0.5596 C.3       1 GTP         0.1111
     18 O3'         2.7418   -0.8086    1.7389 O.3       1 GTP        -0.2728
     19 C2'         0.7477    0.1630    0.7858 C.3       1 GTP         0.1111
     20 O2'         0.1373   -0.0577    2.0407 O.3       1 GTP        -0.2728
     21 C1'         1.3733    1.5427    0.6747 C.3       1 GTP         0.2693
     22 N9          0.4520    2.5240    0.1767 N.pl3     1 GTP        -0.3222
     23 C8          0.5671    3.2221   -0.9473 C.ar      1 GTP         0.1640
     24 N7         -0.4560    4.0508   -1.1290 N.pl3     1 GTP        -0.3688
     25 C5         -1.2671    3.8585   -0.0441 C.ar      1 GTP         0.0648
     26 C6         -2.5318    4.5014    0.2817 C.ar      1 GTP         0.3597
     27 O6         -3.0527    5.3493   -0.4293 O.2       1 GTP        -0.2755
     28 N1         -3.0357    4.0149    1.4868 N.pl3     1 GTP        -0.1604
     29 C2         -2.4069    3.0373    2.2768 C.ar      1 GTP         0.4468
     30 N2         -3.0679    2.6964    3.4278 N.pl3     1 GTP        -0.5618
     31 N3         -1.2653    2.4872    1.9379 N.2       1 GTP        -0.4283
     32 C4         -0.7342    2.9334    0.7643 C.ar      1 GTP         0.2226
     33 H5'         2.8432    0.3119   -2.6398 H         1 GTP        -0.0393
     34 H5''        1.2128   -0.0927   -2.0428 H         1 GTP        -0.0393
     35 H4'         3.8044   -0.1397   -0.4040 H         1 GTP        -0.0393
     36 H3'         1.6764   -1.7639    0.2728 H         1 GTP        -0.0393
     37 HO3'        3.5554   -1.2733    1.4914 H         1 GTP         0.2010
     38 H2'        -0.0011    0.0027    0.0003 H         1 GTP        -0.0393
     39 HO2'       -0.1563   -0.9855    2.0596 H         1 GTP         0.2010
     40 H1'         1.7826    1.9024    1.6451 H         1 GTP        -0.0393
     41 H8          1.3888    3.1325   -1.6361 H         1 GTP         0.0000
     42 HN1        -3.9188    4.3932    1.8170 H         1 GTP         0.0865
     43 HN21       -2.6609    2.0087    4.0186 H         1 GTP         0.2048
     44 HN22       -3.9293    3.1496    3.6283 H         1 GTP         0.2048
     45 H45        -0.5938    4.6820   -1.9060 H         1 GTP         0.2048
@<TRIPOS>BOND
     1    1    2 2
     2    1    3 1
     3    1    4 1
     4    1    5 1
     5    5    6 1
     6    6    7 2
     7    6    8 1
     8    6    9 1
     9    9   10 1
    10   10   11 2
    11   10   12 1
    12   10   13 1
    13   13   14 1
    14   14   15 1
    15   14   33 1
    16   14   34 1
    17   15   16 1
    18   15   17 1
    19   15   35 1
    20   16   21 1
    21   17   18 1
    22   17   19 1
    23   17   36 1
    24   18   37 1
    25   19   20 1
    26   19   21 1
    27   19   38 1
    28   20   39 1
    29   21   22 1
    30   21   40 1
    31   22   23 ar
    32   22   32 ar
    33   23   24 ar
    34   23   41 1
    35   24   25 ar
    36   24   45 1
    37   25   26 ar
    38   25   32 ar
    39   26   27 2
    40   26   28 ar
    41   28   29 ar
    42   28   42 1
    43   29   30 1
    44   29   31 ar
    45   30   43 1
    46   30   44 1
    47   31   32 ar
@<TRIPOS>SUBSTRUCTURE
     1 GTP         1 GROUP 0 A     ****
@<TRIPOS>MOLECULE
[[[5-(2-amino-6-oxo-7,8-dihydro-1~{H}-purin-8-ylium-9-yl)-3,4-dihydroxy-tetrahydrofuran-2-yl]methoxy-oxido-phosphoryl]oxy-oxido-phosphoryl] phosphate
   45    47     1     0     0
SMALL
USER_CHARGES

@<TRIPOS>ATOM
      1 PG          5.9382    5.6692   -3.7421 P.3       1 GTP        -1.1921
      2 O1G         6.7713    6.1089   -2.5428 O.co2     1 GTP         0.3195
      3 O2G         6.7581    5.2144   -4.9448 O.co2     1 GTP         0.3195
      4 O3G         4.7909    6.6129   -4.0873 O.co2     1 GTP         0.3195
      5 O3B         5.1792    4.2985   -3.2274 O.3       1 GTP         0.4672
      6 PB          4.1477    4.0739   -1.9805 P.3       1 GTP        -1.1062
      7 O1B         4.8898    4.3157   -0.6850 O.co2     1 GTP         0.3195
      8 O2B         2.8416    4.7722   -2.2866 O.co2     1 GTP         0.3195
      9 O3A         3.8689    2.4750   -2.1576 O.3       1 GTP         0.4672
     10 PA          3.2351    1.6560   -3.4214 P.3       1 GTP        -1.1062
     11 O1A         1.7871    2.0671   -3.5765 O.co2     1 GTP         0.3195
     12 O2A         4.1965    1.7253   -4.5880 O.co2     1 GTP         0.3195
     13 O5'         3.2903    0.1346   -2.8241 O.3       1 GTP         0.1618
     14 C5'         2.2816   -0.2918   -1.9206 C.3       1 GTP         0.1504
     15 C4'         2.7248    0.0226   -0.4980 C.3       1 GTP         0.1111
     16 O4'         2.4697    1.4219   -0.2462 O.3       1 GTP        -0.1436
     17 C3'         1.9404   -0.7419    0.5596 C.3       1 GTP         0.1111
     18 O3'         2.7418   -0.8086    1.7389 O.3       1 GTP        -0.2728
     19 C2'         0.7477    0.1630    0.7858 C.3       1 GTP         0.1111
     20 O2'         0.1373   -0.0577    2.0407 O.3       1 GTP        -0.2728
     21 C1'         1.3733    1.5427    0.6747 C.3       1 GTP         0.2693
     22 N9          0.4520    2.5240    0.1767 N.pl3     1 GTP        -0.3222
     23 C8         -0.2009    2.4849   -0.9792 C.ar      1 GTP         0.1640
     24 N7         -0.9840    3.5454   -1.1481 N.pl3     1 GTP        -0.3688
     25 C5         -0.8090    4.3005   -0.0206 C.ar      1 GTP         0.0648
     26 C6         -1.4206    5.5724    0.3362 C.ar      1 GTP         0.3597
     27 O6         -2.2199    6.1544   -0.3836 O.2       1 GTP        -0.2755
     28 N1         -0.9680    6.0043    1.5817 N.pl3     1 GTP        -0.1604
     29 C2         -0.0474    5.3055    2.3814 C.ar      1 GTP         0.4468
     30 N2          0.2680    5.9024    3.5740 N.pl3     1 GTP        -0.5618
     31 N3          0.4755    4.1601    2.0138 N.2       1 GTP        -0.4283
     32 C4          0.0611    3.6981    0.8001 C.ar      1 GTP         0.2226
     33 H5'         1.3514    0.2330   -2.1577 H         1 GTP        -0.0393
     34 H5''        2.1280   -1.3678   -2.0460 H         1 GTP        -0.0393
     35 H4'         3.8044   -0.1397   -0.4040 H         1 GTP        -0.0393
     36 H3'         1.6764   -1.7639    0.2728 H         1 GTP        -0.0393
     37 HO3'        3.5554   -1.2733    1.4914 H         1 GTP         0.2010
     38 H2'        -0.0011    0.0027    0.0003 H         1 GTP        -0.0393
     39 HO2'       -0.1563   -0.9855    2.0596 H         1 GTP         0.2010
     40 H1'         1.7826    1.9024    1.6451 H         1 GTP        -0.0393
     41 H8         -0.1126    1.6906   -1.6997 H         1 GTP         0.0000
     42 HN1        -1.3285    6.8855    1.9361 H         1 GTP         0.0865
     43 HN21        0.9153    5.4446    4.1732 H         1 GTP         0.2048
     44 HN22       -0.1624    6.7706    3.7948 H         1 GTP         0.2048
     45 H45        -1.5768    3.7405   -1.9429 H         1 GTP         0.2048
@<TRIPOS>BOND
     1    1    2 2
     2    1    3 1
     3    1    4 1
     4    1    5 1
     5    5    6 1
     6    6    7 2
     7    6    8 1
     8    6    9 1
     9    9   10 1
    10   10   11 2
    11   10   12 1
    12   10   13 1
    13   13   14 1
    14   14   15 1
    15   14   33 1
    16   14   34 1
    17   15   16 1
    18   15   17 1
    19   15   35 1
    20   16   21 1
    21   17   18 1
    22   17   19 1
    23   17   36 1
    24   18   37 1
    25   19   20 1
    26   19   21 1
    27   19   38 1
    28   20   39 1
    29   21   22 1
    30   21   40 1
    31   22   23 ar
    32   22   32 ar
    33   23   24 ar
    34   23   41 1
    35   24   25 ar
    36   24   45 1
    37   25   26 ar
    38   25   32 ar
    39   26   27 2
    40   26   28 ar
    41   28   29 ar
    42   28   42 1
    43   29   30 1
    44   29   31 ar
    45   30   43 1
    46   30   44 1
    47   31   32 ar
@<TRIPOS>SUBSTRUCTURE
     1 GTP         1 GROUP 0 A     ****
@<TRIPOS>MOLECULE
[[[5-(2-amino-6-oxo-7,8-dihydro-1~{H}-purin-8-ylium-9-yl)-3,4-dihydroxy-tetrahydrofuran-2-yl]methoxy-oxido-phosphoryl]oxy-oxido-phosphoryl] phosphate
   45    47     1     0     0
SMALL
USER_CHARGES

@<TRIPOS>ATOM
      1 PG         -2.6687   -0.8735   -3.4295 P.3       1 GTP        -1.1921
      2 O1G        -3.3397   -0.4556   -4.7337 O.co2     1 GTP         0.3195
      3 O2G        -3.6238   -1.4394   -2.3840 O.co2     1 GTP         0.3195
      4 O3G        -1.6741    0.1452   -2.8826 O.co2     1 GTP         0.3195
      5 O3B        -1.7244   -2.1575   -3.8530 O.3       1 GTP         0.4672
      6 PB         -0.4961   -2.2495   -4.9262 P.3       1 GTP        -1.1062
      7 O1B        -0.3605   -3.6829   -5.3895 O.co2     1 GTP         0.3195
      8 O2B        -0.6123   -1.1073   -5.9107 O.co2     1 GTP         0.3195
      9 O3A         0.7459   -1.8788   -3.9335 O.3       1 GTP         0.4672
     10 PA          1.2687   -2.6351   -2.5828 P.3       1 GTP        -1.1062
     11 O1A         0.1988   -2.5052   -1.5207 O.co2     1 GTP         0.3195
     12 O2A         1.8350   -3.9866   -2.9603 O.co2     1 GTP         0.3195
     13 O5'         2.5245   -1.6648   -2.1878 O.3       1 GTP         0.1618
     14 C5'         2.2816   -0.2918   -1.9206 C.3       1 GTP         0.1504
     15 C4'         2.7248    0.0226   -0.4980 C.3       1 GTP         0.1111
     16 O4'         2.4697    1.4219   -0.2462 O.3       1 GTP        -0.1436
     17 C3'         1.9404   -0.7419    0.5596 C.3       1 GTP         0.1111
     18 O3'         2.7418   -0.8086    1.7389 O.3       1 GTP        -0.2728
     19 C2'         0.7477    0.1630    0.7858 C.3       1 GTP         0.1111
     20 O2'         0.1373   -0.0577    2.0407 O.3       1 GTP        -0.2728
     21 C1'         1.3733    1.5427    0.6747 C.3       1 GTP         0.2693
     22 N9          0.4520    2.5240    0.1767 N.pl3     1 GTP        -0.3222
     23 C8          0.5671    3.2221   -0.9473 C.ar      1 GTP         0.1640
     24 N7         -0.4560    4.0508   -1.1290 N.pl3     1 GTP        -0.3688
     25 C5         -1.2671    3.8585   -0.0441 C.ar      1 GTP         0.0648
     26 C6         -2.5318    4.5014    0.2817 C.ar      1 GTP         0.3597
     27 O6         -3.0527    5.3493   -0.4293 O.2       1 GTP        -0.2755
     28 N1         -3.0357    4.0149    1.4868 N.pl3     1 GTP        -0.1604
     29 C2         -2.4069    3.0373    2.2768 C.ar      1 GTP         0.4468
     30 N2         -3.0679    2.6964    3.4278 N.pl3     1 GTP        -0.5618
     31 N3         -1.2653    2.4872    1.9379 N.2       1 GTP        -0.4283
     32 C4         -0.7342    2.9334    0.7643 C.ar      1 GTP         0.2226
     33 H5'         2.8432    0.3119   -2.6398 H         1 GTP        -0.0393
     34 H5''        1.2128   -0.0927   -2.0428 H         1 GTP        -0.0393
     35 H4'         3.8044   -0.1397   -0.4040 H         1 GTP        -0.0393
     36 H3'         1.6764   -1.7639    0.2728 H         1 GTP        -0.0393
     37 HO3'        2.2232   -1.2979    2.3953 H         1 GTP         0.2010
     38 H2'        -0.0011    0.0027    0.0003 H         1 GTP        -0.0393
     39 HO2'       -0.1563   -0.9855    2.0596 H         1 GTP         0.2010
     40 H1'         1.7826    1.9024    1.6451 H         1 GTP        -0.0393
     41 H8          1.3888    3.1325   -1.6361 H         1 GTP         0.0000
     42 HN1        -3.9188    4.3932    1.8170 H         1 GTP         0.0865
     43 HN21       -2.6609    2.0087    4.0186 H         1 GTP         0.2048
     44 HN22       -3.9293    3.1496    3.6283 H         1 GTP         0.2048
     45 H45        -0.5938    4.6820   -1.9060 H         1 GTP         0.2048
@<TRIPOS>BOND
     1    1    2 2
     2    1    3 1
     3    1    4 1
     4    1    5 1
     5    5    6 1
     6    6    7 2
     7    6    8 1
     8    6    9 1
     9    9   10 1
    10   10   11 2
    11   10   12 1
    12   10   13 1
    13   13   14 1
    14   14   15 1
    15   14   33 1
    16   14   34 1
    17   15   16 1
    18   15   17 1
    19   15   35 1
    20   16   21 1
    21   17   18 1
    22   17   19 1
    23   17   36 1
    24   18   37 1
    25   19   20 1
    26   19   21 1
    27   19   38 1
    28   20   39 1
    29   21   22 1
    30   21   40 1
    31   22   23 ar
    32   22   32 ar
    33   23   24 ar
    34   23   41 1
    35   24   25 ar
    36   24   45 1
    37   25   26 ar
    38   25   32 ar
    39   26   27 2
    40   26   28 ar
    41   28   29 ar
    42   28   42 1
    43   29   30 1
    44   29   31 ar
    45   30   43 1
    46   30   44 1
    47   31   32 ar
@<TRIPOS>SUBSTRUCTURE
     1 GTP         1 GROUP 0 A     ****
@<TRIPOS>MOLECULE
[[[5-(2-amino-6-oxo-7,8-dihydro-1~{H}-purin-8-ylium-9-yl)-3,4-dihydroxy-tetrahydrofuran-2-yl]methoxy-oxido-phosphoryl]oxy-oxido-phosphoryl] phosphate
   45    47     1     0     0
SMALL
USER_CHARGES

@<TRIPOS>ATOM
      1 PG         -5.3277   -5.9410    6.3532 P.3       1 GTP        -1.1921
      2 O1G        -6.3216   -4.7849    6.3152 O.co2     1 GTP         0.3195
      3 O2G        -5.6904   -7.1124    5.4465 O.co2     1 GTP         0.3195
      4 O3G        -4.8934   -6.3475    7.7575 O.co2     1 GTP         0.3195
      5 O3B        -3.9561   -5.3183    5.6817 O.3       1 GTP         0.4672
      6 PB         -3.0393   -4.0500    6.1505 P.3       1 GTP        -1.1062
      7 O1B        -3.8516   -2.7823    6.0064 O.co2     1 GTP         0.3195
      8 O2B        -2.3379   -4.3976    7.4445 O.co2     1 GTP         0.3195
      9 O3A        -1.9022   -4.1035    4.9802 O.3       1 GTP         0.4672
     10 PA         -0.6011   -3.1449    4.7394 P.3       1 GTP        -1.1062
     11 O1A        -1.0913   -1.7559    4.3929 O.co2     1 GTP         0.3195
     12 O2A         0.3908   -3.3665    5.8605 O.co2     1 GTP         0.3195
     13 O5'         0.0118   -3.8395    3.3916 O.3       1 GTP         0.1618
     14 C5'        -0.7840   -3.8935    2.2172 C.3       1 GTP         0.1504
     15 C4'        -0.0724   -3.1466    1.1027 C.3       1 GTP         0.1111
     16 O4'        -0.8674   -3.1929   -0.0945 O.3       1 GTP        -0.1436
     17 C3'         0.1338   -1.6715    1.4027 C.3       1 GTP         0.1111
     18 O3'         1.2893   -1.4445    2.1808 O.3       1 GTP        -0.2728
     19 C2'         0.2158   -1.0724    0.0128 C.3       1 GTP         0.1111
     20 O2'         1.5141   -1.2448   -0.5513 O.3       1 GTP        -0.2728
     21 C1'        -0.7897   -1.9176   -0.7583 C.3       1 GTP         0.2693
     22 N9         -2.1040   -1.3333   -0.7704 N.pl3     1 GTP        -0.3222
     23 C8         -3.0597   -1.5109    0.1345 C.ar      1 GTP         0.1640
     24 N7         -4.1618   -0.8291   -0.1607 N.pl3     1 GTP        -0.3688
     25 C5         -3.8764   -0.1805   -1.3310 C.ar      1 GTP         0.0648
     26 C6         -4.7187    0.7111   -2.1152 C.ar      1 GTP         0.3597
     27 O6         -5.8617    1.0043   -1.7939 O.2       1 GTP        -0.2755
     28 N1         -4.0405    1.1608   -3.2468 N.pl3     1 GTP        -0.1604
     29 C2         -2.7239    0.8013   -3.5822 C.ar      1 GTP         0.4468
     30 N2         -2.2399    1.3534   -4.7394 N.pl3     1 GTP        -0.5618
     31 N3         -2.0053   -0.0071   -2.8402 N.2       1 GTP        -0.4283
     32 C4         -2.6290   -0.4727   -1.7210 C.ar      1 GTP         0.2226
     33 H5'        -0.9348   -4.9415    1.9415 H         1 GTP        -0.0393
     34 H5''       -1.7548   -3.4350    2.4278 H         1 GTP        -0.0393
     35 H4'         0.8874   -3.6466    0.8805 H         1 GTP        -0.0393
     36 H3'        -0.7376   -1.2333    1.9867 H         1 GTP        -0.0393
     37 HO3'        1.3408   -0.4870    2.3219 H         1 GTP         0.2010
     38 H2'        -0.0384   -0.0310    0.0096 H         1 GTP        -0.0393
     39 HO2'        2.1463   -0.7958    0.0370 H         1 GTP         0.2010
     40 H1'        -0.4769   -2.1002   -1.8093 H         1 GTP        -0.0393
     41 H8         -2.9610   -2.1316    1.0079 H         1 GTP         0.0000
     42 HN1        -4.5320    1.7923   -3.8726 H         1 GTP         0.0865
     43 HN21       -1.3128    1.1277   -5.0171 H         1 GTP         0.2048
     44 HN22       -2.8342    1.9586   -5.2572 H         1 GTP         0.2048
     45 H45        -5.0195   -0.8034    0.3729 H         1 GTP         0.2048
@<TRIPOS>BOND
     1    1    2 2
     2    1    3 1
     3    1    4 1
     4    1    5 1
     5    5    6 1
     6    6    7 2
     7    6    8 1
     8    6    9 1
     9    9   10 1
    10   10   11 2
    11   10   12 1
    12   10   13 1
    13   13   14 1
    14   14   15 1
    15   14   33 1
    16   14   34 1
    17   15   16 1
    18   15   17 1
    19   15   35 1
    20   16   21 1
    21   17   18 1
    22   17   19 1
    23   17   36 1
    24   18   37 1
    25   19   20 1
    26   19   21 1
    27   19   38 1
    28   20   39 1
    29   21   22 1
    30   21   40 1
    31   22   23 ar
    32   22   32 ar
    33   23   24 ar
    34   23   41 1
    35   24   25 ar
    36   24   45 1
    37   25   26 ar
    38   25   32 ar
    39   26   27 2
    40   26   28 ar
    41   28   29 ar
    42   28   42 1
    43   29   30 1
    44   29   31 ar
    45   30   43 1
    46   30   44 1
    47   31   32 ar
@<TRIPOS>SUBSTRUCTURE
     1 GTP         1 GROUP 0 A     ****
@<TRIPOS>MOLECULE
[[[5-(2-amino-6-oxo-7,8-dihydro-1~{H}-purin-8-ylium-9-yl)-3,4-dihydroxy-tetrahydrofuran-2-yl]methoxy-oxido-phosphoryl]oxy-oxido-phosphoryl] phosphate
   45    47     1     0     0
SMALL
USER_CHARGES

@<TRIPOS>ATOM
      1 PG          3.4471   -5.7919   -4.1971 P.3       1 GTP        -1.1921
      2 O1G         3.6988   -5.9604   -2.7024 O.co2     1 GTP         0.3195
      3 O2G         2.2057   -6.5132   -4.7111 O.co2     1 GTP         0.3195
      4 O3G         4.6861   -5.9816   -5.0660 O.co2     1 GTP         0.3195
      5 O3B         3.0867   -4.1919   -4.3694 O.3       1 GTP         0.4672
      6 PB          3.9771   -2.8699   -4.0109 P.3       1 GTP        -1.1062
      7 O1B         4.1736   -2.8068   -2.5126 O.co2     1 GTP         0.3195
      8 O2B         5.1463   -2.7865   -4.9666 O.co2     1 GTP         0.3195
      9 O3A         2.9217   -1.7121   -4.4705 O.3       1 GTP         0.4672
     10 PA          3.0683   -0.0853   -4.4294 P.3       1 GTP        -1.1062
     11 O1A         4.3403    0.2960   -5.1548 O.co2     1 GTP         0.3195
     12 O2A         1.7407    0.5404   -4.7982 O.co2     1 GTP         0.3195
     13 O5'         3.2903    0.1346   -2.8241 O.3       1 GTP         0.1618
     14 C5'         2.2816   -0.2918   -1.9206 C.3       1 GTP         0.1504
     15 C4'         2.7248    0.0226   -0.4980 C.3       1 GTP         0.1111
     16 O4'         2.4697    1.4219   -0.2462 O.3       1 GTP        -0.1436
     17 C3'         1.9404   -0.7419    0.5596 C.3       1 GTP         0.1111
     18 O3'         2.7418   -0.8086    1.7389 O.3       1 GTP        -0.2728
     19 C2'         0.7477    0.1630    0.7858 C.3       1 GTP         0.1111
     20 O2'         0.1373   -0.0577    2.0407 O.3       1 GTP        -0.2728
     21 C1'         1.3733    1.5427    0.6747 C.3       1 GTP         0.2693
     22 N9          0.4520    2.5240    0.1767 N.pl3     1 GTP        -0.3222
     23 C8         -0.8613    2.5511    0.3730 C.ar      1 GTP         0.1640
     24 N7         -1.4346    3.5939   -0.2188 N.pl3     1 GTP        -0.3688
     25 C5         -0.4099    4.2657   -0.8276 C.ar      1 GTP         0.0648
     26 C6         -0.4554    5.4854   -1.6209 C.ar      1 GTP         0.3597
     27 O6         -1.4907    6.0944   -1.8508 O.2       1 GTP        -0.2755
     28 N1          0.8205    5.8357   -2.0593 N.pl3     1 GTP        -0.1604
     29 C2          1.9890    5.1091   -1.7730 C.ar      1 GTP         0.4468
     30 N2          3.1452    5.6230   -2.2997 N.pl3     1 GTP        -0.5618
     31 N3          1.9765    4.0139   -1.0514 N.2       1 GTP        -0.4283
     32 C4          0.7480    3.6324   -0.6003 C.ar      1 GTP         0.2226
     33 H5'         1.3514    0.2330   -2.1577 H         1 GTP        -0.0393
     34 H5''        2.1280   -1.3678   -2.0460 H         1 GTP        -0.0393
     35 H4'         3.8044   -0.1397   -0.4040 H         1 GTP        -0.0393
     36 H3'         1.6764   -1.7639    0.2728 H         1 GTP        -0.0393
     37 HO3'        3.5554   -1.2733    1.4914 H         1 GTP         0.2010
     38 H2'        -0.0011    0.0027    0.0003 H         1 GTP        -0.0393
     39 HO2'       -0.1563   -0.9855    2.0596 H         1 GTP         0.2010
     40 H1'         1.7826    1.9024    1.6451 H         1 GTP        -0.0393
     41 H8         -1.4050    1.8187    0.9438 H         1 GTP         0.0000
     42 HN1         0.9121    6.6744   -2.6251 H         1 GTP         0.0865
     43 HN21        3.9971    5.1427   -2.1235 H         1 GTP         0.2048
     44 HN22        3.0881    6.4564   -2.8380 H         1 GTP         0.2048
     45 H45        -2.4173    3.8294   -0.2127 H         1 GTP         0.2048
@<TRIPOS>BOND
     1    1    2 2
     2    1    3 1
     3    1    4 1
     4    1    5 1
     5    5    6 1
     6    6    7 2
     7    6    8 1
     8    6    9 1
     9    9   10 1
    10   10   11 2
    11   10   12 1
    12   10   13 1
    13   13   14 1
    14   14   15 1
    15   14   33 1
    16   14   34 1
    17   15   16 1
    18   15   17 1
    19   15   35 1
    20   16   21 1
    21   17   18 1
    22   17   19 1
    23   17   36 1
    24   18   37 1
    25   19   20 1
    26   19   21 1
    27   19   38 1
    28   20   39 1
    29   21   22 1
    30   21   40 1
    31   22   23 ar
    32   22   32 ar
    33   23   24 ar
    34   23   41 1
    35   24   25 ar
    36   24   45 1
    37   25   26 ar
    38   25   32 ar
    39   26   27 2
    40   26   28 ar
    41   28   29 ar
    42   28   42 1
    43   29   30 1
    44   29   31 ar
    45   30   43 1
    46   30   44 1
    47   31   32 ar
@<TRIPOS>SUBSTRUCTURE
     1 GTP         1 GROUP 0 A     ****
@<TRIPOS>MOLECULE
[[[5-(2-amino-6-oxo-7,8-dihydro-1~{H}-purin-8-ylium-9-yl)-3,4-dihydroxy-tetrahydrofuran-2-yl]methoxy-oxido-phosphoryl]oxy-oxido-phosphoryl] phosphate
   45    47     1     0     0
SMALL
USER_CHARGES

@<TRIPOS>ATOM
      1 PG         -1.3195   -0.4222   -7.0082 P.3       1 GTP        -1.1921
      2 O1G        -1.9180   -1.7752   -7.3783 O.co2     1 GTP         0.3195
      3 O2G        -2.2654    0.4954   -6.2407 O.co2     1 GTP         0.3195
      4 O3G        -0.5688    0.2626   -8.1456 O.co2     1 GTP         0.3195
      5 O3B        -0.1361   -0.7869   -5.9190 O.3       1 GTP         0.4672
      6 PB          1.1907   -1.7257   -6.0842 P.3       1 GTP        -1.1062
      7 O1B         0.7510   -3.1574   -6.2953 O.co2     1 GTP         0.3195
      8 O2B         2.1617   -1.0491   -7.0259 O.co2     1 GTP         0.3195
      9 O3A         1.8135   -1.5634   -4.5838 O.3       1 GTP         0.4672
     10 PA          1.5549   -2.4565   -3.2403 P.3       1 GTP        -1.1062
     11 O1A         0.1153   -2.2683   -2.8139 O.co2     1 GTP         0.3195
     12 O2A         2.1346   -3.8391   -3.4462 O.co2     1 GTP         0.3195
     13 O5'         2.5245   -1.6648   -2.1878 O.3       1 GTP         0.1618
     14 C5'         2.2816   -0.2918   -1.9206 C.3       1 GTP         0.1504
     15 C4'         2.7248    0.0226   -0.4980 C.3       1 GTP         0.1111
     16 O4'         2.4697    1.4219   -0.2462 O.3       1 GTP        -0.1436
     17 C3'         1.9404   -0.7419    0.5596 C.3       1 GTP         0.1111
     18 O3'         2.7418   -0.8086    1.7389 O.3       1 GTP        -0.2728
     19 C2'         0.7477    0.1630    0.7858 C.3       1 GTP         0.1111
     20 O2'         0.1373   -0.0577    2.0407 O.3       1 GTP        -0.2728
     21 C1'         1.3733    1.5427    0.6747 C.3       1 GTP         0.2693
     22 N9          0.4520    2.5240    0.1767 N.pl3     1 GTP        -0.3222
     23 C8          0.5671    3.2221   -0.9473 C.ar      1 GTP         0.1640
     24 N7         -0.4560    4.0508   -1.1290 N.pl3     1 GTP        -0.3688
     25 C5         -1.2671    3.8585   -0.0441 C.ar      1 GTP         0.0648
     26 C6         -2.5318    4.5014    0.2817 C.ar      1 GTP         0.3597
     27 O6         -3.0527    5.3493   -0.4293 O.2       1 GTP        -0.2755
     28 N1         -3.0357    4.0149    1.4868 N.pl3     1 GTP        -0.1604
     29 C2         -2.4069    3.0373    2.2768 C.ar      1 GTP         0.4468
     30 N2         -3.0679    2.6964    3.4278 N.pl3     1 GTP        -0.5618
     31 N3         -1.2653    2.4872    1.9379 N.2       1 GTP        -0.4283
     32 C4         -0.7342    2.9334    0.7643 C.ar      1 GTP         0.2226
     33 H5'         2.8432    0.3119   -2.6398 H         1 GTP        -0.0393
     34 H5''        1.2128   -0.0927   -2.0428 H         1 GTP        -0.0393
     35 H4'         3.8044   -0.1397   -0.4040 H         1 GTP        -0.0393
     36 H3'         1.6764   -1.7639    0.2728 H         1 GTP        -0.0393
     37 HO3'        3.5554   -1.2733    1.4914 H         1 GTP         0.2010
     38 H2'        -0.0011    0.0027    0.0003 H         1 GTP        -0.0393
     39 HO2'        0.8082    0.1199    2.7232 H         1 GTP         0.2010
     40 H1'         1.7826    1.9024    1.6451 H         1 GTP        -0.0393
     41 H8          1.3888    3.1325   -1.6361 H         1 GTP         0.0000
     42 HN1        -3.9188    4.3932    1.8170 H         1 GTP         0.0865
     43 HN21       -2.6609    2.0087    4.0186 H         1 GTP         0.2048
     44 HN22       -3.9293    3.1496    3.6283 H         1 GTP         0.2048
     45 H45        -0.5938    4.6820   -1.9060 H         1 GTP         0.2048
@<TRIPOS>BOND
     1    1    2 2
     2    1    3 1
     3    1    4 1
     4    1    5 1
     5    5    6 1
     6    6    7 2
     7    6    8 1
     8    6    9 1
     9    9   10 1
    10   10   11 2
    11   10   12 1
    12   10   13 1
    13   13   14 1
    14   14   15 1
    15   14   33 1
    16   14   34 1
    17   15   16 1
    18   15   17 1
    19   15   35 1
    20   16   21 1
    21   17   18 1
    22   17   19 1
    23   17   36 1
    24   18   37 1
    25   19   20 1
    26   19   21 1
    27   19   38 1
    28   20   39 1
    29   21   22 1
    30   21   40 1
    31   22   23 ar
    32   22   32 ar
    33   23   24 ar
    34   23   41 1
    35   24   25 ar
    36   24   45 1
    37   25   26 ar
    38   25   32 ar
    39   26   27 2
    40   26   28 ar
    41   28   29 ar
    42   28   42 1
    43   29   30 1
    44   29   31 ar
    45   30   43 1
    46   30   44 1
    47   31   32 ar
@<TRIPOS>SUBSTRUCTURE
     1 GTP         1 GROUP 0 A     ****
@<TRIPOS>MOLECULE
[[[5-(2-amino-6-oxo-7,8-dihydro-1~{H}-purin-8-ylium-9-yl)-3,4-dihydroxy-tetrahydrofuran-2-yl]methoxy-oxido-phosphoryl]oxy-oxido-phosphoryl] phosphate
   45    47     1     0     0
SMALL
USER_CHARGES

@<TRIPOS>ATOM
      1 PG          1.4707   -5.4984    6.6286 P.3       1 GTP        -1.1921
      2 O1G         0.9052   -5.5463    8.0442 O.co2     1 GTP         0.3195
      3 O2G         2.9460   -5.8714    6.5277 O.co2     1 GTP         0.3195
      4 O3G         1.0855   -4.2497    5.8424 O.co2     1 GTP         0.3195
      5 O3B         0.6896   -6.7174    5.8389 O.3       1 GTP         0.4672
      6 PB         -0.9064   -6.9437    5.5731 P.3       1 GTP        -1.1062
      7 O1B        -1.1603   -8.4196    5.3613 O.co2     1 GTP         0.3195
      8 O2B        -1.6952   -6.1422    6.5844 O.co2     1 GTP         0.3195
      9 O3A        -1.0478   -6.1575    4.1493 O.3       1 GTP         0.4672
     10 PA         -0.3075   -6.4382    2.7200 P.3       1 GTP        -1.1062
     11 O1A         1.1702   -6.1585    2.8867 O.co2     1 GTP         0.3195
     12 O2A        -0.7951   -7.7572    2.1610 O.co2     1 GTP         0.3195
     13 O5'        -0.9724   -5.2440    1.8220 O.3       1 GTP         0.1618
     14 C5'        -0.7840   -3.8935    2.2172 C.3       1 GTP         0.1504
     15 C4'        -0.0724   -3.1466    1.1027 C.3       1 GTP         0.1111
     16 O4'        -0.8674   -3.1929   -0.0945 O.3       1 GTP        -0.1436
     17 C3'         0.1338   -1.6715    1.4027 C.3       1 GTP         0.1111
     18 O3'         1.2893   -1.4445    2.1808 O.3       1 GTP        -0.2728
     19 C2'         0.2158   -1.0724    0.0128 C.3       1 GTP         0.1111
     20 O2'         1.5141   -1.2448   -0.5513 O.3       1 GTP        -0.2728
     21 C1'        -0.7897   -1.9176   -0.7583 C.3       1 GTP         0.2693
     22 N9         -2.1040   -1.3333   -0.7704 N.pl3     1 GTP        -0.3222
     23 C8         -3.0597   -1.5109    0.1345 C.ar      1 GTP         0.1640
     24 N7         -4.1618   -0.8291   -0.1607 N.pl3     1 GTP        -0.3688
     25 C5         -3.8764   -0.1805   -1.3310 C.ar      1 GTP         0.0648
     26 C6         -4.7187    0.7111   -2.1152 C.ar      1 GTP         0.3597
     27 O6         -5.8617    1.0043   -1.7939 O.2       1 GTP        -0.2755
     28 N1         -4.0405    1.1608   -3.2468 N.pl3     1 GTP        -0.1604
     29 C2         -2.7239    0.8013   -3.5822 C.ar      1 GTP         0.4468
     30 N2         -2.2399    1.3534   -4.7394 N.pl3     1 GTP        -0.5618
     31 N3         -2.0053   -0.0071   -2.8402 N.2       1 GTP        -0.4283
     32 C4         -2.6290   -0.4727   -1.7210 C.ar      1 GTP         0.2226
     33 H5'        -1.7618   -3.4448    2.4164 H         1 GTP        -0.0393
     34 H5''       -0.1874   -3.8744    3.1341 H         1 GTP        -0.0393
     35 H4'         0.8874   -3.6466    0.8805 H         1 GTP        -0.0393
     36 H3'        -0.7376   -1.2333    1.9867 H         1 GTP        -0.0393
     37 HO3'        1.3408   -0.4870    2.3219 H         1 GTP         0.2010
     38 H2'        -0.0384   -0.0310    0.0096 H         1 GTP        -0.0393
     39 HO2'        2.1463   -0.7958    0.0370 H         1 GTP         0.2010
     40 H1'        -0.4769   -2.1002   -1.8093 H         1 GTP        -0.0393
     41 H8         -2.9610   -2.1316    1.0079 H         1 GTP         0.0000
     42 HN1        -4.5320    1.7923   -3.8726 H         1 GTP         0.0865
     43 HN21       -1.3128    1.1277   -5.0171 H         1 GTP         0.2048
     44 HN22       -2.8342    1.9586   -5.2572 H         1 GTP         0.2048
     45 H45        -5.0195   -0.8034    0.3729 H         1 GTP         0.2048
@<TRIPOS>BOND
     1    1    2 2
     2    1    3 1
     3    1    4 1
     4    1    5 1
     5    5    6 1
     6    6    7 2
     7    6    8 1
     8    6    9 1
     9    9   10 1
    10   10   11 2
    11   10   12 1
    12   10   13 1
    13   13   14 1
    14   14   15 1
    15   14   33 1
    16   14   34 1
    17   15   16 1
    18   15   17 1
    19   15   35 1
    20   16   21 1
    21   17   18 1
    22   17   19 1
    23   17   36 1
    24   18   37 1
    25   19   20 1
    26   19   21 1
    27   19   38 1
    28   20   39 1
    29   21   22 1
    30   21   40 1
    31   22   23 ar
    32   22   32 ar
    33   23   24 ar
    34   23   41 1
    35   24   25 ar
    36   24   45 1
    37   25   26 ar
    38   25   32 ar
    39   26   27 2
    40   26   28 ar
    41   28   29 ar
    42   28   42 1
    43   29   30 1
    44   29   31 ar
    45   30   43 1
    46   30   44 1
    47   31   32 ar
@<TRIPOS>SUBSTRUCTURE
     1 GTP         1 GROUP 0 A     ****
@<TRIPOS>MOLECULE
[[[5-(2-amino-6-oxo-7,8-dihydro-1~{H}-purin-8-ylium-9-yl)-3,4-dihydroxy-tetrahydrofuran-2-yl]methoxy-oxido-phosphoryl]oxy-oxido-phosphoryl] phosphate
   45    47     1     0     0
SMALL
USER_CHARGES

@<TRIPOS>ATOM
      1 PG         -2.4674   -4.3203    9.0580 P.3       1 GTP        -1.1921
      2 O1G        -3.4236   -5.5037    9.1638 O.co2     1 GTP         0.3195
      3 O2G        -1.1294   -4.5281    9.7596 O.co2     1 GTP         0.3195
      4 O3G        -3.1141   -2.9664    9.3315 O.co2     1 GTP         0.3195
      5 O3B        -2.0794   -4.2549    7.4565 O.3       1 GTP         0.4672
      6 PB         -3.0393   -4.0500    6.1505 P.3       1 GTP        -1.1062
      7 O1B        -3.9507   -5.2502    6.0230 O.co2     1 GTP         0.3195
      8 O2B        -3.5842   -2.6392    6.1531 O.co2     1 GTP         0.3195
      9 O3A        -1.9022   -4.1035    4.9802 O.3       1 GTP         0.4672
     10 PA         -0.6011   -3.1449    4.7394 P.3       1 GTP        -1.1062
     11 O1A        -1.0913   -1.7559    4.3929 O.co2     1 GTP         0.3195
     12 O2A         0.3908   -3.3665    5.8605 O.co2     1 GTP         0.3195
     13 O5'         0.0118   -3.8395    3.3916 O.3       1 GTP         0.1618
     14 C5'        -0.7840   -3.8935    2.2172 C.3       1 GTP         0.1504
     15 C4'        -0.0724   -3.1466    1.1027 C.3       1 GTP         0.1111
     16 O4'        -0.8674   -3.1929   -0.0945 O.3       1 GTP        -0.1436
     17 C3'         0.1338   -1.6715    1.4027 C.3       1 GTP         0.1111
     18 O3'         1.2893   -1.4445    2.1808 O.3       1 GTP        -0.2728
     19 C2'         0.2158   -1.0724    0.0128 C.3       1 GTP         0.1111
     20 O2'         1.5141   -1.2448   -0.5513 O.3       1 GTP        -0.2728
     21 C1'        -0.7897   -1.9176   -0.7583 C.3       1 GTP         0.2693
     22 N9         -2.1040   -1.3333   -0.7704 N.pl3     1 GTP        -0.3222
     23 C8         -3.0597   -1.5109    0.1345 C.ar      1 GTP         0.1640
     24 N7         -4.1618   -0.8291   -0.1607 N.pl3     1 GTP        -0.3688
     25 C5         -3.8764   -0.1805   -1.3310 C.ar      1 GTP         0.0648
     26 C6         -4.7187    0.7111   -2.1152 C.ar      1 GTP         0.3597
     27 O6         -5.8617    1.0043   -1.7939 O.2       1 GTP        -0.2755
     28 N1         -4.0405    1.1608   -3.2468 N.pl3     1 GTP        -0.1604
     29 C2         -2.7239    0.8013   -3.5822 C.ar      1 GTP         0.4468
     30 N2         -2.2399    1.3534   -4.7394 N.pl3     1 GTP        -0.5618
     31 N3         -2.0053   -0.0071   -2.8402 N.2       1 GTP        -0.4283
     32 C4         -2.6290   -0.4727   -1.7210 C.ar      1 GTP         0.2226
     33 H5'        -0.9348   -4.9415    1.9415 H         1 GTP        -0.0393
     34 H5''       -1.7548   -3.4350    2.4278 H         1 GTP        -0.0393
     35 H4'         0.8874   -3.6466    0.8805 H         1 GTP        -0.0393
     36 H3'        -0.7376   -1.2333    1.9867 H         1 GTP        -0.0393
     37 HO3'        1.3408   -0.4870    2.3219 H         1 GTP         0.2010
     38 H2'        -0.0384   -0.0310    0.0096 H         1 GTP        -0.0393
     39 HO2'        2.1463   -0.7958    0.0370 H         1 GTP         0.2010
     40 H1'        -0.4769   -2.1002   -1.8093 H         1 GTP        -0.0393
     41 H8         -2.9610   -2.1316    1.0079 H         1 GTP         0.0000
     42 HN1        -4.5320    1.7923   -3.8726 H         1 GTP         0.0865
     43 HN21       -1.3128    1.1277   -5.0171 H         1 GTP         0.2048
     44 HN22       -2.8342    1.9586   -5.2572 H         1 GTP         0.2048
     45 H45        -5.0195   -0.8034    0.3729 H         1 GTP         0.2048
@<TRIPOS>BOND
     1    1    2 2
     2    1    3 1
     3    1    4 1
     4    1    5 1
     5    5    6 1
     6    6    7 2
     7    6    8 1
     8    6    9 1
     9    9   10 1
    10   10   11 2
    11   10   12 1
    12   10   13 1
    13   13   14 1
    14   14   15 1
    15   14   33 1
    16   14   34 1
    17   15   16 1
    18   15   17 1
    19   15   35 1
    20   16   21 1
    21   17   18 1
    22   17   19 1
    23   17   36 1
    24   18   37 1
    25   19   20 1
    26   19   21 1
    27   19   38 1
    28   20   39 1
    29   21   22 1
    30   21   40 1
    31   22   23 ar
    32   22   32 ar
    33   23   24 ar
    34   23   41 1
    35   24   25 ar
    36   24   45 1
    37   25   26 ar
    38   25   32 ar
    39   26   27 2
    40   26   28 ar
    41   28   29 ar
    42   28   42 1
    43   29   30 1
    44   29   31 ar
    45   30   43 1
    46   30   44 1
    47   31   32 ar
@<TRIPOS>SUBSTRUCTURE
     1 GTP         1 GROUP 0 A     ****
@<TRIPOS>MOLECULE
[[[5-(2-amino-6-oxo-7,8-dihydro-1~{H}-purin-8-ylium-9-yl)-3,4-dihydroxy-tetrahydrofuran-2-yl]methoxy-oxido-phosphoryl]oxy-oxido-phosphoryl] phosphate
   45    47     1     0     0
SMALL
USER_CHARGES

@<TRIPOS>ATOM
      1 PG          1.3176   -4.4931   -4.0465 P.3       1 GTP        -1.1921
      2 O1G         0.0051   -3.7486   -3.8254 O.co2     1 GTP         0.3195
      3 O2G         1.1592   -5.8759   -4.6698 O.co2     1 GTP         0.3195
      4 O3G         2.2712   -4.4481   -2.8571 O.co2     1 GTP         0.3195
      5 O3B         2.0925   -3.6125   -5.2058 O.3       1 GTP         0.4672
      6 PB          2.5712   -2.0505   -5.1938 P.3       1 GTP        -1.1062
      7 O1B         3.3630   -1.7742   -6.4525 O.co2     1 GTP         0.3195
      8 O2B         1.4051   -1.1785   -4.7849 O.co2     1 GTP         0.3195
      9 O3A         3.5834   -2.0978   -3.9137 O.3       1 GTP         0.4672
     10 PA          4.4792   -0.9077   -3.2423 P.3       1 GTP        -1.1062
     11 O1A         5.1201   -1.4478   -1.9825 O.co2     1 GTP         0.3195
     12 O2A         5.3102   -0.2460   -4.3201 O.co2     1 GTP         0.3195
     13 O5'         3.2903    0.1346   -2.8241 O.3       1 GTP         0.1618
     14 C5'         2.2816   -0.2918   -1.9206 C.3       1 GTP         0.1504
     15 C4'         2.7248    0.0226   -0.4980 C.3       1 GTP         0.1111
     16 O4'         2.4697    1.4219   -0.2462 O.3       1 GTP        -0.1436
     17 C3'         1.9404   -0.7419    0.5596 C.3       1 GTP         0.1111
     18 O3'         2.7418   -0.8086    1.7389 O.3       1 GTP        -0.2728
     19 C2'         0.7477    0.1630    0.7858 C.3       1 GTP         0.1111
     20 O2'         0.1373   -0.0577    2.0407 O.3       1 GTP        -0.2728
     21 C1'         1.3733    1.5427    0.6747 C.3       1 GTP         0.2693
     22 N9          0.4520    2.5240    0.1767 N.pl3     1 GTP        -0.3222
     23 C8          0.5671    3.2221   -0.9473 C.ar      1 GTP         0.1640
     24 N7         -0.4560    4.0508   -1.1290 N.pl3     1 GTP        -0.3688
     25 C5         -1.2671    3.8585   -0.0441 C.ar      1 GTP         0.0648
     26 C6         -2.5318    4.5014    0.2817 C.ar      1 GTP         0.3597
     27 O6         -3.0527    5.3493   -0.4293 O.2       1 GTP        -0.2755
     28 N1         -3.0357    4.0149    1.4868 N.pl3     1 GTP        -0.1604
     29 C2         -2.4069    3.0373    2.2768 C.ar      1 GTP         0.4468
     30 N2         -3.0679    2.6964    3.4278 N.pl3     1 GTP        -0.5618
     31 N3         -1.2653    2.4872    1.9379 N.2       1 GTP        -0.4283
     32 C4         -0.7342    2.9334    0.7643 C.ar      1 GTP         0.2226
     33 H5'         1.3514    0.2330   -2.1577 H         1 GTP        -0.0393
     34 H5''        2.1280   -1.3678   -2.0460 H         1 GTP        -0.0393
     35 H4'         3.8044   -0.1397   -0.4040 H         1 GTP        -0.0393
     36 H3'         1.6764   -1.7639    0.2728 H         1 GTP        -0.0393
     37 HO3'        2.2232   -1.2979    2.3953 H         1 GTP         0.2010
     38 H2'        -0.0011    0.0027    0.0003 H         1 GTP        -0.0393
     39 HO2'       -0.1563   -0.9855    2.0596 H         1 GTP         0.2010
     40 H1'         1.7826    1.9024    1.6451 H         1 GTP        -0.0393
     41 H8          1.3888    3.1325   -1.6361 H         1 GTP         0.0000
     42 HN1        -3.9188    4.3932    1.8170 H         1 GTP         0.0865
     43 HN21       -2.6609    2.0087    4.0186 H         1 GTP         0.2048
     44 HN22       -3.9293    3.1496    3.6283 H         1 GTP         0.2048
     45 H45        -0.5938    4.6820   -1.9060 H         1 GTP         0.2048
@<TRIPOS>BOND
     1    1    2 2
     2    1    3 1
     3    1    4 1
     4    1    5 1
     5    5    6 1
     6    6    7 2
     7    6    8 1
     8    6    9 1
     9    9   10 1
    10   10   11 2
    11   10   12 1
    12   10   13 1
    13   13   14 1
    14   14   15 1
    15   14   33 1
    16   14   34 1
    17   15   16 1
    18   15   17 1
    19   15   35 1
    20   16   21 1
    21   17   18 1
    22   17   19 1
    23   17   36 1
    24   18   37 1
    25   19   20 1
    26   19   21 1
    27   19   38 1
    28   20   39 1
    29   21   22 1
    30   21   40 1
    31   22   23 ar
    32   22   32 ar
    33   23   24 ar
    34   23   41 1
    35   24   25 ar
    36   24   45 1
    37   25   26 ar
    38   25   32 ar
    39   26   27 2
    40   26   28 ar
    41   28   29 ar
    42   28   42 1
    43   29   30 1
    44   29   31 ar
    45   30   43 1
    46   30   44 1
    47   31   32 ar
@<TRIPOS>SUBSTRUCTURE
     1 GTP         1 GROUP 0 A     ****
@<TRIPOS>MOLECULE
[[[5-(2-amino-6-oxo-7,8-dihydro-1~{H}-purin-8-ylium-9-yl)-3,4-dihydroxy-tetrahydrofuran-2-yl]methoxy-oxido-phosphoryl]oxy-oxido-phosphoryl] phosphate
   45    47     1     0     0
SMALL
USER_CHARGES

@<TRIPOS>ATOM
      1 PG         -3.2426   -3.6067   -2.2287 P.3       1 GTP        -1.1921
      2 O1G        -3.2300   -3.1527   -0.7728 O.co2     1 GTP         0.3195
      3 O2G        -4.2969   -2.9220   -3.0920 O.co2     1 GTP         0.3195
      4 O3G        -3.1677   -5.1187   -2.4137 O.co2     1 GTP         0.3195
      5 O3B        -1.8079   -3.0644   -2.8347 O.3       1 GTP         0.4672
      6 PB         -0.2776   -3.4028   -2.3735 P.3       1 GTP        -1.1062
      7 O1B        -0.0560   -2.8541   -0.9816 O.co2     1 GTP         0.3195
      8 O2B         0.0358   -4.8421   -2.7160 O.co2     1 GTP         0.3195
      9 O3A         0.5298   -2.4844   -3.4552 O.3       1 GTP         0.4672
     10 PA          2.1375   -2.2725   -3.6560 P.3       1 GTP        -1.1062
     11 O1A         2.7815   -3.6336   -3.8061 O.co2     1 GTP         0.3195
     12 O2A         2.3687   -1.1815   -4.6788 O.co2     1 GTP         0.3195
     13 O5'         2.5245   -1.6648   -2.1878 O.3       1 GTP         0.1618
     14 C5'         2.2816   -0.2918   -1.9206 C.3       1 GTP         0.1504
     15 C4'         2.7248    0.0226   -0.4980 C.3       1 GTP         0.1111
     16 O4'         2.4697    1.4219   -0.2462 O.3       1 GTP        -0.1436
     17 C3'         1.9404   -0.7419    0.5596 C.3       1 GTP         0.1111
     18 O3'         2.7418   -0.8086    1.7389 O.3       1 GTP        -0.2728
     19 C2'         0.7477    0.1630    0.7858 C.3       1 GTP         0.1111
     20 O2'         0.1373   -0.0577    2.0407 O.3       1 GTP        -0.2728
     21 C1'         1.3733    1.5427    0.6747 C.3       1 GTP         0.2693
     22 N9          0.4520    2.5240    0.1767 N.pl3     1 GTP        -0.3222
     23 C8         -0.3350    3.3125    0.8998 C.ar      1 GTP         0.1640
     24 N7         -1.0716    4.1171    0.1405 N.pl3     1 GTP        -0.3688
     25 C5         -0.7219    3.8110   -1.1464 C.ar      1 GTP         0.0648
     26 C6         -1.2133    4.3827   -2.3917 C.ar      1 GTP         0.3597
     27 O6         -2.0567    5.2674   -2.4335 O.2       1 GTP        -0.2755
     28 N1         -0.5926    3.7846   -3.4870 N.pl3     1 GTP        -0.1604
     29 C2          0.3749    2.7691   -3.3983 C.ar      1 GTP         0.4468
     30 N2          0.8624    2.3146   -4.5959 N.pl3     1 GTP        -0.5618
     31 N3          0.7851    2.2875   -2.2493 N.2       1 GTP        -0.4283
     32 C4          0.2042    2.8436   -1.1486 C.ar      1 GTP         0.2226
     33 H5'         2.8432    0.3119   -2.6398 H         1 GTP        -0.0393
     34 H5''        1.2128   -0.0927   -2.0428 H         1 GTP        -0.0393
     35 H4'         3.8044   -0.1397   -0.4040 H         1 GTP        -0.0393
     36 H3'         1.6764   -1.7639    0.2728 H         1 GTP        -0.0393
     37 HO3'        2.2232   -1.2979    2.3953 H         1 GTP         0.2010
     38 H2'        -0.0011    0.0027    0.0003 H         1 GTP        -0.0393
     39 HO2'       -0.6141    0.5574    2.1082 H         1 GTP         0.2010
     40 H1'         1.7826    1.9024    1.6451 H         1 GTP        -0.0393
     41 H8         -0.3766    3.3075    1.9750 H         1 GTP         0.0000
     42 HN1        -0.8580    4.1049   -4.4138 H         1 GTP         0.0865
     43 HN21        1.5490    1.5963   -4.5827 H         1 GTP         0.2048
     44 HN22        0.5109    2.7205   -5.4321 H         1 GTP         0.2048
     45 H45        -1.7420    4.8034    0.4575 H         1 GTP         0.2048
@<TRIPOS>BOND
     1    1    2 2
     2    1    3 1
     3    1    4 1
     4    1    5 1
     5    5    6 1
     6    6    7 2
     7    6    8 1
     8    6    9 1
     9    9   10 1
    10   10   11 2
    11   10   12 1
    12   10   13 1
    13   13   14 1
    14   14   15 1
    15   14   33 1
    16   14   34 1
    17   15   16 1
    18   15   17 1
    19   15   35 1
    20   16   21 1
    21   17   18 1
    22   17   19 1
    23   17   36 1
    24   18   37 1
    25   19   20 1
    26   19   21 1
    27   19   38 1
    28   20   39 1
    29   21   22 1
    30   21   40 1
    31   22   23 ar
    32   22   32 ar
    33   23   24 ar
    34   23   41 1
    35   24   25 ar
    36   24   45 1
    37   25   26 ar
    38   25   32 ar
    39   26   27 2
    40   26   28 ar
    41   28   29 ar
    42   28   42 1
    43   29   30 1
    44   29   31 ar
    45   30   43 1
    46   30   44 1
    47   31   32 ar
@<TRIPOS>SUBSTRUCTURE
     1 GTP         1 GROUP 0 A     ****
@<TRIPOS>MOLECULE
[[[5-(2-amino-6-oxo-7,8-dihydro-1~{H}-purin-8-ylium-9-yl)-3,4-dihydroxy-tetrahydrofuran-2-yl]methoxy-oxido-phosphoryl]oxy-oxido-phosphoryl] phosphate
   45    47     1     0     0
SMALL
USER_CHARGES

@<TRIPOS>ATOM
      1 PG          0.4624   -5.1284   -6.7281 P.3       1 GTP        -1.1921
      2 O1G         0.0243   -4.3327   -7.9532 O.co2     1 GTP         0.3195
      3 O2G         1.7318   -5.9485   -6.9316 O.co2     1 GTP         0.3195
      4 O3G        -0.6669   -5.8842   -6.0357 O.co2     1 GTP         0.3195
      5 O3B         0.8958   -3.9763   -5.6305 O.3       1 GTP         0.4672
      6 PB          0.0141   -2.7698   -4.9702 P.3       1 GTP        -1.1062
      7 O1B        -0.3617   -1.7893   -6.0587 O.co2     1 GTP         0.3195
      8 O2B        -1.0260   -3.3647   -4.0474 O.co2     1 GTP         0.3195
      9 O3A         1.1568   -2.1065   -4.0112 O.3       1 GTP         0.4672
     10 PA          2.0071   -2.7689   -2.7832 P.3       1 GTP        -1.1062
     11 O1A         1.0477   -3.0856   -1.6568 O.co2     1 GTP         0.3195
     12 O2A         2.9364   -3.8262   -3.3389 O.co2     1 GTP         0.3195
     13 O5'         2.9216   -1.4836   -2.3516 O.3       1 GTP         0.1618
     14 C5'         2.2816   -0.2918   -1.9206 C.3       1 GTP         0.1504
     15 C4'         2.7248    0.0226   -0.4980 C.3       1 GTP         0.1111
     16 O4'         2.4697    1.4219   -0.2462 O.3       1 GTP        -0.1436
     17 C3'         1.9404   -0.7419    0.5596 C.3       1 GTP         0.1111
     18 O3'         2.7418   -0.8086    1.7389 O.3       1 GTP        -0.2728
     19 C2'         0.7477    0.1630    0.7858 C.3       1 GTP         0.1111
     20 O2'         0.1373   -0.0577    2.0407 O.3       1 GTP        -0.2728
     21 C1'         1.3733    1.5427    0.6747 C.3       1 GTP         0.2693
     22 N9          0.4520    2.5240    0.1767 N.pl3     1 GTP        -0.3222
     23 C8         -0.2009    2.4849   -0.9792 C.ar      1 GTP         0.1640
     24 N7         -0.9840    3.5454   -1.1481 N.pl3     1 GTP        -0.3688
     25 C5         -0.8090    4.3005   -0.0206 C.ar      1 GTP         0.0648
     26 C6         -1.4206    5.5724    0.3362 C.ar      1 GTP         0.3597
     27 O6         -2.2199    6.1544   -0.3836 O.2       1 GTP        -0.2755
     28 N1         -0.9680    6.0043    1.5817 N.pl3     1 GTP        -0.1604
     29 C2         -0.0474    5.3055    2.3814 C.ar      1 GTP         0.4468
     30 N2          0.2680    5.9024    3.5740 N.pl3     1 GTP        -0.5618
     31 N3          0.4755    4.1601    2.0138 N.2       1 GTP        -0.4283
     32 C4          0.0611    3.6981    0.8001 C.ar      1 GTP         0.2226
     33 H5'         2.5589    0.5217   -2.5976 H         1 GTP        -0.0393
     34 H5''        1.1982   -0.4388   -1.9617 H         1 GTP        -0.0393
     35 H4'         3.8044   -0.1397   -0.4040 H         1 GTP        -0.0393
     36 H3'         1.6764   -1.7639    0.2728 H         1 GTP        -0.0393
     37 HO3'        3.5554   -1.2733    1.4914 H         1 GTP         0.2010
     38 H2'        -0.0011    0.0027    0.0003 H         1 GTP        -0.0393
     39 HO2'       -0.1563   -0.9855    2.0596 H         1 GTP         0.2010
     40 H1'         1.7826    1.9024    1.6451 H         1 GTP        -0.0393
     41 H8         -0.1126    1.6906   -1.6997 H         1 GTP         0.0000
     42 HN1        -1.3285    6.8855    1.9361 H         1 GTP         0.0865
     43 HN21        0.9153    5.4446    4.1732 H         1 GTP         0.2048
     44 HN22       -0.1624    6.7706    3.7948 H         1 GTP         0.2048
     45 H45        -1.5768    3.7405   -1.9429 H         1 GTP         0.2048
@<TRIPOS>BOND
     1    1    2 2
     2    1    3 1
     3    1    4 1
     4    1    5 1
     5    5    6 1
     6    6    7 2
     7    6    8 1
     8    6    9 1
     9    9   10 1
    10   10   11 2
    11   10   12 1
    12   10   13 1
    13   13   14 1
    14   14   15 1
    15   14   33 1
    16   14   34 1
    17   15   16 1
    18   15   17 1
    19   15   35 1
    20   16   21 1
    21   17   18 1
    22   17   19 1
    23   17   36 1
    24   18   37 1
    25   19   20 1
    26   19   21 1
    27   19   38 1
    28   20   39 1
    29   21   22 1
    30   21   40 1
    31   22   23 ar
    32   22   32 ar
    33   23   24 ar
    34   23   41 1
    35   24   25 ar
    36   24   45 1
    37   25   26 ar
    38   25   32 ar
    39   26   27 2
    40   26   28 ar
    41   28   29 ar
    42   28   42 1
    43   29   30 1
    44   29   31 ar
    45   30   43 1
    46   30   44 1
    47   31   32 ar
@<TRIPOS>SUBSTRUCTURE
     1 GTP         1 GROUP 0 A     ****
@<TRIPOS>MOLECULE
[[[5-(2-amino-6-oxo-7,8-dihydro-1~{H}-purin-8-ylium-9-yl)-3,4-dihydroxy-tetrahydrofuran-2-yl]methoxy-oxido-phosphoryl]oxy-oxido-phosphoryl] phosphate
   45    47     1     0     0
SMALL
USER_CHARGES

@<TRIPOS>ATOM
      1 PG         -1.6312   -0.3700    7.5528 P.3       1 GTP        -1.1921
      2 O1G        -1.2296    0.6928    6.5354 O.co2     1 GTP         0.3195
      3 O2G        -3.0901   -0.3012    7.9917 O.co2     1 GTP         0.3195
      4 O3G        -0.6404   -0.5460    8.6987 O.co2     1 GTP         0.3195
      5 O3B        -1.5252   -1.7892    6.7193 O.3       1 GTP         0.4672
      6 PB         -0.2433   -2.4784    5.9772 P.3       1 GTP        -1.1062
      7 O1B         0.1748   -1.6044    4.8158 O.co2     1 GTP         0.3195
      8 O2B         0.7496   -2.9320    7.0239 O.co2     1 GTP         0.3195
      9 O3A        -0.9653   -3.8284    5.4099 O.3       1 GTP         0.4672
     10 PA         -0.3419   -5.0626    4.5395 P.3       1 GTP        -1.1062
     11 O1A         0.8689   -5.5977    5.2725 O.co2     1 GTP         0.3195
     12 O2A        -1.4647   -5.9817    4.1099 O.co2     1 GTP         0.3195
     13 O5'         0.1618   -4.2444    3.2161 O.3       1 GTP         0.1618
     14 C5'        -0.7840   -3.8935    2.2172 C.3       1 GTP         0.1504
     15 C4'        -0.0724   -3.1466    1.1027 C.3       1 GTP         0.1111
     16 O4'        -0.8674   -3.1929   -0.0945 O.3       1 GTP        -0.1436
     17 C3'         0.1338   -1.6715    1.4027 C.3       1 GTP         0.1111
     18 O3'         1.2893   -1.4445    2.1808 O.3       1 GTP        -0.2728
     19 C2'         0.2158   -1.0724    0.0128 C.3       1 GTP         0.1111
     20 O2'         1.5141   -1.2448   -0.5513 O.3       1 GTP        -0.2728
     21 C1'        -0.7897   -1.9176   -0.7583 C.3       1 GTP         0.2693
     22 N9         -2.1040   -1.3333   -0.7704 N.pl3     1 GTP        -0.3222
     23 C8         -3.0597   -1.5109    0.1345 C.ar      1 GTP         0.1640
     24 N7         -4.1618   -0.8291   -0.1607 N.pl3     1 GTP        -0.3688
     25 C5         -3.8764   -0.1805   -1.3310 C.ar      1 GTP         0.0648
     26 C6         -4.7187    0.7111   -2.1152 C.ar      1 GTP         0.3597
     27 O6         -5.8617    1.0043   -1.7939 O.2       1 GTP        -0.2755
     28 N1         -4.0405    1.1608   -3.2468 N.pl3     1 GTP        -0.1604
     29 C2         -2.7239    0.8013   -3.5822 C.ar      1 GTP         0.4468
     30 N2         -2.2399    1.3534   -4.7394 N.pl3     1 GTP        -0.5618
     31 N3         -2.0053   -0.0071   -2.8402 N.2       1 GTP        -0.4283
     32 C4         -2.6290   -0.4727   -1.7210 C.ar      1 GTP         0.2226
     33 H5'        -1.2460   -4.8076    1.8325 H         1 GTP        -0.0393
     34 H5''       -1.5566   -3.2641    2.6688 H         1 GTP        -0.0393
     35 H4'         0.8874   -3.6466    0.8805 H         1 GTP        -0.0393
     36 H3'        -0.7376   -1.2333    1.9867 H         1 GTP        -0.0393
     37 HO3'        1.1626   -1.9325    3.0084 H         1 GTP         0.2010
     38 H2'        -0.0384   -0.0310    0.0096 H         1 GTP        -0.0393
     39 HO2'        2.1463   -0.7958    0.0370 H         1 GTP         0.2010
     40 H1'        -0.4769   -2.1002   -1.8093 H         1 GTP        -0.0393
     41 H8         -2.9610   -2.1316    1.0079 H         1 GTP         0.0000
     42 HN1        -4.5320    1.7923   -3.8726 H         1 GTP         0.0865
     43 HN21       -1.3128    1.1277   -5.0171 H         1 GTP         0.2048
     44 HN22       -2.8342    1.9586   -5.2572 H         1 GTP         0.2048
     45 H45        -5.0195   -0.8034    0.3729 H         1 GTP         0.2048
@<TRIPOS>BOND
     1    1    2 2
     2    1    3 1
     3    1    4 1
     4    1    5 1
     5    5    6 1
     6    6    7 2
     7    6    8 1
     8    6    9 1
     9    9   10 1
    10   10   11 2
    11   10   12 1
    12   10   13 1
    13   13   14 1
    14   14   15 1
    15   14   33 1
    16   14   34 1
    17   15   16 1
    18   15   17 1
    19   15   35 1
    20   16   21 1
    21   17   18 1
    22   17   19 1
    23   17   36 1
    24   18   37 1
    25   19   20 1
    26   19   21 1
    27   19   38 1
    28   20   39 1
    29   21   22 1
    30   21   40 1
    31   22   23 ar
    32   22   32 ar
    33   23   24 ar
    34   23   41 1
    35   24   25 ar
    36   24   45 1
    37   25   26 ar
    38   25   32 ar
    39   26   27 2
    40   26   28 ar
    41   28   29 ar
    42   28   42 1
    43   29   30 1
    44   29   31 ar
    45   30   43 1
    46   30   44 1
    47   31   32 ar
@<TRIPOS>SUBSTRUCTURE
     1 GTP         1 GROUP 0 A     ****
@<TRIPOS>MOLECULE
[[[5-(2-amino-6-oxo-7,8-dihydro-1~{H}-purin-8-ylium-9-yl)-3,4-dihydroxy-tetrahydrofuran-2-yl]methoxy-oxido-phosphoryl]oxy-oxido-phosphoryl] phosphate
   45    47     1     0     0
SMALL
USER_CHARGES

@<TRIPOS>ATOM
      1 PG         -4.3809   -5.7721   -2.8190 P.3       1 GTP        -1.1921
      2 O1G        -4.6053   -7.2667   -3.0232 O.co2     1 GTP         0.3195
      3 O2G        -5.5393   -5.0492   -2.1399 O.co2     1 GTP         0.3195
      4 O3G        -3.8224   -5.0500   -4.0407 O.co2     1 GTP         0.3195
      5 O3B        -3.1539   -5.6931   -1.7200 O.3       1 GTP         0.4672
      6 PB         -1.6277   -6.2698   -1.8060 P.3       1 GTP        -1.1062
      7 O1B        -1.6798   -7.7808   -1.8467 O.co2     1 GTP         0.3195
      8 O2B        -0.8561   -5.4765   -2.8369 O.co2     1 GTP         0.3195
      9 O3A        -1.0824   -5.7833   -0.3461 O.3       1 GTP         0.4672
     10 PA         -1.6222   -6.1552    1.1506 P.3       1 GTP        -1.1062
     11 O1A        -3.0065   -5.5671    1.3167 O.co2     1 GTP         0.3195
     12 O2A        -1.3577   -7.6202    1.4220 O.co2     1 GTP         0.3195
     13 O5'        -0.5687   -5.2869    2.0510 O.3       1 GTP         0.1618
     14 C5'        -0.7840   -3.8935    2.2172 C.3       1 GTP         0.1504
     15 C4'        -0.0724   -3.1466    1.1027 C.3       1 GTP         0.1111
     16 O4'        -0.8674   -3.1929   -0.0945 O.3       1 GTP        -0.1436
     17 C3'         0.1338   -1.6715    1.4027 C.3       1 GTP         0.1111
     18 O3'         1.2893   -1.4445    2.1808 O.3       1 GTP        -0.2728
     19 C2'         0.2158   -1.0724    0.0128 C.3       1 GTP         0.1111
     20 O2'         1.5141   -1.2448   -0.5513 O.3       1 GTP        -0.2728
     21 C1'        -0.7897   -1.9176   -0.7583 C.3       1 GTP         0.2693
     22 N9         -2.1040   -1.3333   -0.7704 N.pl3     1 GTP        -0.3222
     23 C8         -3.0597   -1.5109    0.1345 C.ar      1 GTP         0.1640
     24 N7         -4.1618   -0.8291   -0.1607 N.pl3     1 GTP        -0.3688
     25 C5         -3.8764   -0.1805   -1.3310 C.ar      1 GTP         0.0648
     26 C6         -4.7187    0.7111   -2.1152 C.ar      1 GTP         0.3597
     27 O6         -5.8617    1.0043   -1.7939 O.2       1 GTP        -0.2755
     28 N1         -4.0405    1.1608   -3.2468 N.pl3     1 GTP        -0.1604
     29 C2         -2.7239    0.8013   -3.5822 C.ar      1 GTP         0.4468
     30 N2         -2.2399    1.3534   -4.7394 N.pl3     1 GTP        -0.5618
     31 N3         -2.0053   -0.0071   -2.8402 N.2       1 GTP        -0.4283
     32 C4         -2.6290   -0.4727   -1.7210 C.ar      1 GTP         0.2226
     33 H5'        -1.8598   -3.6968    2.1850 H         1 GTP        -0.0393
     34 H5''       -0.3933   -3.5903    3.1931 H         1 GTP        -0.0393
     35 H4'         0.8874   -3.6466    0.8805 H         1 GTP        -0.0393
     36 H3'        -0.7376   -1.2333    1.9867 H         1 GTP        -0.0393
     37 HO3'        1.3408   -0.4870    2.3219 H         1 GTP         0.2010
     38 H2'        -0.0384   -0.0310    0.0096 H         1 GTP        -0.0393
     39 HO2'        2.1463   -0.7958    0.0370 H         1 GTP         0.2010
     40 H1'        -0.4769   -2.1002   -1.8093 H         1 GTP        -0.0393
     41 H8         -2.9610   -2.1316    1.0079 H         1 GTP         0.0000
     42 HN1        -4.5320    1.7923   -3.8726 H         1 GTP         0.0865
     43 HN21       -1.3128    1.1277   -5.0171 H         1 GTP         0.2048
     44 HN22       -2.8342    1.9586   -5.2572 H         1 GTP         0.2048
     45 H45        -5.0195   -0.8034    0.3729 H         1 GTP         0.2048
@<TRIPOS>BOND
     1    1    2 2
     2    1    3 1
     3    1    4 1
     4    1    5 1
     5    5    6 1
     6    6    7 2
     7    6    8 1
     8    6    9 1
     9    9   10 1
    10   10   11 2
    11   10   12 1
    12   10   13 1
    13   13   14 1
    14   14   15 1
    15   14   33 1
    16   14   34 1
    17   15   16 1
    18   15   17 1
    19   15   35 1
    20   16   21 1
    21   17   18 1
    22   17   19 1
    23   17   36 1
    24   18   37 1
    25   19   20 1
    26   19   21 1
    27   19   38 1
    28   20   39 1
    29   21   22 1
    30   21   40 1
    31   22   23 ar
    32   22   32 ar
    33   23   24 ar
    34   23   41 1
    35   24   25 ar
    36   24   45 1
    37   25   26 ar
    38   25   32 ar
    39   26   27 2
    40   26   28 ar
    41   28   29 ar
    42   28   42 1
    43   29   30 1
    44   29   31 ar
    45   30   43 1
    46   30   44 1
    47   31   32 ar
@<TRIPOS>SUBSTRUCTURE
     1 GTP         1 GROUP 0 A     ****
@<TRIPOS>MOLECULE
[[[5-(2-amino-6-oxo-7,8-dihydro-1~{H}-purin-8-ylium-9-yl)-3,4-dihydroxy-tetrahydrofuran-2-yl]methoxy-oxido-phosphoryl]oxy-oxido-phosphoryl] phosphate
   45    47     1     0     0
SMALL
USER_CHARGES

@<TRIPOS>ATOM
      1 PG          4.5465   -5.3751   -3.8101 P.3       1 GTP        -1.1921
      2 O1G         5.9270   -5.3993   -4.4578 O.co2     1 GTP         0.3195
      3 O2G         4.1754   -6.6571   -3.0723 O.co2     1 GTP         0.3195
      4 O3G         3.4426   -4.8281   -4.7090 O.co2     1 GTP         0.3195
      5 O3B         4.6788   -4.2445   -2.6167 O.3       1 GTP         0.4672
      6 PB          5.0518   -2.6567   -2.7105 P.3       1 GTP        -1.1062
      7 O1B         4.9012   -2.0392   -1.3380 O.co2     1 GTP         0.3195
      8 O2B         6.3207   -2.4931   -3.5170 O.co2     1 GTP         0.3195
      9 O3A         3.8279   -2.1576   -3.6689 O.3       1 GTP         0.4672
     10 PA          3.4850   -0.6647   -4.2376 P.3       1 GTP        -1.1062
     11 O1A         4.7151   -0.1278   -4.9364 O.co2     1 GTP         0.3195
     12 O2A         2.1420   -0.6972   -4.9342 O.co2     1 GTP         0.3195
     13 O5'         3.2903    0.1346   -2.8241 O.3       1 GTP         0.1618
     14 C5'         2.2816   -0.2918   -1.9206 C.3       1 GTP         0.1504
     15 C4'         2.7248    0.0226   -0.4980 C.3       1 GTP         0.1111
     16 O4'         2.4697    1.4219   -0.2462 O.3       1 GTP        -0.1436
     17 C3'         1.9404   -0.7419    0.5596 C.3       1 GTP         0.1111
     18 O3'         2.7418   -0.8086    1.7389 O.3       1 GTP        -0.2728
     19 C2'         0.7477    0.1630    0.7858 C.3       1 GTP         0.1111
     20 O2'         0.1373   -0.0577    2.0407 O.3       1 GTP        -0.2728
     21 C1'         1.3733    1.5427    0.6747 C.3       1 GTP         0.2693
     22 N9          0.4520    2.5240    0.1767 N.pl3     1 GTP        -0.3222
     23 C8         -0.2009    2.4849   -0.9792 C.ar      1 GTP         0.1640
     24 N7         -0.9840    3.5454   -1.1481 N.pl3     1 GTP        -0.3688
     25 C5         -0.8090    4.3005   -0.0206 C.ar      1 GTP         0.0648
     26 C6         -1.4206    5.5724    0.3362 C.ar      1 GTP         0.3597
     27 O6         -2.2199    6.1544   -0.3836 O.2       1 GTP        -0.2755
     28 N1         -0.9680    6.0043    1.5817 N.pl3     1 GTP        -0.1604
     29 C2         -0.0474    5.3055    2.3814 C.ar      1 GTP         0.4468
     30 N2          0.2680    5.9024    3.5740 N.pl3     1 GTP        -0.5618
     31 N3          0.4755    4.1601    2.0138 N.2       1 GTP        -0.4283
     32 C4          0.0611    3.6981    0.8001 C.ar      1 GTP         0.2226
     33 H5'         1.3514    0.2330   -2.1577 H         1 GTP        -0.0393
     34 H5''        2.1280   -1.3678   -2.0460 H         1 GTP        -0.0393
     35 H4'         3.8044   -0.1397   -0.4040 H         1 GTP        -0.0393
     36 H3'         1.6764   -1.7639    0.2728 H         1 GTP        -0.0393
     37 HO3'        2.2232   -1.2979    2.3953 H         1 GTP         0.2010
     38 H2'        -0.0011    0.0027    0.0003 H         1 GTP        -0.0393
     39 HO2'       -0.1563   -0.9855    2.0596 H         1 GTP         0.2010
     40 H1'         1.7826    1.9024    1.6451 H         1 GTP        -0.0393
     41 H8         -0.1126    1.6906   -1.6997 H         1 GTP         0.0000
     42 HN1        -1.3285    6.8855    1.9361 H         1 GTP         0.0865
     43 HN21        0.9153    5.4446    4.1732 H         1 GTP         0.2048
     44 HN22       -0.1624    6.7706    3.7948 H         1 GTP         0.2048
     45 H45        -1.5768    3.7405   -1.9429 H         1 GTP         0.2048
@<TRIPOS>BOND
     1    1    2 2
     2    1    3 1
     3    1    4 1
     4    1    5 1
     5    5    6 1
     6    6    7 2
     7    6    8 1
     8    6    9 1
     9    9   10 1
    10   10   11 2
    11   10   12 1
    12   10   13 1
    13   13   14 1
    14   14   15 1
    15   14   33 1
    16   14   34 1
    17   15   16 1
    18   15   17 1
    19   15   35 1
    20   16   21 1
    21   17   18 1
    22   17   19 1
    23   17   36 1
    24   18   37 1
    25   19   20 1
    26   19   21 1
    27   19   38 1
    28   20   39 1
    29   21   22 1
    30   21   40 1
    31   22   23 ar
    32   22   32 ar
    33   23   24 ar
    34   23   41 1
    35   24   25 ar
    36   24   45 1
    37   25   26 ar
    38   25   32 ar
    39   26   27 2
    40   26   28 ar
    41   28   29 ar
    42   28   42 1
    43   29   30 1
    44   29   31 ar
    45   30   43 1
    46   30   44 1
    47   31   32 ar
@<TRIPOS>SUBSTRUCTURE
     1 GTP         1 GROUP 0 A     ****
@<TRIPOS>MOLECULE
[[[5-(2-amino-6-oxo-7,8-dihydro-1~{H}-purin-8-ylium-9-yl)-3,4-dihydroxy-tetrahydrofuran-2-yl]methoxy-oxido-phosphoryl]oxy-oxido-phosphoryl] phosphate
   45    47     1     0     0
SMALL
USER_CHARGES

@<TRIPOS>ATOM
      1 PG          2.8988   -8.0616    4.9863 P.3       1 GTP        -1.1921
      2 O1G         3.2487   -7.7611    6.4400 O.co2     1 GTP         0.3195
      3 O2G         2.5996   -9.5296    4.7018 O.co2     1 GTP         0.3195
      4 O3G         3.8263   -7.4034    3.9701 O.co2     1 GTP         0.3195
      5 O3B         1.4546   -7.3007    4.7516 O.3       1 GTP         0.4672
      6 PB          1.0656   -5.7199    4.8880 P.3       1 GTP        -1.1062
      7 O1B         1.2054   -5.3073    6.3364 O.co2     1 GTP         0.3195
      8 O2B         1.7390   -4.9466    3.7763 O.co2     1 GTP         0.3195
      9 O3A        -0.5173   -5.8061    4.4973 O.3       1 GTP         0.4672
     10 PA         -1.2298   -6.3297    3.1234 P.3       1 GTP        -1.1062
     11 O1A        -0.7217   -7.7236    2.8254 O.co2     1 GTP         0.3195
     12 O2A        -2.7129   -6.0367    3.1926 O.co2     1 GTP         0.3195
     13 O5'        -0.5687   -5.2869    2.0510 O.3       1 GTP         0.1618
     14 C5'        -0.7840   -3.8935    2.2172 C.3       1 GTP         0.1504
     15 C4'        -0.0724   -3.1466    1.1027 C.3       1 GTP         0.1111
     16 O4'        -0.8674   -3.1929   -0.0945 O.3       1 GTP        -0.1436
     17 C3'         0.1338   -1.6715    1.4027 C.3       1 GTP         0.1111
     18 O3'         1.2893   -1.4445    2.1808 O.3       1 GTP        -0.2728
     19 C2'         0.2158   -1.0724    0.0128 C.3       1 GTP         0.1111
     20 O2'         1.5141   -1.2448   -0.5513 O.3       1 GTP        -0.2728
     21 C1'        -0.7897   -1.9176   -0.7583 C.3       1 GTP         0.2693
     22 N9         -2.1040   -1.3333   -0.7704 N.pl3     1 GTP        -0.3222
     23 C8         -3.0597   -1.5109    0.1345 C.ar      1 GTP         0.1640
     24 N7         -4.1618   -0.8291   -0.1607 N.pl3     1 GTP        -0.3688
     25 C5         -3.8764   -0.1805   -1.3310 C.ar      1 GTP         0.0648
     26 C6         -4.7187    0.7111   -2.1152 C.ar      1 GTP         0.3597
     27 O6         -5.8617    1.0043   -1.7939 O.2       1 GTP        -0.2755
     28 N1         -4.0405    1.1608   -3.2468 N.pl3     1 GTP        -0.1604
     29 C2         -2.7239    0.8013   -3.5822 C.ar      1 GTP         0.4468
     30 N2         -2.2399    1.3534   -4.7394 N.pl3     1 GTP        -0.5618
     31 N3         -2.0053   -0.0071   -2.8402 N.2       1 GTP        -0.4283
     32 C4         -2.6290   -0.4727   -1.7210 C.ar      1 GTP         0.2226
     33 H5'        -1.8598   -3.6968    2.1850 H         1 GTP        -0.0393
     34 H5''       -0.3933   -3.5903    3.1931 H         1 GTP        -0.0393
     35 H4'         0.8874   -3.6466    0.8805 H         1 GTP        -0.0393
     36 H3'        -0.7376   -1.2333    1.9867 H         1 GTP        -0.0393
     37 HO3'        2.0374   -1.7816    1.6652 H         1 GTP         0.2010
     38 H2'        -0.0384   -0.0310    0.0096 H         1 GTP        -0.0393
     39 HO2'        1.4998   -0.8412   -1.4369 H         1 GTP         0.2010
     40 H1'        -0.4769   -2.1002   -1.8093 H         1 GTP        -0.0393
     41 H8         -2.9610   -2.1316    1.0079 H         1 GTP         0.0000
     42 HN1        -4.5320    1.7923   -3.8726 H         1 GTP         0.0865
     43 HN21       -1.3128    1.1277   -5.0171 H         1 GTP         0.2048
     44 HN22       -2.8342    1.9586   -5.2572 H         1 GTP         0.2048
     45 H45        -5.0195   -0.8034    0.3729 H         1 GTP         0.2048
@<TRIPOS>BOND
     1    1    2 2
     2    1    3 1
     3    1    4 1
     4    1    5 1
     5    5    6 1
     6    6    7 2
     7    6    8 1
     8    6    9 1
     9    9   10 1
    10   10   11 2
    11   10   12 1
    12   10   13 1
    13   13   14 1
    14   14   15 1
    15   14   33 1
    16   14   34 1
    17   15   16 1
    18   15   17 1
    19   15   35 1
    20   16   21 1
    21   17   18 1
    22   17   19 1
    23   17   36 1
    24   18   37 1
    25   19   20 1
    26   19   21 1
    27   19   38 1
    28   20   39 1
    29   21   22 1
    30   21   40 1
    31   22   23 ar
    32   22   32 ar
    33   23   24 ar
    34   23   41 1
    35   24   25 ar
    36   24   45 1
    37   25   26 ar
    38   25   32 ar
    39   26   27 2
    40   26   28 ar
    41   28   29 ar
    42   28   42 1
    43   29   30 1
    44   29   31 ar
    45   30   43 1
    46   30   44 1
    47   31   32 ar
@<TRIPOS>SUBSTRUCTURE
     1 GTP         1 GROUP 0 A     ****
@<TRIPOS>MOLECULE
[[[5-(2-amino-6-oxo-7,8-dihydro-1~{H}-purin-8-ylium-9-yl)-3,4-dihydroxy-tetrahydrofuran-2-yl]methoxy-oxido-phosphoryl]oxy-oxido-phosphoryl] phosphate
   45    47     1     0     0
SMALL
USER_CHARGES

@<TRIPOS>ATOM
      1 PG          2.3749    0.7192   -7.0285 P.3       1 GTP        -1.1921
      2 O1G         2.2111    1.3845   -5.6660 O.co2     1 GTP         0.3195
      3 O2G         3.7566    0.8912   -7.6504 O.co2     1 GTP         0.3195
      4 O3G         1.2192    0.9711   -7.9913 O.co2     1 GTP         0.3195
      5 O3B         2.2737   -0.8950   -6.7059 O.3       1 GTP         0.4672
      6 PB          1.0592   -1.7584   -6.0361 P.3       1 GTP        -1.1062
      7 O1B        -0.2421   -1.0194   -6.2554 O.co2     1 GTP         0.3195
      8 O2B         1.2172   -3.2133   -6.4176 O.co2     1 GTP         0.3195
      9 O3A         1.4924   -1.6431   -4.4662 O.3       1 GTP         0.4672
     10 PA          2.8604   -2.1325   -3.7186 P.3       1 GTP        -1.1062
     11 O1A         2.9139   -3.6439   -3.7665 O.co2     1 GTP         0.3195
     12 O2A         4.0199   -1.2934   -4.2099 O.co2     1 GTP         0.3195
     13 O5'         2.5245   -1.6648   -2.1878 O.3       1 GTP         0.1618
     14 C5'         2.2816   -0.2918   -1.9206 C.3       1 GTP         0.1504
     15 C4'         2.7248    0.0226   -0.4980 C.3       1 GTP         0.1111
     16 O4'         2.4697    1.4219   -0.2462 O.3       1 GTP        -0.1436
     17 C3'         1.9404   -0.7419    0.5596 C.3       1 GTP         0.1111
     18 O3'         2.7418   -0.8086    1.7389 O.3       1 GTP        -0.2728
     19 C2'         0.7477    0.1630    0.7858 C.3       1 GTP         0.1111
     20 O2'         0.1373   -0.0577    2.0407 O.3       1 GTP        -0.2728
     21 C1'         1.3733    1.5427    0.6747 C.3       1 GTP         0.2693
     22 N9          0.4520    2.5240    0.1767 N.pl3     1 GTP        -0.3222
     23 C8          0.5671    3.2221   -0.9473 C.ar      1 GTP         0.1640
     24 N7         -0.4560    4.0508   -1.1290 N.pl3     1 GTP        -0.3688
     25 C5         -1.2671    3.8585   -0.0441 C.ar      1 GTP         0.0648
     26 C6         -2.5318    4.5014    0.2817 C.ar      1 GTP         0.3597
     27 O6         -3.0527    5.3493   -0.4293 O.2       1 GTP        -0.2755
     28 N1         -3.0357    4.0149    1.4868 N.pl3     1 GTP        -0.1604
     29 C2         -2.4069    3.0373    2.2768 C.ar      1 GTP         0.4468
     30 N2         -3.0679    2.6964    3.4278 N.pl3     1 GTP        -0.5618
     31 N3         -1.2653    2.4872    1.9379 N.2       1 GTP        -0.4283
     32 C4         -0.7342    2.9334    0.7643 C.ar      1 GTP         0.2226
     33 H5'         2.8432    0.3119   -2.6398 H         1 GTP        -0.0393
     34 H5''        1.2128   -0.0927   -2.0428 H         1 GTP        -0.0393
     35 H4'         3.8044   -0.1397   -0.4040 H         1 GTP        -0.0393
     36 H3'         1.6764   -1.7639    0.2728 H         1 GTP        -0.0393
     37 HO3'        3.5554   -1.2733    1.4914 H         1 GTP         0.2010
     38 H2'        -0.0011    0.0027    0.0003 H         1 GTP        -0.0393
     39 HO2'        0.8082    0.1199    2.7232 H         1 GTP         0.2010
     40 H1'         1.7826    1.9024    1.6451 H         1 GTP        -0.0393
     41 H8          1.3888    3.1325   -1.6361 H         1 GTP         0.0000
     42 HN1        -3.9188    4.3932    1.8170 H         1 GTP         0.0865
     43 HN21       -2.6609    2.0087    4.0186 H         1 GTP         0.2048
     44 HN22       -3.9293    3.1496    3.6283 H         1 GTP         0.2048
     45 H45        -0.5938    4.6820   -1.9060 H         1 GTP         0.2048
@<TRIPOS>BOND
     1    1    2 2
     2    1    3 1
     3    1    4 1
     4    1    5 1
     5    5    6 1
     6    6    7 2
     7    6    8 1
     8    6    9 1
     9    9   10 1
    10   10   11 2
    11   10   12 1
    12   10   13 1
    13   13   14 1
    14   14   15 1
    15   14   33 1
    16   14   34 1
    17   15   16 1
    18   15   17 1
    19   15   35 1
    20   16   21 1
    21   17   18 1
    22   17   19 1
    23   17   36 1
    24   18   37 1
    25   19   20 1
    26   19   21 1
    27   19   38 1
    28   20   39 1
    29   21   22 1
    30   21   40 1
    31   22   23 ar
    32   22   32 ar
    33   23   24 ar
    34   23   41 1
    35   24   25 ar
    36   24   45 1
    37   25   26 ar
    38   25   32 ar
    39   26   27 2
    40   26   28 ar
    41   28   29 ar
    42   28   42 1
    43   29   30 1
    44   29   31 ar
    45   30   43 1
    46   30   44 1
    47   31   32 ar
@<TRIPOS>SUBSTRUCTURE
     1 GTP         1 GROUP 0 A     ****
@<TRIPOS>MOLECULE
[[[5-(2-amino-6-oxo-7,8-dihydro-1~{H}-purin-8-ylium-9-yl)-3,4-dihydroxy-tetrahydrofuran-2-yl]methoxy-oxido-phosphoryl]oxy-oxido-phosphoryl] phosphate
   45    47     1     0     0
SMALL
USER_CHARGES

@<TRIPOS>ATOM
      1 PG         -4.1257   -5.6141    6.9778 P.3       1 GTP        -1.1921
      2 O1G        -4.4916   -7.0864    7.1337 O.co2     1 GTP         0.3195
      3 O2G        -3.7327   -4.9225    8.2789 O.co2     1 GTP         0.3195
      4 O3G        -5.0957   -4.8161    6.1128 O.co2     1 GTP         0.3195
      5 O3B        -2.7341   -5.6340    6.0930 O.3       1 GTP         0.4672
      6 PB         -2.4480   -6.2283    4.5983 P.3       1 GTP        -1.1062
      7 O1B        -2.6116   -7.7315    4.6325 O.co2     1 GTP         0.3195
      8 O2B        -3.1720   -5.3764    3.5799 O.co2     1 GTP         0.3195
      9 O3A        -0.8636   -5.8563    4.4688 O.3       1 GTP         0.4672
     10 PA          0.1784   -6.1260    3.2395 P.3       1 GTP        -1.1062
     11 O1A         1.4888   -5.4445    3.5685 O.co2     1 GTP         0.3195
     12 O2A         0.1322   -7.5913    2.8643 O.co2     1 GTP         0.3195
     13 O5'        -0.5687   -5.2869    2.0510 O.3       1 GTP         0.1618
     14 C5'        -0.7840   -3.8935    2.2172 C.3       1 GTP         0.1504
     15 C4'        -0.0724   -3.1466    1.1027 C.3       1 GTP         0.1111
     16 O4'        -0.8674   -3.1929   -0.0945 O.3       1 GTP        -0.1436
     17 C3'         0.1338   -1.6715    1.4027 C.3       1 GTP         0.1111
     18 O3'         1.2893   -1.4445    2.1808 O.3       1 GTP        -0.2728
     19 C2'         0.2158   -1.0724    0.0128 C.3       1 GTP         0.1111
     20 O2'         1.5141   -1.2448   -0.5513 O.3       1 GTP        -0.2728
     21 C1'        -0.7897   -1.9176   -0.7583 C.3       1 GTP         0.2693
     22 N9         -2.1040   -1.3333   -0.7704 N.pl3     1 GTP        -0.3222
     23 C8         -3.0597   -1.5109    0.1345 C.ar      1 GTP         0.1640
     24 N7         -4.1618   -0.8291   -0.1607 N.pl3     1 GTP        -0.3688
     25 C5         -3.8764   -0.1805   -1.3310 C.ar      1 GTP         0.0648
     26 C6         -4.7187    0.7111   -2.1152 C.ar      1 GTP         0.3597
     27 O6         -5.8617    1.0043   -1.7939 O.2       1 GTP        -0.2755
     28 N1         -4.0405    1.1608   -3.2468 N.pl3     1 GTP        -0.1604
     29 C2         -2.7239    0.8013   -3.5822 C.ar      1 GTP         0.4468
     30 N2         -2.2399    1.3534   -4.7394 N.pl3     1 GTP        -0.5618
     31 N3         -2.0053   -0.0071   -2.8402 N.2       1 GTP        -0.4283
     32 C4         -2.6290   -0.4727   -1.7210 C.ar      1 GTP         0.2226
     33 H5'        -1.8598   -3.6968    2.1850 H         1 GTP        -0.0393
     34 H5''       -0.3933   -3.5903    3.1931 H         1 GTP        -0.0393
     35 H4'         0.8874   -3.6466    0.8805 H         1 GTP        -0.0393
     36 H3'        -0.7376   -1.2333    1.9867 H         1 GTP        -0.0393
     37 HO3'        1.3408   -0.4870    2.3219 H         1 GTP         0.2010
     38 H2'        -0.0384   -0.0310    0.0096 H         1 GTP        -0.0393
     39 HO2'        2.1463   -0.7958    0.0370 H         1 GTP         0.2010
     40 H1'        -0.4769   -2.1002   -1.8093 H         1 GTP        -0.0393
     41 H8         -2.9610   -2.1316    1.0079 H         1 GTP         0.0000
     42 HN1        -4.5320    1.7923   -3.8726 H         1 GTP         0.0865
     43 HN21       -1.3128    1.1277   -5.0171 H         1 GTP         0.2048
     44 HN22       -2.8342    1.9586   -5.2572 H         1 GTP         0.2048
     45 H45        -5.0195   -0.8034    0.3729 H         1 GTP         0.2048
@<TRIPOS>BOND
     1    1    2 2
     2    1    3 1
     3    1    4 1
     4    1    5 1
     5    5    6 1
     6    6    7 2
     7    6    8 1
     8    6    9 1
     9    9   10 1
    10   10   11 2
    11   10   12 1
    12   10   13 1
    13   13   14 1
    14   14   15 1
    15   14   33 1
    16   14   34 1
    17   15   16 1
    18   15   17 1
    19   15   35 1
    20   16   21 1
    21   17   18 1
    22   17   19 1
    23   17   36 1
    24   18   37 1
    25   19   20 1
    26   19   21 1
    27   19   38 1
    28   20   39 1
    29   21   22 1
    30   21   40 1
    31   22   23 ar
    32   22   32 ar
    33   23   24 ar
    34   23   41 1
    35   24   25 ar
    36   24   45 1
    37   25   26 ar
    38   25   32 ar
    39   26   27 2
    40   26   28 ar
    41   28   29 ar
    42   28   42 1
    43   29   30 1
    44   29   31 ar
    45   30   43 1
    46   30   44 1
    47   31   32 ar
@<TRIPOS>SUBSTRUCTURE
     1 GTP         1 GROUP 0 A     ****
@<TRIPOS>MOLECULE
[[[5-(2-amino-6-oxo-7,8-dihydro-1~{H}-purin-8-ylium-9-yl)-3,4-dihydroxy-tetrahydrofuran-2-yl]methoxy-oxido-phosphoryl]oxy-oxido-phosphoryl] phosphate
   45    47     1     0     0
SMALL
USER_CHARGES

@<TRIPOS>ATOM
      1 PG          8.9608   -1.5708   -1.6750 P.3       1 GTP        -1.1921
      2 O1G         9.4585   -0.5704   -2.7130 O.co2     1 GTP         0.3195
      3 O2G         9.1051   -1.1030   -0.2307 O.co2     1 GTP         0.3195
      4 O3G         9.4196   -3.0050   -1.9173 O.co2     1 GTP         0.3195
      5 O3B         7.3311   -1.6321   -1.9203 O.3       1 GTP         0.4672
      6 PB          6.4844   -2.0554   -3.2518 P.3       1 GTP        -1.1062
      7 O1B         6.7500   -1.0400   -4.3409 O.co2     1 GTP         0.3195
      8 O2B         6.6524   -3.5387   -3.4946 O.co2     1 GTP         0.3195
      9 O3A         4.9710   -1.8506   -2.6744 O.3       1 GTP         0.4672
     10 PA          3.5298   -2.0738   -3.4112 P.3       1 GTP        -1.1062
     11 O1A         3.3966   -1.0484   -4.5160 O.co2     1 GTP         0.3195
     12 O2A         3.3387   -3.5494   -3.6873 O.co2     1 GTP         0.3195
     13 O5'         2.5245   -1.6648   -2.1878 O.3       1 GTP         0.1618
     14 C5'         2.2816   -0.2918   -1.9206 C.3       1 GTP         0.1504
     15 C4'         2.7248    0.0226   -0.4980 C.3       1 GTP         0.1111
     16 O4'         2.4697    1.4219   -0.2462 O.3       1 GTP        -0.1436
     17 C3'         1.9404   -0.7419    0.5596 C.3       1 GTP         0.1111
     18 O3'         2.7418   -0.8086    1.7389 O.3       1 GTP        -0.2728
     19 C2'         0.7477    0.1630    0.7858 C.3       1 GTP         0.1111
     20 O2'         0.1373   -0.0577    2.0407 O.3       1 GTP        -0.2728
     21 C1'         1.3733    1.5427    0.6747 C.3       1 GTP         0.2693
     22 N9          0.4520    2.5240    0.1767 N.pl3     1 GTP        -0.3222
     23 C8          0.5671    3.2221   -0.9473 C.ar      1 GTP         0.1640
     24 N7         -0.4560    4.0508   -1.1290 N.pl3     1 GTP        -0.3688
     25 C5         -1.2671    3.8585   -0.0441 C.ar      1 GTP         0.0648
     26 C6         -2.5318    4.5014    0.2817 C.ar      1 GTP         0.3597
     27 O6         -3.0527    5.3493   -0.4293 O.2       1 GTP        -0.2755
     28 N1         -3.0357    4.0149    1.4868 N.pl3     1 GTP        -0.1604
     29 C2         -2.4069    3.0373    2.2768 C.ar      1 GTP         0.4468
     30 N2         -3.0679    2.6964    3.4278 N.pl3     1 GTP        -0.5618
     31 N3         -1.2653    2.4872    1.9379 N.2       1 GTP        -0.4283
     32 C4         -0.7342    2.9334    0.7643 C.ar      1 GTP         0.2226
     33 H5'         2.8432    0.3119   -2.6398 H         1 GTP        -0.0393
     34 H5''        1.2128   -0.0927   -2.0428 H         1 GTP        -0.0393
     35 H4'         3.8044   -0.1397   -0.4040 H         1 GTP        -0.0393
     36 H3'         1.6764   -1.7639    0.2728 H         1 GTP        -0.0393
     37 HO3'        2.2232   -1.2979    2.3953 H         1 GTP         0.2010
     38 H2'        -0.0011    0.0027    0.0003 H         1 GTP        -0.0393
     39 HO2'       -0.1563   -0.9855    2.0596 H         1 GTP         0.2010
     40 H1'         1.7826    1.9024    1.6451 H         1 GTP        -0.0393
     41 H8          1.3888    3.1325   -1.6361 H         1 GTP         0.0000
     42 HN1        -3.9188    4.3932    1.8170 H         1 GTP         0.0865
     43 HN21       -2.6609    2.0087    4.0186 H         1 GTP         0.2048
     44 HN22       -3.9293    3.1496    3.6283 H         1 GTP         0.2048
     45 H45        -0.5938    4.6820   -1.9060 H         1 GTP         0.2048
@<TRIPOS>BOND
     1    1    2 2
     2    1    3 1
     3    1    4 1
     4    1    5 1
     5    5    6 1
     6    6    7 2
     7    6    8 1
     8    6    9 1
     9    9   10 1
    10   10   11 2
    11   10   12 1
    12   10   13 1
    13   13   14 1
    14   14   15 1
    15   14   33 1
    16   14   34 1
    17   15   16 1
    18   15   17 1
    19   15   35 1
    20   16   21 1
    21   17   18 1
    22   17   19 1
    23   17   36 1
    24   18   37 1
    25   19   20 1
    26   19   21 1
    27   19   38 1
    28   20   39 1
    29   21   22 1
    30   21   40 1
    31   22   23 ar
    32   22   32 ar
    33   23   24 ar
    34   23   41 1
    35   24   25 ar
    36   24   45 1
    37   25   26 ar
    38   25   32 ar
    39   26   27 2
    40   26   28 ar
    41   28   29 ar
    42   28   42 1
    43   29   30 1
    44   29   31 ar
    45   30   43 1
    46   30   44 1
    47   31   32 ar
@<TRIPOS>SUBSTRUCTURE
     1 GTP         1 GROUP 0 A     ****
@<TRIPOS>MOLECULE
[[[5-(2-amino-6-oxo-7,8-dihydro-1~{H}-purin-8-ylium-9-yl)-3,4-dihydroxy-tetrahydrofuran-2-yl]methoxy-oxido-phosphoryl]oxy-oxido-phosphoryl] phosphate
   45    47     1     0     0
SMALL
USER_CHARGES

@<TRIPOS>ATOM
      1 PG          0.3236   -0.1674   -7.6602 P.3       1 GTP        -1.1921
      2 O1G         0.6148   -1.3569   -8.5690 O.co2     1 GTP         0.3195
      3 O2G        -1.0789    0.4118   -7.8121 O.co2     1 GTP         0.3195
      4 O3G         1.4325    0.8791   -7.6238 O.co2     1 GTP         0.3195
      5 O3B         0.3356   -0.8066   -6.1399 O.3       1 GTP         0.4672
      6 PB          1.5280   -1.5811   -5.3353 P.3       1 GTP        -1.1062
      7 O1B         1.8196   -2.8886   -6.0374 O.co2     1 GTP         0.3195
      8 O2B         2.6276   -0.5948   -5.0105 O.co2     1 GTP         0.3195
      9 O3A         0.7459   -1.8788   -3.9335 O.3       1 GTP         0.4672
     10 PA          1.2687   -2.6351   -2.5828 P.3       1 GTP        -1.1062
     11 O1A         0.1988   -2.5052   -1.5207 O.co2     1 GTP         0.3195
     12 O2A         1.8350   -3.9866   -2.9603 O.co2     1 GTP         0.3195
     13 O5'         2.5245   -1.6648   -2.1878 O.3       1 GTP         0.1618
     14 C5'         2.2816   -0.2918   -1.9206 C.3       1 GTP         0.1504
     15 C4'         2.7248    0.0226   -0.4980 C.3       1 GTP         0.1111
     16 O4'         2.4697    1.4219   -0.2462 O.3       1 GTP        -0.1436
     17 C3'         1.9404   -0.7419    0.5596 C.3       1 GTP         0.1111
     18 O3'         2.7418   -0.8086    1.7389 O.3       1 GTP        -0.2728
     19 C2'         0.7477    0.1630    0.7858 C.3       1 GTP         0.1111
     20 O2'         0.1373   -0.0577    2.0407 O.3       1 GTP        -0.2728
     21 C1'         1.3733    1.5427    0.6747 C.3       1 GTP         0.2693
     22 N9          0.4520    2.5240    0.1767 N.pl3     1 GTP        -0.3222
     23 C8         -0.2009    2.4849   -0.9792 C.ar      1 GTP         0.1640
     24 N7         -0.9840    3.5454   -1.1481 N.pl3     1 GTP        -0.3688
     25 C5         -0.8090    4.3005   -0.0206 C.ar      1 GTP         0.0648
     26 C6         -1.4206    5.5724    0.3362 C.ar      1 GTP         0.3597
     27 O6         -2.2199    6.1544   -0.3836 O.2       1 GTP        -0.2755
     28 N1         -0.9680    6.0043    1.5817 N.pl3     1 GTP        -0.1604
     29 C2         -0.0474    5.3055    2.3814 C.ar      1 GTP         0.4468
     30 N2          0.2680    5.9024    3.5740 N.pl3     1 GTP        -0.5618
     31 N3          0.4755    4.1601    2.0138 N.2       1 GTP        -0.4283
     32 C4          0.0611    3.6981    0.8001 C.ar      1 GTP         0.2226
     33 H5'         2.8432    0.3119   -2.6398 H         1 GTP        -0.0393
     34 H5''        1.2128   -0.0927   -2.0428 H         1 GTP        -0.0393
     35 H4'         3.8044   -0.1397   -0.4040 H         1 GTP        -0.0393
     36 H3'         1.6764   -1.7639    0.2728 H         1 GTP        -0.0393
     37 HO3'        3.5554   -1.2733    1.4914 H         1 GTP         0.2010
     38 H2'        -0.0011    0.0027    0.0003 H         1 GTP        -0.0393
     39 HO2'       -0.1563   -0.9855    2.0596 H         1 GTP         0.2010
     40 H1'         1.7826    1.9024    1.6451 H         1 GTP        -0.0393
     41 H8         -0.1126    1.6906   -1.6997 H         1 GTP         0.0000
     42 HN1        -1.3285    6.8855    1.9361 H         1 GTP         0.0865
     43 HN21        0.9153    5.4446    4.1732 H         1 GTP         0.2048
     44 HN22       -0.1624    6.7706    3.7948 H         1 GTP         0.2048
     45 H45        -1.5768    3.7405   -1.9429 H         1 GTP         0.2048
@<TRIPOS>BOND
     1    1    2 2
     2    1    3 1
     3    1    4 1
     4    1    5 1
     5    5    6 1
     6    6    7 2
     7    6    8 1
     8    6    9 1
     9    9   10 1
    10   10   11 2
    11   10   12 1
    12   10   13 1
    13   13   14 1
    14   14   15 1
    15   14   33 1
    16   14   34 1
    17   15   16 1
    18   15   17 1
    19   15   35 1
    20   16   21 1
    21   17   18 1
    22   17   19 1
    23   17   36 1
    24   18   37 1
    25   19   20 1
    26   19   21 1
    27   19   38 1
    28   20   39 1
    29   21   22 1
    30   21   40 1
    31   22   23 ar
    32   22   32 ar
    33   23   24 ar
    34   23   41 1
    35   24   25 ar
    36   24   45 1
    37   25   26 ar
    38   25   32 ar
    39   26   27 2
    40   26   28 ar
    41   28   29 ar
    42   28   42 1
    43   29   30 1
    44   29   31 ar
    45   30   43 1
    46   30   44 1
    47   31   32 ar
@<TRIPOS>SUBSTRUCTURE
     1 GTP         1 GROUP 0 A     ****
@<TRIPOS>MOLECULE
[[[5-(2-amino-6-oxo-7,8-dihydro-1~{H}-purin-8-ylium-9-yl)-3,4-dihydroxy-tetrahydrofuran-2-yl]methoxy-oxido-phosphoryl]oxy-oxido-phosphoryl] phosphate
   45    47     1     0     0
SMALL
USER_CHARGES

@<TRIPOS>ATOM
      1 PG          4.0679   -6.9453    5.0136 P.3       1 GTP        -1.1921
      2 O1G         4.1414   -8.4640    4.8948 O.co2     1 GTP         0.3195
      3 O2G         5.0426   -6.1959    4.1114 O.co2     1 GTP         0.3195
      4 O3G         4.0214   -6.4310    6.4487 O.co2     1 GTP         0.3195
      5 O3B         2.5814   -6.5632    4.4101 O.3       1 GTP         0.4672
      6 PB          1.0955   -7.0276    4.9054 P.3       1 GTP        -1.1062
      7 O1B         0.9537   -8.5178    4.6889 O.co2     1 GTP         0.3195
      8 O2B         0.7985   -6.3907    6.2446 O.co2     1 GTP         0.3195
      9 O3A         0.1923   -6.2295    3.8041 O.3       1 GTP         0.4672
     10 PA          0.1825   -6.3469    2.1744 P.3       1 GTP        -1.1062
     11 O1A         1.5117   -5.8452    1.6535 O.co2     1 GTP         0.3195
     12 O2A        -0.3482   -7.7080    1.7797 O.co2     1 GTP         0.3195
     13 O5'        -0.9724   -5.2440    1.8220 O.3       1 GTP         0.1618
     14 C5'        -0.7840   -3.8935    2.2172 C.3       1 GTP         0.1504
     15 C4'        -0.0724   -3.1466    1.1027 C.3       1 GTP         0.1111
     16 O4'        -0.8674   -3.1929   -0.0945 O.3       1 GTP        -0.1436
     17 C3'         0.1338   -1.6715    1.4027 C.3       1 GTP         0.1111
     18 O3'         1.2893   -1.4445    2.1808 O.3       1 GTP        -0.2728
     19 C2'         0.2158   -1.0724    0.0128 C.3       1 GTP         0.1111
     20 O2'         1.5141   -1.2448   -0.5513 O.3       1 GTP        -0.2728
     21 C1'        -0.7897   -1.9176   -0.7583 C.3       1 GTP         0.2693
     22 N9         -2.1040   -1.3333   -0.7704 N.pl3     1 GTP        -0.3222
     23 C8         -3.0597   -1.5109    0.1345 C.ar      1 GTP         0.1640
     24 N7         -4.1618   -0.8291   -0.1607 N.pl3     1 GTP        -0.3688
     25 C5         -3.8764   -0.1805   -1.3310 C.ar      1 GTP         0.0648
     26 C6         -4.7187    0.7111   -2.1152 C.ar      1 GTP         0.3597
     27 O6         -5.8617    1.0043   -1.7939 O.2       1 GTP        -0.2755
     28 N1         -4.0405    1.1608   -3.2468 N.pl3     1 GTP        -0.1604
     29 C2         -2.7239    0.8013   -3.5822 C.ar      1 GTP         0.4468
     30 N2         -2.2399    1.3534   -4.7394 N.pl3     1 GTP        -0.5618
     31 N3         -2.0053   -0.0071   -2.8402 N.2       1 GTP        -0.4283
     32 C4         -2.6290   -0.4727   -1.7210 C.ar      1 GTP         0.2226
     33 H5'        -1.7618   -3.4448    2.4164 H         1 GTP        -0.0393
     34 H5''       -0.1874   -3.8744    3.1341 H         1 GTP        -0.0393
     35 H4'         0.8874   -3.6466    0.8805 H         1 GTP        -0.0393
     36 H3'        -0.7376   -1.2333    1.9867 H         1 GTP        -0.0393
     37 HO3'        1.1626   -1.9325    3.0084 H         1 GTP         0.2010
     38 H2'        -0.0384   -0.0310    0.0096 H         1 GTP        -0.0393
     39 HO2'        2.1463   -0.7958    0.0370 H         1 GTP         0.2010
     40 H1'        -0.4769   -2.1002   -1.8093 H         1 GTP        -0.0393
     41 H8         -2.9610   -2.1316    1.0079 H         1 GTP         0.0000
     42 HN1        -4.5320    1.7923   -3.8726 H         1 GTP         0.0865
     43 HN21       -1.3128    1.1277   -5.0171 H         1 GTP         0.2048
     44 HN22       -2.8342    1.9586   -5.2572 H         1 GTP         0.2048
     45 H45        -5.0195   -0.8034    0.3729 H         1 GTP         0.2048
@<TRIPOS>BOND
     1    1    2 2
     2    1    3 1
     3    1    4 1
     4    1    5 1
     5    5    6 1
     6    6    7 2
     7    6    8 1
     8    6    9 1
     9    9   10 1
    10   10   11 2
    11   10   12 1
    12   10   13 1
    13   13   14 1
    14   14   15 1
    15   14   33 1
    16   14   34 1
    17   15   16 1
    18   15   17 1
    19   15   35 1
    20   16   21 1
    21   17   18 1
    22   17   19 1
    23   17   36 1
    24   18   37 1
    25   19   20 1
    26   19   21 1
    27   19   38 1
    28   20   39 1
    29   21   22 1
    30   21   40 1
    31   22   23 ar
    32   22   32 ar
    33   23   24 ar
    34   23   41 1
    35   24   25 ar
    36   24   45 1
    37   25   26 ar
    38   25   32 ar
    39   26   27 2
    40   26   28 ar
    41   28   29 ar
    42   28   42 1
    43   29   30 1
    44   29   31 ar
    45   30   43 1
    46   30   44 1
    47   31   32 ar
@<TRIPOS>SUBSTRUCTURE
     1 GTP         1 GROUP 0 A     ****
@<TRIPOS>MOLECULE
[[[5-(2-amino-6-oxo-7,8-dihydro-1~{H}-purin-8-ylium-9-yl)-3,4-dihydroxy-tetrahydrofuran-2-yl]methoxy-oxido-phosphoryl]oxy-oxido-phosphoryl] phosphate
   45    47     1     0     0
SMALL
USER_CHARGES

@<TRIPOS>ATOM
      1 PG          0.5776   -2.7262   -6.9911 P.3       1 GTP        -1.1921
      2 O1G         1.5782   -2.8924   -8.1299 O.co2     1 GTP         0.3195
      3 O2G        -0.5200   -3.7845   -6.9586 O.co2     1 GTP         0.3195
      4 O3G         0.0762   -1.2984   -6.8016 O.co2     1 GTP         0.3195
      5 O3B         1.4614   -3.0170   -5.6294 O.3       1 GTP         0.4672
      6 PB          2.7833   -2.2506   -5.0514 P.3       1 GTP        -1.1062
      7 O1B         3.1229   -2.8227   -3.6931 O.co2     1 GTP         0.3195
      8 O2B         3.8183   -2.1520   -6.1498 O.co2     1 GTP         0.3195
      9 O3A         2.1583   -0.7533   -4.8703 O.3       1 GTP         0.4672
     10 PA          2.8629    0.6171   -4.3271 P.3       1 GTP        -1.1062
     11 O1A         4.1178    0.8599   -5.1370 O.co2     1 GTP         0.3195
     12 O2A         1.8074    1.6915   -4.1805 O.co2     1 GTP         0.3195
     13 O5'         3.2903    0.1346   -2.8241 O.3       1 GTP         0.1618
     14 C5'         2.2816   -0.2918   -1.9206 C.3       1 GTP         0.1504
     15 C4'         2.7248    0.0226   -0.4980 C.3       1 GTP         0.1111
     16 O4'         2.4697    1.4219   -0.2462 O.3       1 GTP        -0.1436
     17 C3'         1.9404   -0.7419    0.5596 C.3       1 GTP         0.1111
     18 O3'         2.7418   -0.8086    1.7389 O.3       1 GTP        -0.2728
     19 C2'         0.7477    0.1630    0.7858 C.3       1 GTP         0.1111
     20 O2'         0.1373   -0.0577    2.0407 O.3       1 GTP        -0.2728
     21 C1'         1.3733    1.5427    0.6747 C.3       1 GTP         0.2693
     22 N9          0.4520    2.5240    0.1767 N.pl3     1 GTP        -0.3222
     23 C8          0.5671    3.2221   -0.9473 C.ar      1 GTP         0.1640
     24 N7         -0.4560    4.0508   -1.1290 N.pl3     1 GTP        -0.3688
     25 C5         -1.2671    3.8585   -0.0441 C.ar      1 GTP         0.0648
     26 C6         -2.5318    4.5014    0.2817 C.ar      1 GTP         0.3597
     27 O6         -3.0527    5.3493   -0.4293 O.2       1 GTP        -0.2755
     28 N1         -3.0357    4.0149    1.4868 N.pl3     1 GTP        -0.1604
     29 C2         -2.4069    3.0373    2.2768 C.ar      1 GTP         0.4468
     30 N2         -3.0679    2.6964    3.4278 N.pl3     1 GTP        -0.5618
     31 N3         -1.2653    2.4872    1.9379 N.2       1 GTP        -0.4283
     32 C4         -0.7342    2.9334    0.7643 C.ar      1 GTP         0.2226
     33 H5'         1.3514    0.2330   -2.1577 H         1 GTP        -0.0393
     34 H5''        2.1280   -1.3678   -2.0460 H         1 GTP        -0.0393
     35 H4'         3.8044   -0.1397   -0.4040 H         1 GTP        -0.0393
     36 H3'         1.6764   -1.7639    0.2728 H         1 GTP        -0.0393
     37 HO3'        3.5554   -1.2733    1.4914 H         1 GTP         0.2010
     38 H2'        -0.0011    0.0027    0.0003 H         1 GTP        -0.0393
     39 HO2'        0.8082    0.1199    2.7232 H         1 GTP         0.2010
     40 H1'         1.7826    1.9024    1.6451 H         1 GTP        -0.0393
     41 H8          1.3888    3.1325   -1.6361 H         1 GTP         0.0000
     42 HN1        -3.9188    4.3932    1.8170 H         1 GTP         0.0865
     43 HN21       -2.6609    2.0087    4.0186 H         1 GTP         0.2048
     44 HN22       -3.9293    3.1496    3.6283 H         1 GTP         0.2048
     45 H45        -0.5938    4.6820   -1.9060 H         1 GTP         0.2048
@<TRIPOS>BOND
     1    1    2 2
     2    1    3 1
     3    1    4 1
     4    1    5 1
     5    5    6 1
     6    6    7 2
     7    6    8 1
     8    6    9 1
     9    9   10 1
    10   10   11 2
    11   10   12 1
    12   10   13 1
    13   13   14 1
    14   14   15 1
    15   14   33 1
    16   14   34 1
    17   15   16 1
    18   15   17 1
    19   15   35 1
    20   16   21 1
    21   17   18 1
    22   17   19 1
    23   17   36 1
    24   18   37 1
    25   19   20 1
    26   19   21 1
    27   19   38 1
    28   20   39 1
    29   21   22 1
    30   21   40 1
    31   22   23 ar
    32   22   32 ar
    33   23   24 ar
    34   23   41 1
    35   24   25 ar
    36   24   45 1
    37   25   26 ar
    38   25   32 ar
    39   26   27 2
    40   26   28 ar
    41   28   29 ar
    42   28   42 1
    43   29   30 1
    44   29   31 ar
    45   30   43 1
    46   30   44 1
    47   31   32 ar
@<TRIPOS>SUBSTRUCTURE
     1 GTP         1 GROUP 0 A     ****
@<TRIPOS>MOLECULE
[[[5-(2-amino-6-oxo-7,8-dihydro-1~{H}-purin-8-ylium-9-yl)-3,4-dihydroxy-tetrahydrofuran-2-yl]methoxy-oxido-phosphoryl]oxy-oxido-phosphoryl] phosphate
   45    47     1     0     0
SMALL
USER_CHARGES

@<TRIPOS>ATOM
      1 PG          4.1772   -5.1394   -2.0914 P.3       1 GTP        -1.1921
      2 O1G         3.6458   -6.3621   -2.8320 O.co2     1 GTP         0.3195
      3 O2G         5.3712   -5.4222   -1.1859 O.co2     1 GTP         0.3195
      4 O3G         3.0953   -4.2769   -1.4498 O.co2     1 GTP         0.3195
      5 O3B         4.7910   -4.1789   -3.2833 O.3       1 GTP         0.4672
      6 PB          4.0533   -3.5124   -4.5797 P.3       1 GTP        -1.1062
      7 O1B         5.0912   -3.2467   -5.6473 O.co2     1 GTP         0.3195
      8 O2B         2.7882   -4.2846   -4.8806 O.co2     1 GTP         0.3195
      9 O3A         3.5834   -2.0978   -3.9137 O.3       1 GTP         0.4672
     10 PA          4.4792   -0.9077   -3.2423 P.3       1 GTP        -1.1062
     11 O1A         5.1201   -1.4478   -1.9825 O.co2     1 GTP         0.3195
     12 O2A         5.3102   -0.2460   -4.3201 O.co2     1 GTP         0.3195
     13 O5'         3.2903    0.1346   -2.8241 O.3       1 GTP         0.1618
     14 C5'         2.2816   -0.2918   -1.9206 C.3       1 GTP         0.1504
     15 C4'         2.7248    0.0226   -0.4980 C.3       1 GTP         0.1111
     16 O4'         2.4697    1.4219   -0.2462 O.3       1 GTP        -0.1436
     17 C3'         1.9404   -0.7419    0.5596 C.3       1 GTP         0.1111
     18 O3'         2.7418   -0.8086    1.7389 O.3       1 GTP        -0.2728
     19 C2'         0.7477    0.1630    0.7858 C.3       1 GTP         0.1111
     20 O2'         0.1373   -0.0577    2.0407 O.3       1 GTP        -0.2728
     21 C1'         1.3733    1.5427    0.6747 C.3       1 GTP         0.2693
     22 N9          0.4520    2.5240    0.1767 N.pl3     1 GTP        -0.3222
     23 C8         -0.2009    2.4849   -0.9792 C.ar      1 GTP         0.1640
     24 N7         -0.9840    3.5454   -1.1481 N.pl3     1 GTP        -0.3688
     25 C5         -0.8090    4.3005   -0.0206 C.ar      1 GTP         0.0648
     26 C6         -1.4206    5.5724    0.3362 C.ar      1 GTP         0.3597
     27 O6         -2.2199    6.1544   -0.3836 O.2       1 GTP        -0.2755
     28 N1         -0.9680    6.0043    1.5817 N.pl3     1 GTP        -0.1604
     29 C2         -0.0474    5.3055    2.3814 C.ar      1 GTP         0.4468
     30 N2          0.2680    5.9024    3.5740 N.pl3     1 GTP        -0.5618
     31 N3          0.4755    4.1601    2.0138 N.2       1 GTP        -0.4283
     32 C4          0.0611    3.6981    0.8001 C.ar      1 GTP         0.2226
     33 H5'         1.3514    0.2330   -2.1577 H         1 GTP        -0.0393
     34 H5''        2.1280   -1.3678   -2.0460 H         1 GTP        -0.0393
     35 H4'         3.8044   -0.1397   -0.4040 H         1 GTP        -0.0393
     36 H3'         1.6764   -1.7639    0.2728 H         1 GTP        -0.0393
     37 HO3'        3.5554   -1.2733    1.4914 H         1 GTP         0.2010
     38 H2'        -0.0011    0.0027    0.0003 H         1 GTP        -0.0393
     39 HO2'       -0.6141    0.5574    2.1082 H         1 GTP         0.2010
     40 H1'         1.7826    1.9024    1.6451 H         1 GTP        -0.0393
     41 H8         -0.1126    1.6906   -1.6997 H         1 GTP         0.0000
     42 HN1        -1.3285    6.8855    1.9361 H         1 GTP         0.0865
     43 HN21        0.9153    5.4446    4.1732 H         1 GTP         0.2048
     44 HN22       -0.1624    6.7706    3.7948 H         1 GTP         0.2048
     45 H45        -1.5768    3.7405   -1.9429 H         1 GTP         0.2048
@<TRIPOS>BOND
     1    1    2 2
     2    1    3 1
     3    1    4 1
     4    1    5 1
     5    5    6 1
     6    6    7 2
     7    6    8 1
     8    6    9 1
     9    9   10 1
    10   10   11 2
    11   10   12 1
    12   10   13 1
    13   13   14 1
    14   14   15 1
    15   14   33 1
    16   14   34 1
    17   15   16 1
    18   15   17 1
    19   15   35 1
    20   16   21 1
    21   17   18 1
    22   17   19 1
    23   17   36 1
    24   18   37 1
    25   19   20 1
    26   19   21 1
    27   19   38 1
    28   20   39 1
    29   21   22 1
    30   21   40 1
    31   22   23 ar
    32   22   32 ar
    33   23   24 ar
    34   23   41 1
    35   24   25 ar
    36   24   45 1
    37   25   26 ar
    38   25   32 ar
    39   26   27 2
    40   26   28 ar
    41   28   29 ar
    42   28   42 1
    43   29   30 1
    44   29   31 ar
    45   30   43 1
    46   30   44 1
    47   31   32 ar
@<TRIPOS>SUBSTRUCTURE
     1 GTP         1 GROUP 0 A     ****
@<TRIPOS>MOLECULE
[[[5-(2-amino-6-oxo-7,8-dihydro-1~{H}-purin-8-ylium-9-yl)-3,4-dihydroxy-tetrahydrofuran-2-yl]methoxy-oxido-phosphoryl]oxy-oxido-phosphoryl] phosphate
   45    47     1     0     0
SMALL
USER_CHARGES

@<TRIPOS>ATOM
      1 PG         -5.7429   -7.7690    1.8861 P.3       1 GTP        -1.1921
      2 O1G        -5.1292   -6.9836    0.7318 O.co2     1 GTP         0.3195
      3 O2G        -5.6170   -9.2830    1.7540 O.co2     1 GTP         0.3195
      4 O3G        -7.1300   -7.2900    2.3018 O.co2     1 GTP         0.3195
      5 O3B        -4.7928   -7.3948    3.1811 O.3       1 GTP         0.4672
      6 PB         -4.4769   -5.9469    3.8688 P.3       1 GTP        -1.1062
      7 O1B        -5.6146   -5.0007    3.5560 O.co2     1 GTP         0.3195
      8 O2B        -3.9969   -6.1662    5.2861 O.co2     1 GTP         0.3195
      9 O3A        -3.1629   -5.5251    2.9964 O.3       1 GTP         0.4672
     10 PA         -1.7206   -6.2776    2.8449 P.3       1 GTP        -1.1062
     11 O1A        -1.0179   -6.2329    4.1843 O.co2     1 GTP         0.3195
     12 O2A        -1.9197   -7.5854    2.1101 O.co2     1 GTP         0.3195
     13 O5'        -0.9724   -5.2440    1.8220 O.3       1 GTP         0.1618
     14 C5'        -0.7840   -3.8935    2.2172 C.3       1 GTP         0.1504
     15 C4'        -0.0724   -3.1466    1.1027 C.3       1 GTP         0.1111
     16 O4'        -0.8674   -3.1929   -0.0945 O.3       1 GTP        -0.1436
     17 C3'         0.1338   -1.6715    1.4027 C.3       1 GTP         0.1111
     18 O3'         1.2893   -1.4445    2.1808 O.3       1 GTP        -0.2728
     19 C2'         0.2158   -1.0724    0.0128 C.3       1 GTP         0.1111
     20 O2'         1.5141   -1.2448   -0.5513 O.3       1 GTP        -0.2728
     21 C1'        -0.7897   -1.9176   -0.7583 C.3       1 GTP         0.2693
     22 N9         -2.1040   -1.3333   -0.7704 N.pl3     1 GTP        -0.3222
     23 C8         -3.2118   -1.8614   -0.2629 C.ar      1 GTP         0.1640
     24 N7         -4.2667   -1.0708   -0.4324 N.pl3     1 GTP        -0.3688
     25 C5         -3.7861    0.0276   -1.0917 C.ar      1 GTP         0.0648
     26 C6         -4.4994    1.2163   -1.5358 C.ar      1 GTP         0.3597
     27 O6         -5.6979    1.3818   -1.3572 O.2       1 GTP        -0.2755
     28 N1         -3.6318    2.1024   -2.1721 N.pl3     1 GTP        -0.1604
     29 C2         -2.2571    1.8766   -2.3579 C.ar      1 GTP         0.4468
     30 N2         -1.5798    2.8741   -3.0093 N.pl3     1 GTP        -0.5618
     31 N3         -1.6608    0.7866   -1.9375 N.2       1 GTP        -0.4283
     32 C4         -2.4718   -0.1103   -1.3081 C.ar      1 GTP         0.2226
     33 H5'        -1.7618   -3.4448    2.4164 H         1 GTP        -0.0393
     34 H5''       -0.1874   -3.8744    3.1341 H         1 GTP        -0.0393
     35 H4'         0.8874   -3.6466    0.8805 H         1 GTP        -0.0393
     36 H3'        -0.7376   -1.2333    1.9867 H         1 GTP        -0.0393
     37 HO3'        1.3408   -0.4870    2.3219 H         1 GTP         0.2010
     38 H2'        -0.0384   -0.0310    0.0096 H         1 GTP        -0.0393
     39 HO2'        2.1463   -0.7958    0.0370 H         1 GTP         0.2010
     40 H1'        -0.4769   -2.1002   -1.8093 H         1 GTP        -0.0393
     41 H8         -3.2583   -2.8166    0.2303 H         1 GTP         0.0000
     42 HN1        -4.0201    2.9718   -2.5262 H         1 GTP         0.0865
     43 HN21       -0.6049    2.7585   -3.1634 H         1 GTP         0.2048
     44 HN22       -2.0890    3.6755   -3.3029 H         1 GTP         0.2048
     45 H45        -5.2146   -1.2529   -0.1336 H         1 GTP         0.2048
@<TRIPOS>BOND
     1    1    2 2
     2    1    3 1
     3    1    4 1
     4    1    5 1
     5    5    6 1
     6    6    7 2
     7    6    8 1
     8    6    9 1
     9    9   10 1
    10   10   11 2
    11   10   12 1
    12   10   13 1
    13   13   14 1
    14   14   15 1
    15   14   33 1
    16   14   34 1
    17   15   16 1
    18   15   17 1
    19   15   35 1
    20   16   21 1
    21   17   18 1
    22   17   19 1
    23   17   36 1
    24   18   37 1
    25   19   20 1
    26   19   21 1
    27   19   38 1
    28   20   39 1
    29   21   22 1
    30   21   40 1
    31   22   23 ar
    32   22   32 ar
    33   23   24 ar
    34   23   41 1
    35   24   25 ar
    36   24   45 1
    37   25   26 ar
    38   25   32 ar
    39   26   27 2
    40   26   28 ar
    41   28   29 ar
    42   28   42 1
    43   29   30 1
    44   29   31 ar
    45   30   43 1
    46   30   44 1
    47   31   32 ar
@<TRIPOS>SUBSTRUCTURE
     1 GTP         1 GROUP 0 A     ****
@<TRIPOS>MOLECULE
[[[5-(2-amino-6-oxo-7,8-dihydro-1~{H}-purin-8-ylium-9-yl)-3,4-dihydroxy-tetrahydrofuran-2-yl]methoxy-oxido-phosphoryl]oxy-oxido-phosphoryl] phosphate
   45    47     1     0     0
SMALL
USER_CHARGES

@<TRIPOS>ATOM
      1 PG          5.8177   -3.9763    0.5684 P.3       1 GTP        -1.1921
      2 O1G         5.8710   -5.2692   -0.2387 O.co2     1 GTP         0.3195
      3 O2G         5.7315   -2.7101   -0.2771 O.co2     1 GTP         0.3195
      4 O3G         6.8349   -3.9038    1.7025 O.co2     1 GTP         0.3195
      5 O3B         4.3650   -4.0439    1.3463 O.3       1 GTP         0.4672
      6 PB          3.7921   -5.1457    2.4078 P.3       1 GTP        -1.1062
      7 O1B         3.6289   -6.4697    1.6950 O.co2     1 GTP         0.3195
      8 O2B         4.5653   -5.0342    3.7028 O.co2     1 GTP         0.3195
      9 O3A         2.3216   -4.4952    2.6906 O.3       1 GTP         0.4672
     10 PA          1.1155   -5.0156    3.6623 P.3       1 GTP        -1.1062
     11 O1A         0.5857   -6.3193    3.1062 O.co2     1 GTP         0.3195
     12 O2A         1.5593   -4.9041    5.1047 O.co2     1 GTP         0.3195
     13 O5'         0.0118   -3.8395    3.3916 O.3       1 GTP         0.1618
     14 C5'        -0.7840   -3.8935    2.2172 C.3       1 GTP         0.1504
     15 C4'        -0.0724   -3.1466    1.1027 C.3       1 GTP         0.1111
     16 O4'        -0.8674   -3.1929   -0.0945 O.3       1 GTP        -0.1436
     17 C3'         0.1338   -1.6715    1.4027 C.3       1 GTP         0.1111
     18 O3'         1.2893   -1.4445    2.1808 O.3       1 GTP        -0.2728
     19 C2'         0.2158   -1.0724    0.0128 C.3       1 GTP         0.1111
     20 O2'         1.5141   -1.2448   -0.5513 O.3       1 GTP        -0.2728
     21 C1'        -0.7897   -1.9176   -0.7583 C.3       1 GTP         0.2693
     22 N9         -2.1040   -1.3333   -0.7704 N.pl3     1 GTP        -0.3222
     23 C8         -3.0597   -1.5109    0.1345 C.ar      1 GTP         0.1640
     24 N7         -4.1618   -0.8291   -0.1607 N.pl3     1 GTP        -0.3688
     25 C5         -3.8764   -0.1805   -1.3310 C.ar      1 GTP         0.0648
     26 C6         -4.7187    0.7111   -2.1152 C.ar      1 GTP         0.3597
     27 O6         -5.8617    1.0043   -1.7939 O.2       1 GTP        -0.2755
     28 N1         -4.0405    1.1608   -3.2468 N.pl3     1 GTP        -0.1604
     29 C2         -2.7239    0.8013   -3.5822 C.ar      1 GTP         0.4468
     30 N2         -2.2399    1.3534   -4.7394 N.pl3     1 GTP        -0.5618
     31 N3         -2.0053   -0.0071   -2.8402 N.2       1 GTP        -0.4283
     32 C4         -2.6290   -0.4727   -1.7210 C.ar      1 GTP         0.2226
     33 H5'        -0.9348   -4.9415    1.9415 H         1 GTP        -0.0393
     34 H5''       -1.7548   -3.4350    2.4278 H         1 GTP        -0.0393
     35 H4'         0.8874   -3.6466    0.8805 H         1 GTP        -0.0393
     36 H3'        -0.7376   -1.2333    1.9867 H         1 GTP        -0.0393
     37 HO3'        1.1626   -1.9325    3.0084 H         1 GTP         0.2010
     38 H2'        -0.0384   -0.0310    0.0096 H         1 GTP        -0.0393
     39 HO2'        2.1463   -0.7958    0.0370 H         1 GTP         0.2010
     40 H1'        -0.4769   -2.1002   -1.8093 H         1 GTP        -0.0393
     41 H8         -2.9610   -2.1316    1.0079 H         1 GTP         0.0000
     42 HN1        -4.5320    1.7923   -3.8726 H         1 GTP         0.0865
     43 HN21       -1.3128    1.1277   -5.0171 H         1 GTP         0.2048
     44 HN22       -2.8342    1.9586   -5.2572 H         1 GTP         0.2048
     45 H45        -5.0195   -0.8034    0.3729 H         1 GTP         0.2048
@<TRIPOS>BOND
     1    1    2 2
     2    1    3 1
     3    1    4 1
     4    1    5 1
     5    5    6 1
     6    6    7 2
     7    6    8 1
     8    6    9 1
     9    9   10 1
    10   10   11 2
    11   10   12 1
    12   10   13 1
    13   13   14 1
    14   14   15 1
    15   14   33 1
    16   14   34 1
    17   15   16 1
    18   15   17 1
    19   15   35 1
    20   16   21 1
    21   17   18 1
    22   17   19 1
    23   17   36 1
    24   18   37 1
    25   19   20 1
    26   19   21 1
    27   19   38 1
    28   20   39 1
    29   21   22 1
    30   21   40 1
    31   22   23 ar
    32   22   32 ar
    33   23   24 ar
    34   23   41 1
    35   24   25 ar
    36   24   45 1
    37   25   26 ar
    38   25   32 ar
    39   26   27 2
    40   26   28 ar
    41   28   29 ar
    42   28   42 1
    43   29   30 1
    44   29   31 ar
    45   30   43 1
    46   30   44 1
    47   31   32 ar
@<TRIPOS>SUBSTRUCTURE
     1 GTP         1 GROUP 0 A     ****
@<TRIPOS>MOLECULE
[[[5-(2-amino-6-oxo-7,8-dihydro-1~{H}-purin-8-ylium-9-yl)-3,4-dihydroxy-tetrahydrofuran-2-yl]methoxy-oxido-phosphoryl]oxy-oxido-phosphoryl] phosphate
   45    47     1     0     0
SMALL
USER_CHARGES

@<TRIPOS>ATOM
      1 PG         -0.5817    3.1035   -4.5075 P.3       1 GTP        -1.1921
      2 O1G         0.0607    2.5819   -3.2264 O.co2     1 GTP         0.3195
      3 O2G        -0.9153    4.5914   -4.4833 O.co2     1 GTP         0.3195
      4 O3G        -1.6995    2.2202   -5.0520 O.co2     1 GTP         0.3195
      5 O3B         0.6098    2.9737   -5.6402 O.3       1 GTP         0.4672
      6 PB          1.4220    1.6566   -6.1644 P.3       1 GTP        -1.1062
      7 O1B         0.4221    0.6180   -6.6215 O.co2     1 GTP         0.3195
      8 O2B         2.5641    2.0998   -7.0513 O.co2     1 GTP         0.3195
      9 O3A         2.0908    1.1835   -4.7522 O.3       1 GTP         0.4672
     10 PA          3.0683   -0.0853   -4.4294 P.3       1 GTP        -1.1062
     11 O1A         2.2802   -1.3592   -4.6431 O.co2     1 GTP         0.3195
     12 O2A         4.4021    0.1320   -5.1103 O.co2     1 GTP         0.3195
     13 O5'         3.2903    0.1346   -2.8241 O.3       1 GTP         0.1618
     14 C5'         2.2816   -0.2918   -1.9206 C.3       1 GTP         0.1504
     15 C4'         2.7248    0.0226   -0.4980 C.3       1 GTP         0.1111
     16 O4'         2.4697    1.4219   -0.2462 O.3       1 GTP        -0.1436
     17 C3'         1.9404   -0.7419    0.5596 C.3       1 GTP         0.1111
     18 O3'         2.7418   -0.8086    1.7389 O.3       1 GTP        -0.2728
     19 C2'         0.7477    0.1630    0.7858 C.3       1 GTP         0.1111
     20 O2'         0.1373   -0.0577    2.0407 O.3       1 GTP        -0.2728
     21 C1'         1.3733    1.5427    0.6747 C.3       1 GTP         0.2693
     22 N9          0.4520    2.5240    0.1767 N.pl3     1 GTP        -0.3222
     23 C8         -0.8613    2.5511    0.3730 C.ar      1 GTP         0.1640
     24 N7         -1.4346    3.5939   -0.2188 N.pl3     1 GTP        -0.3688
     25 C5         -0.4099    4.2657   -0.8276 C.ar      1 GTP         0.0648
     26 C6         -0.4554    5.4854   -1.6209 C.ar      1 GTP         0.3597
     27 O6         -1.4907    6.0944   -1.8508 O.2       1 GTP        -0.2755
     28 N1          0.8205    5.8357   -2.0593 N.pl3     1 GTP        -0.1604
     29 C2          1.9890    5.1091   -1.7730 C.ar      1 GTP         0.4468
     30 N2          3.1452    5.6230   -2.2997 N.pl3     1 GTP        -0.5618
     31 N3          1.9765    4.0139   -1.0514 N.2       1 GTP        -0.4283
     32 C4          0.7480    3.6324   -0.6003 C.ar      1 GTP         0.2226
     33 H5'         1.3514    0.2330   -2.1577 H         1 GTP        -0.0393
     34 H5''        2.1280   -1.3678   -2.0460 H         1 GTP        -0.0393
     35 H4'         3.8044   -0.1397   -0.4040 H         1 GTP        -0.0393
     36 H3'         1.6764   -1.7639    0.2728 H         1 GTP        -0.0393
     37 HO3'        3.5554   -1.2733    1.4914 H         1 GTP         0.2010
     38 H2'        -0.0011    0.0027    0.0003 H         1 GTP        -0.0393
     39 HO2'       -0.1563   -0.9855    2.0596 H         1 GTP         0.2010
     40 H1'         1.7826    1.9024    1.6451 H         1 GTP        -0.0393
     41 H8         -1.4050    1.8187    0.9438 H         1 GTP         0.0000
     42 HN1         0.9121    6.6744   -2.6251 H         1 GTP         0.0865
     43 HN21        3.9971    5.1427   -2.1235 H         1 GTP         0.2048
     44 HN22        3.0881    6.4564   -2.8380 H         1 GTP         0.2048
     45 H45        -2.4173    3.8294   -0.2127 H         1 GTP         0.2048
@<TRIPOS>BOND
     1    1    2 2
     2    1    3 1
     3    1    4 1
     4    1    5 1
     5    5    6 1
     6    6    7 2
     7    6    8 1
     8    6    9 1
     9    9   10 1
    10   10   11 2
    11   10   12 1
    12   10   13 1
    13   13   14 1
    14   14   15 1
    15   14   33 1
    16   14   34 1
    17   15   16 1
    18   15   17 1
    19   15   35 1
    20   16   21 1
    21   17   18 1
    22   17   19 1
    23   17   36 1
    24   18   37 1
    25   19   20 1
    26   19   21 1
    27   19   38 1
    28   20   39 1
    29   21   22 1
    30   21   40 1
    31   22   23 ar
    32   22   32 ar
    33   23   24 ar
    34   23   41 1
    35   24   25 ar
    36   24   45 1
    37   25   26 ar
    38   25   32 ar
    39   26   27 2
    40   26   28 ar
    41   28   29 ar
    42   28   42 1
    43   29   30 1
    44   29   31 ar
    45   30   43 1
    46   30   44 1
    47   31   32 ar
@<TRIPOS>SUBSTRUCTURE
     1 GTP         1 GROUP 0 A     ****
@<TRIPOS>MOLECULE
[[[5-(2-amino-6-oxo-7,8-dihydro-1~{H}-purin-8-ylium-9-yl)-3,4-dihydroxy-tetrahydrofuran-2-yl]methoxy-oxido-phosphoryl]oxy-oxido-phosphoryl] phosphate
   45    47     1     0     0
SMALL
USER_CHARGES

@<TRIPOS>ATOM
      1 PG         -2.8964   -9.0989    5.0740 P.3       1 GTP        -1.1921
      2 O1G        -3.6961   -8.1844    4.1521 O.co2     1 GTP         0.3195
      3 O2G        -2.6742  -10.5050    4.5269 O.co2     1 GTP         0.3195
      4 O3G        -3.3372   -9.0574    6.5334 O.co2     1 GTP         0.3195
      5 O3B        -1.3888   -8.4309    5.0990 O.3       1 GTP         0.4672
      6 PB         -0.9064   -6.9437    5.5731 P.3       1 GTP        -1.1062
      7 O1B        -1.9171   -6.3940    6.5549 O.co2     1 GTP         0.3195
      8 O2B         0.5706   -6.9819    5.8959 O.co2     1 GTP         0.3195
      9 O3A        -1.0478   -6.1575    4.1493 O.3       1 GTP         0.4672
     10 PA         -0.3075   -6.4382    2.7200 P.3       1 GTP        -1.1062
     11 O1A         1.1702   -6.1585    2.8867 O.co2     1 GTP         0.3195
     12 O2A        -0.7951   -7.7572    2.1610 O.co2     1 GTP         0.3195
     13 O5'        -0.9724   -5.2440    1.8220 O.3       1 GTP         0.1618
     14 C5'        -0.7840   -3.8935    2.2172 C.3       1 GTP         0.1504
     15 C4'        -0.0724   -3.1466    1.1027 C.3       1 GTP         0.1111
     16 O4'        -0.8674   -3.1929   -0.0945 O.3       1 GTP        -0.1436
     17 C3'         0.1338   -1.6715    1.4027 C.3       1 GTP         0.1111
     18 O3'         1.2893   -1.4445    2.1808 O.3       1 GTP        -0.2728
     19 C2'         0.2158   -1.0724    0.0128 C.3       1 GTP         0.1111
     20 O2'         1.5141   -1.2448   -0.5513 O.3       1 GTP        -0.2728
     21 C1'        -0.7897   -1.9176   -0.7583 C.3       1 GTP         0.2693
     22 N9         -2.1040   -1.3333   -0.7704 N.pl3     1 GTP        -0.3222
     23 C8         -3.0597   -1.5109    0.1345 C.ar      1 GTP         0.1640
     24 N7         -4.1618   -0.8291   -0.1607 N.pl3     1 GTP        -0.3688
     25 C5         -3.8764   -0.1805   -1.3310 C.ar      1 GTP         0.0648
     26 C6         -4.7187    0.7111   -2.1152 C.ar      1 GTP         0.3597
     27 O6         -5.8617    1.0043   -1.7939 O.2       1 GTP        -0.2755
     28 N1         -4.0405    1.1608   -3.2468 N.pl3     1 GTP        -0.1604
     29 C2         -2.7239    0.8013   -3.5822 C.ar      1 GTP         0.4468
     30 N2         -2.2399    1.3534   -4.7394 N.pl3     1 GTP        -0.5618
     31 N3         -2.0053   -0.0071   -2.8402 N.2       1 GTP        -0.4283
     32 C4         -2.6290   -0.4727   -1.7210 C.ar      1 GTP         0.2226
     33 H5'        -1.7618   -3.4448    2.4164 H         1 GTP        -0.0393
     34 H5''       -0.1874   -3.8744    3.1341 H         1 GTP        -0.0393
     35 H4'         0.8874   -3.6466    0.8805 H         1 GTP        -0.0393
     36 H3'        -0.7376   -1.2333    1.9867 H         1 GTP        -0.0393
     37 HO3'        1.3408   -0.4870    2.3219 H         1 GTP         0.2010
     38 H2'        -0.0384   -0.0310    0.0096 H         1 GTP        -0.0393
     39 HO2'        2.1463   -0.7958    0.0370 H         1 GTP         0.2010
     40 H1'        -0.4769   -2.1002   -1.8093 H         1 GTP        -0.0393
     41 H8         -2.9610   -2.1316    1.0079 H         1 GTP         0.0000
     42 HN1        -4.5320    1.7923   -3.8726 H         1 GTP         0.0865
     43 HN21       -1.3128    1.1277   -5.0171 H         1 GTP         0.2048
     44 HN22       -2.8342    1.9586   -5.2572 H         1 GTP         0.2048
     45 H45        -5.0195   -0.8034    0.3729 H         1 GTP         0.2048
@<TRIPOS>BOND
     1    1    2 2
     2    1    3 1
     3    1    4 1
     4    1    5 1
     5    5    6 1
     6    6    7 2
     7    6    8 1
     8    6    9 1
     9    9   10 1
    10   10   11 2
    11   10   12 1
    12   10   13 1
    13   13   14 1
    14   14   15 1
    15   14   33 1
    16   14   34 1
    17   15   16 1
    18   15   17 1
    19   15   35 1
    20   16   21 1
    21   17   18 1
    22   17   19 1
    23   17   36 1
    24   18   37 1
    25   19   20 1
    26   19   21 1
    27   19   38 1
    28   20   39 1
    29   21   22 1
    30   21   40 1
    31   22   23 ar
    32   22   32 ar
    33   23   24 ar
    34   23   41 1
    35   24   25 ar
    36   24   45 1
    37   25   26 ar
    38   25   32 ar
    39   26   27 2
    40   26   28 ar
    41   28   29 ar
    42   28   42 1
    43   29   30 1
    44   29   31 ar
    45   30   43 1
    46   30   44 1
    47   31   32 ar
@<TRIPOS>SUBSTRUCTURE
     1 GTP         1 GROUP 0 A     ****
@<TRIPOS>MOLECULE
[[[5-(2-amino-6-oxo-7,8-dihydro-1~{H}-purin-8-ylium-9-yl)-3,4-dihydroxy-tetrahydrofuran-2-yl]methoxy-oxido-phosphoryl]oxy-oxido-phosphoryl] phosphate
   45    47     1     0     0
SMALL
USER_CHARGES

@<TRIPOS>ATOM
      1 PG          0.4089   -5.2620    8.4339 P.3       1 GTP        -1.1921
      2 O1G         1.7275   -4.5307    8.6623 O.co2     1 GTP         0.3195
      3 O2G        -0.8254   -4.4903    8.8883 O.co2     1 GTP         0.3195
      4 O3G         0.4232   -6.7265    8.8595 O.co2     1 GTP         0.3195
      5 O3B         0.2625   -5.3305    6.7927 O.3       1 GTP         0.4672
      6 PB          1.2422   -6.0141    5.6782 P.3       1 GTP        -1.1062
      7 O1B         2.5606   -5.2730    5.6687 O.co2     1 GTP         0.3195
      8 O2B         1.1810   -7.5185    5.8216 O.co2     1 GTP         0.3195
      9 O3A         0.4004   -5.6443    4.3291 O.3       1 GTP         0.4672
     10 PA          0.7268   -5.9846    2.7648 P.3       1 GTP        -1.1062
     11 O1A         1.9729   -5.2260    2.3630 O.co2     1 GTP         0.3195
     12 O2A         0.6184   -7.4787    2.5505 O.co2     1 GTP         0.3195
     13 O5'        -0.5687   -5.2869    2.0510 O.3       1 GTP         0.1618
     14 C5'        -0.7840   -3.8935    2.2172 C.3       1 GTP         0.1504
     15 C4'        -0.0724   -3.1466    1.1027 C.3       1 GTP         0.1111
     16 O4'        -0.8674   -3.1929   -0.0945 O.3       1 GTP        -0.1436
     17 C3'         0.1338   -1.6715    1.4027 C.3       1 GTP         0.1111
     18 O3'         1.2893   -1.4445    2.1808 O.3       1 GTP        -0.2728
     19 C2'         0.2158   -1.0724    0.0128 C.3       1 GTP         0.1111
     20 O2'         1.5141   -1.2448   -0.5513 O.3       1 GTP        -0.2728
     21 C1'        -0.7897   -1.9176   -0.7583 C.3       1 GTP         0.2693
     22 N9         -2.1040   -1.3333   -0.7704 N.pl3     1 GTP        -0.3222
     23 C8         -3.0597   -1.5109    0.1345 C.ar      1 GTP         0.1640
     24 N7         -4.1618   -0.8291   -0.1607 N.pl3     1 GTP        -0.3688
     25 C5         -3.8764   -0.1805   -1.3310 C.ar      1 GTP         0.0648
     26 C6         -4.7187    0.7111   -2.1152 C.ar      1 GTP         0.3597
     27 O6         -5.8617    1.0043   -1.7939 O.2       1 GTP        -0.2755
     28 N1         -4.0405    1.1608   -3.2468 N.pl3     1 GTP        -0.1604
     29 C2         -2.7239    0.8013   -3.5822 C.ar      1 GTP         0.4468
     30 N2         -2.2399    1.3534   -4.7394 N.pl3     1 GTP        -0.5618
     31 N3         -2.0053   -0.0071   -2.8402 N.2       1 GTP        -0.4283
     32 C4         -2.6290   -0.4727   -1.7210 C.ar      1 GTP         0.2226
     33 H5'        -1.8598   -3.6968    2.1850 H         1 GTP        -0.0393
     34 H5''       -0.3933   -3.5903    3.1931 H         1 GTP        -0.0393
     35 H4'         0.8874   -3.6466    0.8805 H         1 GTP        -0.0393
     36 H3'        -0.7376   -1.2333    1.9867 H         1 GTP        -0.0393
     37 HO3'        1.3408   -0.4870    2.3219 H         1 GTP         0.2010
     38 H2'        -0.0384   -0.0310    0.0096 H         1 GTP        -0.0393
     39 HO2'        2.1463   -0.7958    0.0370 H         1 GTP         0.2010
     40 H1'        -0.4769   -2.1002   -1.8093 H         1 GTP        -0.0393
     41 H8         -2.9610   -2.1316    1.0079 H         1 GTP         0.0000
     42 HN1        -4.5320    1.7923   -3.8726 H         1 GTP         0.0865
     43 HN21       -1.3128    1.1277   -5.0171 H         1 GTP         0.2048
     44 HN22       -2.8342    1.9586   -5.2572 H         1 GTP         0.2048
     45 H45        -5.0195   -0.8034    0.3729 H         1 GTP         0.2048
@<TRIPOS>BOND
     1    1    2 2
     2    1    3 1
     3    1    4 1
     4    1    5 1
     5    5    6 1
     6    6    7 2
     7    6    8 1
     8    6    9 1
     9    9   10 1
    10   10   11 2
    11   10   12 1
    12   10   13 1
    13   13   14 1
    14   14   15 1
    15   14   33 1
    16   14   34 1
    17   15   16 1
    18   15   17 1
    19   15   35 1
    20   16   21 1
    21   17   18 1
    22   17   19 1
    23   17   36 1
    24   18   37 1
    25   19   20 1
    26   19   21 1
    27   19   38 1
    28   20   39 1
    29   21   22 1
    30   21   40 1
    31   22   23 ar
    32   22   32 ar
    33   23   24 ar
    34   23   41 1
    35   24   25 ar
    36   24   45 1
    37   25   26 ar
    38   25   32 ar
    39   26   27 2
    40   26   28 ar
    41   28   29 ar
    42   28   42 1
    43   29   30 1
    44   29   31 ar
    45   30   43 1
    46   30   44 1
    47   31   32 ar
@<TRIPOS>SUBSTRUCTURE
     1 GTP         1 GROUP 0 A     ****
@<TRIPOS>MOLECULE
[[[5-(2-amino-6-oxo-7,8-dihydro-1~{H}-purin-8-ylium-9-yl)-3,4-dihydroxy-tetrahydrofuran-2-yl]methoxy-oxido-phosphoryl]oxy-oxido-phosphoryl] phosphate
   45    47     1     0     0
SMALL
USER_CHARGES

@<TRIPOS>ATOM
      1 PG          7.8458   -0.2322   -5.0369 P.3       1 GTP        -1.1921
      2 O1G         7.6520    0.8443   -6.0996 O.co2     1 GTP         0.3195
      3 O2G         8.5370    0.2543   -3.7675 O.co2     1 GTP         0.3195
      4 O3G         8.3836   -1.5539   -5.5753 O.co2     1 GTP         0.3195
      5 O3B         6.3141   -0.6000   -4.5488 O.3       1 GTP         0.4672
      6 PB          5.0480   -1.1753   -5.4061 P.3       1 GTP        -1.1062
      7 O1B         4.6248   -0.1279   -6.4119 O.co2     1 GTP         0.3195
      8 O2B         5.3381   -2.6001   -5.8219 O.co2     1 GTP         0.3195
      9 O3A         3.9400   -1.2599   -4.2100 O.3       1 GTP         0.4672
     10 PA          3.9665   -2.1124   -2.8163 P.3       1 GTP        -1.1062
     11 O1A         3.9137   -3.5853   -3.1586 O.co2     1 GTP         0.3195
     12 O2A         5.0501   -1.5573   -1.9175 O.co2     1 GTP         0.3195
     13 O5'         2.5245   -1.6648   -2.1878 O.3       1 GTP         0.1618
     14 C5'         2.2816   -0.2918   -1.9206 C.3       1 GTP         0.1504
     15 C4'         2.7248    0.0226   -0.4980 C.3       1 GTP         0.1111
     16 O4'         2.4697    1.4219   -0.2462 O.3       1 GTP        -0.1436
     17 C3'         1.9404   -0.7419    0.5596 C.3       1 GTP         0.1111
     18 O3'         2.7418   -0.8086    1.7389 O.3       1 GTP        -0.2728
     19 C2'         0.7477    0.1630    0.7858 C.3       1 GTP         0.1111
     20 O2'         0.1373   -0.0577    2.0407 O.3       1 GTP        -0.2728
     21 C1'         1.3733    1.5427    0.6747 C.3       1 GTP         0.2693
     22 N9          0.4520    2.5240    0.1767 N.pl3     1 GTP        -0.3222
     23 C8          0.2203    2.8205   -1.0970 C.ar      1 GTP         0.1640
     24 N7         -0.6947    3.7752   -1.2304 N.pl3     1 GTP        -0.3688
     25 C5         -1.0607    4.0987    0.0476 C.ar      1 GTP         0.0648
     26 C6         -2.0310    5.0839    0.5029 C.ar      1 GTP         0.3597
     27 O6         -2.6779    5.7867   -0.2609 O.2       1 GTP        -0.2755
     28 N1         -2.1030    5.0975    1.8948 N.pl3     1 GTP        -0.1604
     29 C2         -1.3422    4.2721    2.7403 C.ar      1 GTP         0.4468
     30 N2         -1.5624    4.4419    4.0823 N.pl3     1 GTP        -0.5618
     31 N3         -0.4796    3.3981    2.2792 N.2       1 GTP        -0.4283
     32 C4         -0.3754    3.3496    0.9208 C.ar      1 GTP         0.2226
     33 H5'         2.8432    0.3119   -2.6398 H         1 GTP        -0.0393
     34 H5''        1.2128   -0.0927   -2.0428 H         1 GTP        -0.0393
     35 H4'         3.8044   -0.1397   -0.4040 H         1 GTP        -0.0393
     36 H3'         1.6764   -1.7639    0.2728 H         1 GTP        -0.0393
     37 HO3'        2.9083    0.1071    2.0092 H         1 GTP         0.2010
     38 H2'        -0.0011    0.0027    0.0003 H         1 GTP        -0.0393
     39 HO2'        0.8082    0.1199    2.7232 H         1 GTP         0.2010
     40 H1'         1.7826    1.9024    1.6451 H         1 GTP        -0.0393
     41 H8          0.7110    2.3472   -1.9295 H         1 GTP         0.0000
     42 HN1        -2.7504    5.7495    2.3282 H         1 GTP         0.0865
     43 HN21       -1.0467    3.8796    4.7190 H         1 GTP         0.2048
     44 HN22       -2.2294    5.1209    4.3680 H         1 GTP         0.2048
     45 H45        -1.0382    4.1687   -2.0954 H         1 GTP         0.2048
@<TRIPOS>BOND
     1    1    2 2
     2    1    3 1
     3    1    4 1
     4    1    5 1
     5    5    6 1
     6    6    7 2
     7    6    8 1
     8    6    9 1
     9    9   10 1
    10   10   11 2
    11   10   12 1
    12   10   13 1
    13   13   14 1
    14   14   15 1
    15   14   33 1
    16   14   34 1
    17   15   16 1
    18   15   17 1
    19   15   35 1
    20   16   21 1
    21   17   18 1
    22   17   19 1
    23   17   36 1
    24   18   37 1
    25   19   20 1
    26   19   21 1
    27   19   38 1
    28   20   39 1
    29   21   22 1
    30   21   40 1
    31   22   23 ar
    32   22   32 ar
    33   23   24 ar
    34   23   41 1
    35   24   25 ar
    36   24   45 1
    37   25   26 ar
    38   25   32 ar
    39   26   27 2
    40   26   28 ar
    41   28   29 ar
    42   28   42 1
    43   29   30 1
    44   29   31 ar
    45   30   43 1
    46   30   44 1
    47   31   32 ar
@<TRIPOS>SUBSTRUCTURE
     1 GTP         1 GROUP 0 A     ****
@<TRIPOS>MOLECULE
[[[5-(2-amino-6-oxo-7,8-dihydro-1~{H}-purin-8-ylium-9-yl)-3,4-dihydroxy-tetrahydrofuran-2-yl]methoxy-oxido-phosphoryl]oxy-oxido-phosphoryl] phosphate
   45    47     1     0     0
SMALL
USER_CHARGES

@<TRIPOS>ATOM
      1 PG          1.5921   -1.5891   -8.2010 P.3       1 GTP        -1.1921
      2 O1G         1.9195   -2.9948   -8.6937 O.co2     1 GTP         0.3195
      3 O2G         0.3172   -0.9965   -8.7917 O.co2     1 GTP         0.3195
      4 O3G         2.7818   -0.6348   -8.1951 O.co2     1 GTP         0.3195
      5 O3B         1.2420   -1.7916   -6.6022 O.3       1 GTP         0.4672
      6 PB          2.1654   -2.3833   -5.3912 P.3       1 GTP        -1.1062
      7 O1B         2.4404   -3.8462   -5.6588 O.co2     1 GTP         0.3195
      8 O2B         3.2840   -1.4081   -5.0999 O.co2     1 GTP         0.3195
      9 O3A         1.1011   -2.2460   -4.1608 O.3       1 GTP         0.4672
     10 PA          1.2687   -2.6351   -2.5828 P.3       1 GTP        -1.1062
     11 O1A         0.0359   -2.1632   -1.8430 O.co2     1 GTP         0.3195
     12 O2A         1.7447   -4.0675   -2.4743 O.co2     1 GTP         0.3195
     13 O5'         2.5245   -1.6648   -2.1878 O.3       1 GTP         0.1618
     14 C5'         2.2816   -0.2918   -1.9206 C.3       1 GTP         0.1504
     15 C4'         2.7248    0.0226   -0.4980 C.3       1 GTP         0.1111
     16 O4'         2.4697    1.4219   -0.2462 O.3       1 GTP        -0.1436
     17 C3'         1.9404   -0.7419    0.5596 C.3       1 GTP         0.1111
     18 O3'         2.7418   -0.8086    1.7389 O.3       1 GTP        -0.2728
     19 C2'         0.7477    0.1630    0.7858 C.3       1 GTP         0.1111
     20 O2'         0.1373   -0.0577    2.0407 O.3       1 GTP        -0.2728
     21 C1'         1.3733    1.5427    0.6747 C.3       1 GTP         0.2693
     22 N9          0.4520    2.5240    0.1767 N.pl3     1 GTP        -0.3222
     23 C8          0.5671    3.2221   -0.9473 C.ar      1 GTP         0.1640
     24 N7         -0.4560    4.0508   -1.1290 N.pl3     1 GTP        -0.3688
     25 C5         -1.2671    3.8585   -0.0441 C.ar      1 GTP         0.0648
     26 C6         -2.5318    4.5014    0.2817 C.ar      1 GTP         0.3597
     27 O6         -3.0527    5.3493   -0.4293 O.2       1 GTP        -0.2755
     28 N1         -3.0357    4.0149    1.4868 N.pl3     1 GTP        -0.1604
     29 C2         -2.4069    3.0373    2.2768 C.ar      1 GTP         0.4468
     30 N2         -3.0679    2.6964    3.4278 N.pl3     1 GTP        -0.5618
     31 N3         -1.2653    2.4872    1.9379 N.2       1 GTP        -0.4283
     32 C4         -0.7342    2.9334    0.7643 C.ar      1 GTP         0.2226
     33 H5'         2.8432    0.3119   -2.6398 H         1 GTP        -0.0393
     34 H5''        1.2128   -0.0927   -2.0428 H         1 GTP        -0.0393
     35 H4'         3.8044   -0.1397   -0.4040 H         1 GTP        -0.0393
     36 H3'         1.6764   -1.7639    0.2728 H         1 GTP        -0.0393
     37 HO3'        2.2232   -1.2979    2.3953 H         1 GTP         0.2010
     38 H2'        -0.0011    0.0027    0.0003 H         1 GTP        -0.0393
     39 HO2'       -0.1563   -0.9855    2.0596 H         1 GTP         0.2010
     40 H1'         1.7826    1.9024    1.6451 H         1 GTP        -0.0393
     41 H8          1.3888    3.1325   -1.6361 H         1 GTP         0.0000
     42 HN1        -3.9188    4.3932    1.8170 H         1 GTP         0.0865
     43 HN21       -2.6609    2.0087    4.0186 H         1 GTP         0.2048
     44 HN22       -3.9293    3.1496    3.6283 H         1 GTP         0.2048
     45 H45        -0.5938    4.6820   -1.9060 H         1 GTP         0.2048
@<TRIPOS>BOND
     1    1    2 2
     2    1    3 1
     3    1    4 1
     4    1    5 1
     5    5    6 1
     6    6    7 2
     7    6    8 1
     8    6    9 1
     9    9   10 1
    10   10   11 2
    11   10   12 1
    12   10   13 1
    13   13   14 1
    14   14   15 1
    15   14   33 1
    16   14   34 1
    17   15   16 1
    18   15   17 1
    19   15   35 1
    20   16   21 1
    21   17   18 1
    22   17   19 1
    23   17   36 1
    24   18   37 1
    25   19   20 1
    26   19   21 1
    27   19   38 1
    28   20   39 1
    29   21   22 1
    30   21   40 1
    31   22   23 ar
    32   22   32 ar
    33   23   24 ar
    34   23   41 1
    35   24   25 ar
    36   24   45 1
    37   25   26 ar
    38   25   32 ar
    39   26   27 2
    40   26   28 ar
    41   28   29 ar
    42   28   42 1
    43   29   30 1
    44   29   31 ar
    45   30   43 1
    46   30   44 1
    47   31   32 ar
@<TRIPOS>SUBSTRUCTURE
     1 GTP         1 GROUP 0 A     ****
@<TRIPOS>MOLECULE
[[[5-(2-amino-6-oxo-7,8-dihydro-1~{H}-purin-8-ylium-9-yl)-3,4-dihydroxy-tetrahydrofuran-2-yl]methoxy-oxido-phosphoryl]oxy-oxido-phosphoryl] phosphate
   45    47     1     0     0
SMALL
USER_CHARGES

@<TRIPOS>ATOM
      1 PG          0.1898    5.3998   -3.8968 P.3       1 GTP        -1.1921
      2 O1G        -1.2654    5.1387   -4.2710 O.co2     1 GTP         0.3195
      3 O2G         0.3884    5.9478   -2.4876 O.co2     1 GTP         0.3195
      4 O3G         0.9914    6.1282   -4.9705 O.co2     1 GTP         0.3195
      5 O3B         0.8710    3.8986   -3.8475 O.3       1 GTP         0.4672
      6 PB          1.0058    2.7672   -5.0184 P.3       1 GTP        -1.1062
      7 O1B        -0.3779    2.2792   -5.3855 O.co2     1 GTP         0.3195
      8 O2B         1.9774    3.2558   -6.0694 O.co2     1 GTP         0.3195
      9 O3A         1.7849    1.6083   -4.1726 O.3       1 GTP         0.4672
     10 PA          3.2351    1.6560   -3.4214 P.3       1 GTP        -1.1062
     11 O1A         4.3114    1.8064   -4.4743 O.co2     1 GTP         0.3195
     12 O2A         3.1526    2.6065   -2.2467 O.co2     1 GTP         0.3195
     13 O5'         3.2903    0.1346   -2.8241 O.3       1 GTP         0.1618
     14 C5'         2.2816   -0.2918   -1.9206 C.3       1 GTP         0.1504
     15 C4'         2.7248    0.0226   -0.4980 C.3       1 GTP         0.1111
     16 O4'         2.4697    1.4219   -0.2462 O.3       1 GTP        -0.1436
     17 C3'         1.9404   -0.7419    0.5596 C.3       1 GTP         0.1111
     18 O3'         2.7418   -0.8086    1.7389 O.3       1 GTP        -0.2728
     19 C2'         0.7477    0.1630    0.7858 C.3       1 GTP         0.1111
     20 O2'         0.1373   -0.0577    2.0407 O.3       1 GTP        -0.2728
     21 C1'         1.3733    1.5427    0.6747 C.3       1 GTP         0.2693
     22 N9          0.4520    2.5240    0.1767 N.pl3     1 GTP        -0.3222
     23 C8         -0.2009    2.4849   -0.9792 C.ar      1 GTP         0.1640
     24 N7         -0.9840    3.5454   -1.1481 N.pl3     1 GTP        -0.3688
     25 C5         -0.8090    4.3005   -0.0206 C.ar      1 GTP         0.0648
     26 C6         -1.4206    5.5724    0.3362 C.ar      1 GTP         0.3597
     27 O6         -2.2199    6.1544   -0.3836 O.2       1 GTP        -0.2755
     28 N1         -0.9680    6.0043    1.5817 N.pl3     1 GTP        -0.1604
     29 C2         -0.0474    5.3055    2.3814 C.ar      1 GTP         0.4468
     30 N2          0.2680    5.9024    3.5740 N.pl3     1 GTP        -0.5618
     31 N3          0.4755    4.1601    2.0138 N.2       1 GTP        -0.4283
     32 C4          0.0611    3.6981    0.8001 C.ar      1 GTP         0.2226
     33 H5'         1.3514    0.2330   -2.1577 H         1 GTP        -0.0393
     34 H5''        2.1280   -1.3678   -2.0460 H         1 GTP        -0.0393
     35 H4'         3.8044   -0.1397   -0.4040 H         1 GTP        -0.0393
     36 H3'         1.6764   -1.7639    0.2728 H         1 GTP        -0.0393
     37 HO3'        3.5554   -1.2733    1.4914 H         1 GTP         0.2010
     38 H2'        -0.0011    0.0027    0.0003 H         1 GTP        -0.0393
     39 HO2'       -0.1563   -0.9855    2.0596 H         1 GTP         0.2010
     40 H1'         1.7826    1.9024    1.6451 H         1 GTP        -0.0393
     41 H8         -0.1126    1.6906   -1.6997 H         1 GTP         0.0000
     42 HN1        -1.3285    6.8855    1.9361 H         1 GTP         0.0865
     43 HN21        0.9153    5.4446    4.1732 H         1 GTP         0.2048
     44 HN22       -0.1624    6.7706    3.7948 H         1 GTP         0.2048
     45 H45        -1.5768    3.7405   -1.9429 H         1 GTP         0.2048
@<TRIPOS>BOND
     1    1    2 2
     2    1    3 1
     3    1    4 1
     4    1    5 1
     5    5    6 1
     6    6    7 2
     7    6    8 1
     8    6    9 1
     9    9   10 1
    10   10   11 2
    11   10   12 1
    12   10   13 1
    13   13   14 1
    14   14   15 1
    15   14   33 1
    16   14   34 1
    17   15   16 1
    18   15   17 1
    19   15   35 1
    20   16   21 1
    21   17   18 1
    22   17   19 1
    23   17   36 1
    24   18   37 1
    25   19   20 1
    26   19   21 1
    27   19   38 1
    28   20   39 1
    29   21   22 1
    30   21   40 1
    31   22   23 ar
    32   22   32 ar
    33   23   24 ar
    34   23   41 1
    35   24   25 ar
    36   24   45 1
    37   25   26 ar
    38   25   32 ar
    39   26   27 2
    40   26   28 ar
    41   28   29 ar
    42   28   42 1
    43   29   30 1
    44   29   31 ar
    45   30   43 1
    46   30   44 1
    47   31   32 ar
@<TRIPOS>SUBSTRUCTURE
     1 GTP         1 GROUP 0 A     ****
@<TRIPOS>MOLECULE
[[[5-(2-amino-6-oxo-7,8-dihydro-1~{H}-purin-8-ylium-9-yl)-3,4-dihydroxy-tetrahydrofuran-2-yl]methoxy-oxido-phosphoryl]oxy-oxido-phosphoryl] phosphate
   45    47     1     0     0
SMALL
USER_CHARGES

@<TRIPOS>ATOM
      1 PG          2.3198   -5.6961   -2.1275 P.3       1 GTP        -1.1921
      2 O1G         0.9583   -5.1149   -1.7610 O.co2     1 GTP         0.3195
      3 O2G         3.2121   -4.7525   -2.9269 O.co2     1 GTP         0.3195
      4 O3G         2.2668   -7.1195   -2.6726 O.co2     1 GTP         0.3195
      5 O3B         3.0943   -5.8574   -0.6804 O.3       1 GTP         0.4672
      6 PB          2.6834   -6.7278    0.6397 P.3       1 GTP        -1.1062
      7 O1B         2.4621   -8.1655    0.2255 O.co2     1 GTP         0.3195
      8 O2B         3.6099   -6.3662    1.7792 O.co2     1 GTP         0.3195
      9 O3A         1.2456   -6.0306    0.9747 O.3       1 GTP         0.4672
     10 PA          0.1825   -6.3469    2.1744 P.3       1 GTP        -1.1062
     11 O1A        -0.3833   -7.7331    1.9554 O.co2     1 GTP         0.3195
     12 O2A         0.8008   -5.9555    3.4991 O.co2     1 GTP         0.3195
     13 O5'        -0.9724   -5.2440    1.8220 O.3       1 GTP         0.1618
     14 C5'        -0.7840   -3.8935    2.2172 C.3       1 GTP         0.1504
     15 C4'        -0.0724   -3.1466    1.1027 C.3       1 GTP         0.1111
     16 O4'        -0.8674   -3.1929   -0.0945 O.3       1 GTP        -0.1436
     17 C3'         0.1338   -1.6715    1.4027 C.3       1 GTP         0.1111
     18 O3'         1.2893   -1.4445    2.1808 O.3       1 GTP        -0.2728
     19 C2'         0.2158   -1.0724    0.0128 C.3       1 GTP         0.1111
     20 O2'         1.5141   -1.2448   -0.5513 O.3       1 GTP        -0.2728
     21 C1'        -0.7897   -1.9176   -0.7583 C.3       1 GTP         0.2693
     22 N9         -2.1040   -1.3333   -0.7704 N.pl3     1 GTP        -0.3222
     23 C8         -3.0597   -1.5109    0.1345 C.ar      1 GTP         0.1640
     24 N7         -4.1618   -0.8291   -0.1607 N.pl3     1 GTP        -0.3688
     25 C5         -3.8764   -0.1805   -1.3310 C.ar      1 GTP         0.0648
     26 C6         -4.7187    0.7111   -2.1152 C.ar      1 GTP         0.3597
     27 O6         -5.8617    1.0043   -1.7939 O.2       1 GTP        -0.2755
     28 N1         -4.0405    1.1608   -3.2468 N.pl3     1 GTP        -0.1604
     29 C2         -2.7239    0.8013   -3.5822 C.ar      1 GTP         0.4468
     30 N2         -2.2399    1.3534   -4.7394 N.pl3     1 GTP        -0.5618
     31 N3         -2.0053   -0.0071   -2.8402 N.2       1 GTP        -0.4283
     32 C4         -2.6290   -0.4727   -1.7210 C.ar      1 GTP         0.2226
     33 H5'        -1.7618   -3.4448    2.4164 H         1 GTP        -0.0393
     34 H5''       -0.1874   -3.8744    3.1341 H         1 GTP        -0.0393
     35 H4'         0.8874   -3.6466    0.8805 H         1 GTP        -0.0393
     36 H3'        -0.7376   -1.2333    1.9867 H         1 GTP        -0.0393
     37 HO3'        1.3408   -0.4870    2.3219 H         1 GTP         0.2010
     38 H2'        -0.0384   -0.0310    0.0096 H         1 GTP        -0.0393
     39 HO2'        2.1463   -0.7958    0.0370 H         1 GTP         0.2010
     40 H1'        -0.4769   -2.1002   -1.8093 H         1 GTP        -0.0393
     41 H8         -2.9610   -2.1316    1.0079 H         1 GTP         0.0000
     42 HN1        -4.5320    1.7923   -3.8726 H         1 GTP         0.0865
     43 HN21       -1.3128    1.1277   -5.0171 H         1 GTP         0.2048
     44 HN22       -2.8342    1.9586   -5.2572 H         1 GTP         0.2048
     45 H45        -5.0195   -0.8034    0.3729 H         1 GTP         0.2048
@<TRIPOS>BOND
     1    1    2 2
     2    1    3 1
     3    1    4 1
     4    1    5 1
     5    5    6 1
     6    6    7 2
     7    6    8 1
     8    6    9 1
     9    9   10 1
    10   10   11 2
    11   10   12 1
    12   10   13 1
    13   13   14 1
    14   14   15 1
    15   14   33 1
    16   14   34 1
    17   15   16 1
    18   15   17 1
    19   15   35 1
    20   16   21 1
    21   17   18 1
    22   17   19 1
    23   17   36 1
    24   18   37 1
    25   19   20 1
    26   19   21 1
    27   19   38 1
    28   20   39 1
    29   21   22 1
    30   21   40 1
    31   22   23 ar
    32   22   32 ar
    33   23   24 ar
    34   23   41 1
    35   24   25 ar
    36   24   45 1
    37   25   26 ar
    38   25   32 ar
    39   26   27 2
    40   26   28 ar
    41   28   29 ar
    42   28   42 1
    43   29   30 1
    44   29   31 ar
    45   30   43 1
    46   30   44 1
    47   31   32 ar
@<TRIPOS>SUBSTRUCTURE
     1 GTP         1 GROUP 0 A     ****
@<TRIPOS>MOLECULE
[[[5-(2-amino-6-oxo-7,8-dihydro-1~{H}-purin-8-ylium-9-yl)-3,4-dihydroxy-tetrahydrofuran-2-yl]methoxy-oxido-phosphoryl]oxy-oxido-phosphoryl] phosphate
   45    47     1     0     0
SMALL
USER_CHARGES

@<TRIPOS>ATOM
      1 PG          6.6950   -3.2177   -5.1711 P.3       1 GTP        -1.1921
      2 O1G         6.3739   -4.6566   -5.5613 O.co2     1 GTP         0.3195
      3 O2G         7.3847   -2.4084   -6.2642 O.co2     1 GTP         0.3195
      4 O3G         7.3253   -3.0693   -3.7902 O.co2     1 GTP         0.3195
      5 O3B         5.2178   -2.5028   -5.0085 O.3       1 GTP         0.4672
      6 PB          3.9771   -2.8699   -4.0109 P.3       1 GTP        -1.1062
      7 O1B         3.4321   -4.2285   -4.3912 O.co2     1 GTP         0.3195
      8 O2B         4.3738   -2.5464   -2.5877 O.co2     1 GTP         0.3195
      9 O3A         2.9217   -1.7121   -4.4705 O.3       1 GTP         0.4672
     10 PA          3.0683   -0.0853   -4.4294 P.3       1 GTP        -1.1062
     11 O1A         4.3403    0.2960   -5.1548 O.co2     1 GTP         0.3195
     12 O2A         1.7407    0.5404   -4.7982 O.co2     1 GTP         0.3195
     13 O5'         3.2903    0.1346   -2.8241 O.3       1 GTP         0.1618
     14 C5'         2.2816   -0.2918   -1.9206 C.3       1 GTP         0.1504
     15 C4'         2.7248    0.0226   -0.4980 C.3       1 GTP         0.1111
     16 O4'         2.4697    1.4219   -0.2462 O.3       1 GTP        -0.1436
     17 C3'         1.9404   -0.7419    0.5596 C.3       1 GTP         0.1111
     18 O3'         2.7418   -0.8086    1.7389 O.3       1 GTP        -0.2728
     19 C2'         0.7477    0.1630    0.7858 C.3       1 GTP         0.1111
     20 O2'         0.1373   -0.0577    2.0407 O.3       1 GTP        -0.2728
     21 C1'         1.3733    1.5427    0.6747 C.3       1 GTP         0.2693
     22 N9          0.4520    2.5240    0.1767 N.pl3     1 GTP        -0.3222
     23 C8         -0.8613    2.5511    0.3730 C.ar      1 GTP         0.1640
     24 N7         -1.4346    3.5939   -0.2188 N.pl3     1 GTP        -0.3688
     25 C5         -0.4099    4.2657   -0.8276 C.ar      1 GTP         0.0648
     26 C6         -0.4554    5.4854   -1.6209 C.ar      1 GTP         0.3597
     27 O6         -1.4907    6.0944   -1.8508 O.2       1 GTP        -0.2755
     28 N1          0.8205    5.8357   -2.0593 N.pl3     1 GTP        -0.1604
     29 C2          1.9890    5.1091   -1.7730 C.ar      1 GTP         0.4468
     30 N2          3.1452    5.6230   -2.2997 N.pl3     1 GTP        -0.5618
     31 N3          1.9765    4.0139   -1.0514 N.2       1 GTP        -0.4283
     32 C4          0.7480    3.6324   -0.6003 C.ar      1 GTP         0.2226
     33 H5'         1.3514    0.2330   -2.1577 H         1 GTP        -0.0393
     34 H5''        2.1280   -1.3678   -2.0460 H         1 GTP        -0.0393
     35 H4'         3.8044   -0.1397   -0.4040 H         1 GTP        -0.0393
     36 H3'         1.6764   -1.7639    0.2728 H         1 GTP        -0.0393
     37 HO3'        3.5554   -1.2733    1.4914 H         1 GTP         0.2010
     38 H2'        -0.0011    0.0027    0.0003 H         1 GTP        -0.0393
     39 HO2'       -0.1563   -0.9855    2.0596 H         1 GTP         0.2010
     40 H1'         1.7826    1.9024    1.6451 H         1 GTP        -0.0393
     41 H8         -1.4050    1.8187    0.9438 H         1 GTP         0.0000
     42 HN1         0.9121    6.6744   -2.6251 H         1 GTP         0.0865
     43 HN21        3.9971    5.1427   -2.1235 H         1 GTP         0.2048
     44 HN22        3.0881    6.4564   -2.8380 H         1 GTP         0.2048
     45 H45        -2.4173    3.8294   -0.2127 H         1 GTP         0.2048
@<TRIPOS>BOND
     1    1    2 2
     2    1    3 1
     3    1    4 1
     4    1    5 1
     5    5    6 1
     6    6    7 2
     7    6    8 1
     8    6    9 1
     9    9   10 1
    10   10   11 2
    11   10   12 1
    12   10   13 1
    13   13   14 1
    14   14   15 1
    15   14   33 1
    16   14   34 1
    17   15   16 1
    18   15   17 1
    19   15   35 1
    20   16   21 1
    21   17   18 1
    22   17   19 1
    23   17   36 1
    24   18   37 1
    25   19   20 1
    26   19   21 1
    27   19   38 1
    28   20   39 1
    29   21   22 1
    30   21   40 1
    31   22   23 ar
    32   22   32 ar
    33   23   24 ar
    34   23   41 1
    35   24   25 ar
    36   24   45 1
    37   25   26 ar
    38   25   32 ar
    39   26   27 2
    40   26   28 ar
    41   28   29 ar
    42   28   42 1
    43   29   30 1
    44   29   31 ar
    45   30   43 1
    46   30   44 1
    47   31   32 ar
@<TRIPOS>SUBSTRUCTURE
     1 GTP         1 GROUP 0 A     ****
@<TRIPOS>MOLECULE
[[[5-(2-amino-6-oxo-7,8-dihydro-1~{H}-purin-8-ylium-9-yl)-3,4-dihydroxy-tetrahydrofuran-2-yl]methoxy-oxido-phosphoryl]oxy-oxido-phosphoryl] phosphate
   45    47     1     0     0
SMALL
USER_CHARGES

@<TRIPOS>ATOM
      1 PG         -2.9010   -8.1940    1.8669 P.3       1 GTP        -1.1921
      2 O1G        -2.5227   -7.7237    0.4663 O.co2     1 GTP         0.3195
      3 O2G        -3.6342   -9.5307    1.9050 O.co2     1 GTP         0.3195
      4 O3G        -3.5245   -7.1128    2.7434 O.co2     1 GTP         0.3195
      5 O3B        -1.4539   -8.5047    2.5945 O.3       1 GTP         0.4672
      6 PB         -0.1899   -7.5115    2.8858 P.3       1 GTP        -1.1062
      7 O1B         0.8376   -8.2589    3.7062 O.co2     1 GTP         0.3195
      8 O2B         0.1855   -6.7994    1.6054 O.co2     1 GTP         0.3195
      9 O3A        -0.9379   -6.4065    3.8264 O.3       1 GTP         0.4672
     10 PA         -0.3419   -5.0626    4.5395 P.3       1 GTP        -1.1062
     11 O1A        -1.4922   -4.3090    5.1706 O.co2     1 GTP         0.3195
     12 O2A         0.8853   -5.4324    5.3440 O.co2     1 GTP         0.3195
     13 O5'         0.1618   -4.2444    3.2161 O.3       1 GTP         0.1618
     14 C5'        -0.7840   -3.8935    2.2172 C.3       1 GTP         0.1504
     15 C4'        -0.0724   -3.1466    1.1027 C.3       1 GTP         0.1111
     16 O4'        -0.8674   -3.1929   -0.0945 O.3       1 GTP        -0.1436
     17 C3'         0.1338   -1.6715    1.4027 C.3       1 GTP         0.1111
     18 O3'         1.2893   -1.4445    2.1808 O.3       1 GTP        -0.2728
     19 C2'         0.2158   -1.0724    0.0128 C.3       1 GTP         0.1111
     20 O2'         1.5141   -1.2448   -0.5513 O.3       1 GTP        -0.2728
     21 C1'        -0.7897   -1.9176   -0.7583 C.3       1 GTP         0.2693
     22 N9         -2.1040   -1.3333   -0.7704 N.pl3     1 GTP        -0.3222
     23 C8         -3.0597   -1.5109    0.1345 C.ar      1 GTP         0.1640
     24 N7         -4.1618   -0.8291   -0.1607 N.pl3     1 GTP        -0.3688
     25 C5         -3.8764   -0.1805   -1.3310 C.ar      1 GTP         0.0648
     26 C6         -4.7187    0.7111   -2.1152 C.ar      1 GTP         0.3597
     27 O6         -5.8617    1.0043   -1.7939 O.2       1 GTP        -0.2755
     28 N1         -4.0405    1.1608   -3.2468 N.pl3     1 GTP        -0.1604
     29 C2         -2.7239    0.8013   -3.5822 C.ar      1 GTP         0.4468
     30 N2         -2.2399    1.3534   -4.7394 N.pl3     1 GTP        -0.5618
     31 N3         -2.0053   -0.0071   -2.8402 N.2       1 GTP        -0.4283
     32 C4         -2.6290   -0.4727   -1.7210 C.ar      1 GTP         0.2226
     33 H5'        -1.2460   -4.8076    1.8325 H         1 GTP        -0.0393
     34 H5''       -1.5566   -3.2641    2.6688 H         1 GTP        -0.0393
     35 H4'         0.8874   -3.6466    0.8805 H         1 GTP        -0.0393
     36 H3'        -0.7376   -1.2333    1.9867 H         1 GTP        -0.0393
     37 HO3'        1.1626   -1.9325    3.0084 H         1 GTP         0.2010
     38 H2'        -0.0384   -0.0310    0.0096 H         1 GTP        -0.0393
     39 HO2'        2.1463   -0.7958    0.0370 H         1 GTP         0.2010
     40 H1'        -0.4769   -2.1002   -1.8093 H         1 GTP        -0.0393
     41 H8         -2.9610   -2.1316    1.0079 H         1 GTP         0.0000
     42 HN1        -4.5320    1.7923   -3.8726 H         1 GTP         0.0865
     43 HN21       -1.3128    1.1277   -5.0171 H         1 GTP         0.2048
     44 HN22       -2.8342    1.9586   -5.2572 H         1 GTP         0.2048
     45 H45        -5.0195   -0.8034    0.3729 H         1 GTP         0.2048
@<TRIPOS>BOND
     1    1    2 2
     2    1    3 1
     3    1    4 1
     4    1    5 1
     5    5    6 1
     6    6    7 2
     7    6    8 1
     8    6    9 1
     9    9   10 1
    10   10   11 2
    11   10   12 1
    12   10   13 1
    13   13   14 1
    14   14   15 1
    15   14   33 1
    16   14   34 1
    17   15   16 1
    18   15   17 1
    19   15   35 1
    20   16   21 1
    21   17   18 1
    22   17   19 1
    23   17   36 1
    24   18   37 1
    25   19   20 1
    26   19   21 1
    27   19   38 1
    28   20   39 1
    29   21   22 1
    30   21   40 1
    31   22   23 ar
    32   22   32 ar
    33   23   24 ar
    34   23   41 1
    35   24   25 ar
    36   24   45 1
    37   25   26 ar
    38   25   32 ar
    39   26   27 2
    40   26   28 ar
    41   28   29 ar
    42   28   42 1
    43   29   30 1
    44   29   31 ar
    45   30   43 1
    46   30   44 1
    47   31   32 ar
@<TRIPOS>SUBSTRUCTURE
     1 GTP         1 GROUP 0 A     ****
@<TRIPOS>MOLECULE
[[[5-(2-amino-6-oxo-7,8-dihydro-1~{H}-purin-8-ylium-9-yl)-3,4-dihydroxy-tetrahydrofuran-2-yl]methoxy-oxido-phosphoryl]oxy-oxido-phosphoryl] phosphate
   45    47     1     0     0
SMALL
USER_CHARGES

@<TRIPOS>ATOM
      1 PG          2.1747   -3.5411   -5.9018 P.3       1 GTP        -1.1921
      2 O1G         1.4886   -2.6579   -4.8650 O.co2     1 GTP         0.3195
      3 O2G         1.3355   -3.8209   -7.1440 O.co2     1 GTP         0.3195
      4 O3G         2.8612   -4.7724   -5.3198 O.co2     1 GTP         0.3195
      5 O3B         3.4244   -2.6189   -6.4564 O.3       1 GTP         0.4672
      6 PB          4.6905   -1.9720   -5.6516 P.3       1 GTP        -1.1062
      7 O1B         5.4052   -3.0740   -4.9017 O.co2     1 GTP         0.3195
      8 O2B         5.4338   -1.0305   -6.5727 O.co2     1 GTP         0.3195
      9 O3A         3.8748   -1.0340   -4.5931 O.3       1 GTP         0.4672
     10 PA          4.4374   -0.0458   -3.4198 P.3       1 GTP        -1.1062
     11 O1A         5.1083   -0.8961   -2.3631 O.co2     1 GTP         0.3195
     12 O2A         5.1596    1.1201   -4.0593 O.co2     1 GTP         0.3195
     13 O5'         3.0213    0.5153   -2.8245 O.3       1 GTP         0.1618
     14 C5'         2.2816   -0.2918   -1.9206 C.3       1 GTP         0.1504
     15 C4'         2.7248    0.0226   -0.4980 C.3       1 GTP         0.1111
     16 O4'         2.4697    1.4219   -0.2462 O.3       1 GTP        -0.1436
     17 C3'         1.9404   -0.7419    0.5596 C.3       1 GTP         0.1111
     18 O3'         2.7418   -0.8086    1.7389 O.3       1 GTP        -0.2728
     19 C2'         0.7477    0.1630    0.7858 C.3       1 GTP         0.1111
     20 O2'         0.1373   -0.0577    2.0407 O.3       1 GTP        -0.2728
     21 C1'         1.3733    1.5427    0.6747 C.3       1 GTP         0.2693
     22 N9          0.4520    2.5240    0.1767 N.pl3     1 GTP        -0.3222
     23 C8         -0.6818    2.9109    0.7501 C.ar      1 GTP         0.1640
     24 N7         -1.3103    3.8415    0.0391 N.pl3     1 GTP        -0.3688
     25 C5         -0.5155    4.0512   -1.0547 C.ar      1 GTP         0.0648
     26 C6         -0.7125    4.9651   -2.1705 C.ar      1 GTP         0.3597
     27 O6         -1.6819    5.7047   -2.2651 O.2       1 GTP        -0.2755
     28 N1          0.3401    4.8672   -3.0790 N.pl3     1 GTP        -0.1604
     29 C2          1.4396    4.0039   -2.9348 C.ar      1 GTP         0.4468
     30 N2          2.3679    4.0602   -3.9414 N.pl3     1 GTP        -0.5618
     31 N3          1.5708    3.1983   -1.9080 N.2       1 GTP        -0.4283
     32 C4          0.5630    3.2599   -0.9921 C.ar      1 GTP         0.2226
     33 H5'         1.2163   -0.0770   -2.0471 H         1 GTP        -0.0393
     34 H5''        2.4655   -1.3443   -2.1563 H         1 GTP        -0.0393
     35 H4'         3.8044   -0.1397   -0.4040 H         1 GTP        -0.0393
     36 H3'         1.6764   -1.7639    0.2728 H         1 GTP        -0.0393
     37 HO3'        2.2232   -1.2979    2.3953 H         1 GTP         0.2010
     38 H2'        -0.0011    0.0027    0.0003 H         1 GTP        -0.0393
     39 HO2'       -0.1563   -0.9855    2.0596 H         1 GTP         0.2010
     40 H1'         1.7826    1.9024    1.6451 H         1 GTP        -0.0393
     41 H8         -1.0545    2.5222    1.6816 H         1 GTP         0.0000
     42 HN1         0.3104    5.4612   -3.9026 H         1 GTP         0.0865
     43 HN21        3.1632    3.4672   -3.8824 H         1 GTP         0.2048
     44 HN22        2.2108    4.6918   -4.6924 H         1 GTP         0.2048
     45 H45        -2.1863    4.2902    0.2681 H         1 GTP         0.2048
@<TRIPOS>BOND
     1    1    2 2
     2    1    3 1
     3    1    4 1
     4    1    5 1
     5    5    6 1
     6    6    7 2
     7    6    8 1
     8    6    9 1
     9    9   10 1
    10   10   11 2
    11   10   12 1
    12   10   13 1
    13   13   14 1
    14   14   15 1
    15   14   33 1
    16   14   34 1
    17   15   16 1
    18   15   17 1
    19   15   35 1
    20   16   21 1
    21   17   18 1
    22   17   19 1
    23   17   36 1
    24   18   37 1
    25   19   20 1
    26   19   21 1
    27   19   38 1
    28   20   39 1
    29   21   22 1
    30   21   40 1
    31   22   23 ar
    32   22   32 ar
    33   23   24 ar
    34   23   41 1
    35   24   25 ar
    36   24   45 1
    37   25   26 ar
    38   25   32 ar
    39   26   27 2
    40   26   28 ar
    41   28   29 ar
    42   28   42 1
    43   29   30 1
    44   29   31 ar
    45   30   43 1
    46   30   44 1
    47   31   32 ar
@<TRIPOS>SUBSTRUCTURE
     1 GTP         1 GROUP 0 A     ****
@<TRIPOS>MOLECULE
[[[5-(2-amino-6-oxo-7,8-dihydro-1~{H}-purin-8-ylium-9-yl)-3,4-dihydroxy-tetrahydrofuran-2-yl]methoxy-oxido-phosphoryl]oxy-oxido-phosphoryl] phosphate
   45    47     1     0     0
SMALL
USER_CHARGES

@<TRIPOS>ATOM
      1 PG         -0.1241   -1.6691   -6.2490 P.3       1 GTP        -1.1921
      2 O1G        -0.0317   -0.8650   -4.9564 O.co2     1 GTP         0.3195
      3 O2G        -1.0481   -1.0649   -7.3010 O.co2     1 GTP         0.3195
      4 O3G        -0.3078   -3.1689   -6.0417 O.co2     1 GTP         0.3195
      5 O3B         1.3808   -1.5447   -6.9119 O.3       1 GTP         0.4672
      6 PB          2.8321   -2.0009   -6.3162 P.3       1 GTP        -1.1062
      7 O1B         2.7636   -3.4624   -5.9330 O.co2     1 GTP         0.3195
      8 O2B         3.9257   -1.4689   -7.2154 O.co2     1 GTP         0.3195
      9 O3A         2.8590   -1.0848   -4.9651 O.3       1 GTP         0.4672
     10 PA          4.0014   -0.9657   -3.8031 P.3       1 GTP        -1.1062
     11 O1A         4.0785   -2.2896   -3.0744 O.co2     1 GTP         0.3195
     12 O2A         5.2395   -0.3237   -4.3905 O.co2     1 GTP         0.3195
     13 O5'         3.2903    0.1346   -2.8241 O.3       1 GTP         0.1618
     14 C5'         2.2816   -0.2918   -1.9206 C.3       1 GTP         0.1504
     15 C4'         2.7248    0.0226   -0.4980 C.3       1 GTP         0.1111
     16 O4'         2.4697    1.4219   -0.2462 O.3       1 GTP        -0.1436
     17 C3'         1.9404   -0.7419    0.5596 C.3       1 GTP         0.1111
     18 O3'         2.7418   -0.8086    1.7389 O.3       1 GTP        -0.2728
     19 C2'         0.7477    0.1630    0.7858 C.3       1 GTP         0.1111
     20 O2'         0.1373   -0.0577    2.0407 O.3       1 GTP        -0.2728
     21 C1'         1.3733    1.5427    0.6747 C.3       1 GTP         0.2693
     22 N9          0.4520    2.5240    0.1767 N.pl3     1 GTP        -0.3222
     23 C8          0.5671    3.2221   -0.9473 C.ar      1 GTP         0.1640
     24 N7         -0.4560    4.0508   -1.1290 N.pl3     1 GTP        -0.3688
     25 C5         -1.2671    3.8585   -0.0441 C.ar      1 GTP         0.0648
     26 C6         -2.5318    4.5014    0.2817 C.ar      1 GTP         0.3597
     27 O6         -3.0527    5.3493   -0.4293 O.2       1 GTP        -0.2755
     28 N1         -3.0357    4.0149    1.4868 N.pl3     1 GTP        -0.1604
     29 C2         -2.4069    3.0373    2.2768 C.ar      1 GTP         0.4468
     30 N2         -3.0679    2.6964    3.4278 N.pl3     1 GTP        -0.5618
     31 N3         -1.2653    2.4872    1.9379 N.2       1 GTP        -0.4283
     32 C4         -0.7342    2.9334    0.7643 C.ar      1 GTP         0.2226
     33 H5'         1.3514    0.2330   -2.1577 H         1 GTP        -0.0393
     34 H5''        2.1280   -1.3678   -2.0460 H         1 GTP        -0.0393
     35 H4'         3.8044   -0.1397   -0.4040 H         1 GTP        -0.0393
     36 H3'         1.6764   -1.7639    0.2728 H         1 GTP        -0.0393
     37 HO3'        3.5554   -1.2733    1.4914 H         1 GTP         0.2010
     38 H2'        -0.0011    0.0027    0.0003 H         1 GTP        -0.0393
     39 HO2'        0.8082    0.1199    2.7232 H         1 GTP         0.2010
     40 H1'         1.7826    1.9024    1.6451 H         1 GTP        -0.0393
     41 H8          1.3888    3.1325   -1.6361 H         1 GTP         0.0000
     42 HN1        -3.9188    4.3932    1.8170 H         1 GTP         0.0865
     43 HN21       -2.6609    2.0087    4.0186 H         1 GTP         0.2048
     44 HN22       -3.9293    3.1496    3.6283 H         1 GTP         0.2048
     45 H45        -0.5938    4.6820   -1.9060 H         1 GTP         0.2048
@<TRIPOS>BOND
     1    1    2 2
     2    1    3 1
     3    1    4 1
     4    1    5 1
     5    5    6 1
     6    6    7 2
     7    6    8 1
     8    6    9 1
     9    9   10 1
    10   10   11 2
    11   10   12 1
    12   10   13 1
    13   13   14 1
    14   14   15 1
    15   14   33 1
    16   14   34 1
    17   15   16 1
    18   15   17 1
    19   15   35 1
    20   16   21 1
    21   17   18 1
    22   17   19 1
    23   17   36 1
    24   18   37 1
    25   19   20 1
    26   19   21 1
    27   19   38 1
    28   20   39 1
    29   21   22 1
    30   21   40 1
    31   22   23 ar
    32   22   32 ar
    33   23   24 ar
    34   23   41 1
    35   24   25 ar
    36   24   45 1
    37   25   26 ar
    38   25   32 ar
    39   26   27 2
    40   26   28 ar
    41   28   29 ar
    42   28   42 1
    43   29   30 1
    44   29   31 ar
    45   30   43 1
    46   30   44 1
    47   31   32 ar
@<TRIPOS>SUBSTRUCTURE
     1 GTP         1 GROUP 0 A     ****
@<TRIPOS>MOLECULE
[[[5-(2-amino-6-oxo-7,8-dihydro-1~{H}-purin-8-ylium-9-yl)-3,4-dihydroxy-tetrahydrofuran-2-yl]methoxy-oxido-phosphoryl]oxy-oxido-phosphoryl] phosphate
   45    47     1     0     0
SMALL
USER_CHARGES

@<TRIPOS>ATOM
      1 PG          4.1772   -5.1394   -2.0914 P.3       1 GTP        -1.1921
      2 O1G         3.6458   -6.3621   -2.8320 O.co2     1 GTP         0.3195
      3 O2G         5.3712   -5.4222   -1.1859 O.co2     1 GTP         0.3195
      4 O3G         3.0953   -4.2769   -1.4498 O.co2     1 GTP         0.3195
      5 O3B         4.7910   -4.1789   -3.2833 O.3       1 GTP         0.4672
      6 PB          4.0533   -3.5124   -4.5797 P.3       1 GTP        -1.1062
      7 O1B         5.0912   -3.2467   -5.6473 O.co2     1 GTP         0.3195
      8 O2B         2.7882   -4.2846   -4.8806 O.co2     1 GTP         0.3195
      9 O3A         3.5834   -2.0978   -3.9137 O.3       1 GTP         0.4672
     10 PA          4.4792   -0.9077   -3.2423 P.3       1 GTP        -1.1062
     11 O1A         5.1201   -1.4478   -1.9825 O.co2     1 GTP         0.3195
     12 O2A         5.3102   -0.2460   -4.3201 O.co2     1 GTP         0.3195
     13 O5'         3.2903    0.1346   -2.8241 O.3       1 GTP         0.1618
     14 C5'         2.2816   -0.2918   -1.9206 C.3       1 GTP         0.1504
     15 C4'         2.7248    0.0226   -0.4980 C.3       1 GTP         0.1111
     16 O4'         2.4697    1.4219   -0.2462 O.3       1 GTP        -0.1436
     17 C3'         1.9404   -0.7419    0.5596 C.3       1 GTP         0.1111
     18 O3'         2.7418   -0.8086    1.7389 O.3       1 GTP        -0.2728
     19 C2'         0.7477    0.1630    0.7858 C.3       1 GTP         0.1111
     20 O2'         0.1373   -0.0577    2.0407 O.3       1 GTP        -0.2728
     21 C1'         1.3733    1.5427    0.6747 C.3       1 GTP         0.2693
     22 N9          0.4520    2.5240    0.1767 N.pl3     1 GTP        -0.3222
     23 C8          0.5671    3.2221   -0.9473 C.ar      1 GTP         0.1640
     24 N7         -0.4560    4.0508   -1.1290 N.pl3     1 GTP        -0.3688
     25 C5         -1.2671    3.8585   -0.0441 C.ar      1 GTP         0.0648
     26 C6         -2.5318    4.5014    0.2817 C.ar      1 GTP         0.3597
     27 O6         -3.0527    5.3493   -0.4293 O.2       1 GTP        -0.2755
     28 N1         -3.0357    4.0149    1.4868 N.pl3     1 GTP        -0.1604
     29 C2         -2.4069    3.0373    2.2768 C.ar      1 GTP         0.4468
     30 N2         -3.0679    2.6964    3.4278 N.pl3     1 GTP        -0.5618
     31 N3         -1.2653    2.4872    1.9379 N.2       1 GTP        -0.4283
     32 C4         -0.7342    2.9334    0.7643 C.ar      1 GTP         0.2226
     33 H5'         1.3514    0.2330   -2.1577 H         1 GTP        -0.0393
     34 H5''        2.1280   -1.3678   -2.0460 H         1 GTP        -0.0393
     35 H4'         3.8044   -0.1397   -0.4040 H         1 GTP        -0.0393
     36 H3'         1.6764   -1.7639    0.2728 H         1 GTP        -0.0393
     37 HO3'        3.5554   -1.2733    1.4914 H         1 GTP         0.2010
     38 H2'        -0.0011    0.0027    0.0003 H         1 GTP        -0.0393
     39 HO2'       -0.1563   -0.9855    2.0596 H         1 GTP         0.2010
     40 H1'         1.7826    1.9024    1.6451 H         1 GTP        -0.0393
     41 H8          1.3888    3.1325   -1.6361 H         1 GTP         0.0000
     42 HN1        -3.9188    4.3932    1.8170 H         1 GTP         0.0865
     43 HN21       -2.6609    2.0087    4.0186 H         1 GTP         0.2048
     44 HN22       -3.9293    3.1496    3.6283 H         1 GTP         0.2048
     45 H45        -0.5938    4.6820   -1.9060 H         1 GTP         0.2048
@<TRIPOS>BOND
     1    1    2 2
     2    1    3 1
     3    1    4 1
     4    1    5 1
     5    5    6 1
     6    6    7 2
     7    6    8 1
     8    6    9 1
     9    9   10 1
    10   10   11 2
    11   10   12 1
    12   10   13 1
    13   13   14 1
    14   14   15 1
    15   14   33 1
    16   14   34 1
    17   15   16 1
    18   15   17 1
    19   15   35 1
    20   16   21 1
    21   17   18 1
    22   17   19 1
    23   17   36 1
    24   18   37 1
    25   19   20 1
    26   19   21 1
    27   19   38 1
    28   20   39 1
    29   21   22 1
    30   21   40 1
    31   22   23 ar
    32   22   32 ar
    33   23   24 ar
    34   23   41 1
    35   24   25 ar
    36   24   45 1
    37   25   26 ar
    38   25   32 ar
    39   26   27 2
    40   26   28 ar
    41   28   29 ar
    42   28   42 1
    43   29   30 1
    44   29   31 ar
    45   30   43 1
    46   30   44 1
    47   31   32 ar
@<TRIPOS>SUBSTRUCTURE
     1 GTP         1 GROUP 0 A     ****
@<TRIPOS>MOLECULE
[[[5-(2-amino-6-oxo-7,8-dihydro-1~{H}-purin-8-ylium-9-yl)-3,4-dihydroxy-tetrahydrofuran-2-yl]methoxy-oxido-phosphoryl]oxy-oxido-phosphoryl] phosphate
   45    47     1     0     0
SMALL
USER_CHARGES

@<TRIPOS>ATOM
      1 PG         -1.9029    2.3220    3.6525 P.3       1 GTP        -1.1921
      2 O1G        -1.0348    2.9958    4.7099 O.co2     1 GTP         0.3195
      3 O2G        -1.6009    2.7545    2.2217 O.co2     1 GTP         0.3195
      4 O3G        -3.3888    2.2830    3.9943 O.co2     1 GTP         0.3195
      5 O3B        -1.4459    0.7382    3.7022 O.3       1 GTP         0.4672
      6 PB         -1.4984   -0.3322    4.9354 P.3       1 GTP        -1.1062
      7 O1B        -0.5415    0.1217    6.0152 O.co2     1 GTP         0.3195
      8 O2B        -2.9419   -0.6611    5.2443 O.co2     1 GTP         0.3195
      9 O3A        -0.8801   -1.6375    4.1742 O.3       1 GTP         0.4672
     10 PA         -0.6011   -3.1449    4.7394 P.3       1 GTP        -1.1062
     11 O1A         0.4884   -3.0662    5.7865 O.co2     1 GTP         0.3195
     12 O2A        -1.9252   -3.8141    5.0380 O.co2     1 GTP         0.3195
     13 O5'         0.0118   -3.8395    3.3916 O.3       1 GTP         0.1618
     14 C5'        -0.7840   -3.8935    2.2172 C.3       1 GTP         0.1504
     15 C4'        -0.0724   -3.1466    1.1027 C.3       1 GTP         0.1111
     16 O4'        -0.8674   -3.1929   -0.0945 O.3       1 GTP        -0.1436
     17 C3'         0.1338   -1.6715    1.4027 C.3       1 GTP         0.1111
     18 O3'         1.2893   -1.4445    2.1808 O.3       1 GTP        -0.2728
     19 C2'         0.2158   -1.0724    0.0128 C.3       1 GTP         0.1111
     20 O2'         1.5141   -1.2448   -0.5513 O.3       1 GTP        -0.2728
     21 C1'        -0.7897   -1.9176   -0.7583 C.3       1 GTP         0.2693
     22 N9         -2.1040   -1.3333   -0.7704 N.pl3     1 GTP        -0.3222
     23 C8         -3.0597   -1.5109    0.1345 C.ar      1 GTP         0.1640
     24 N7         -4.1618   -0.8291   -0.1607 N.pl3     1 GTP        -0.3688
     25 C5         -3.8764   -0.1805   -1.3310 C.ar      1 GTP         0.0648
     26 C6         -4.7187    0.7111   -2.1152 C.ar      1 GTP         0.3597
     27 O6         -5.8617    1.0043   -1.7939 O.2       1 GTP        -0.2755
     28 N1         -4.0405    1.1608   -3.2468 N.pl3     1 GTP        -0.1604
     29 C2         -2.7239    0.8013   -3.5822 C.ar      1 GTP         0.4468
     30 N2         -2.2399    1.3534   -4.7394 N.pl3     1 GTP        -0.5618
     31 N3         -2.0053   -0.0071   -2.8402 N.2       1 GTP        -0.4283
     32 C4         -2.6290   -0.4727   -1.7210 C.ar      1 GTP         0.2226
     33 H5'        -0.9348   -4.9415    1.9415 H         1 GTP        -0.0393
     34 H5''       -1.7548   -3.4350    2.4278 H         1 GTP        -0.0393
     35 H4'         0.8874   -3.6466    0.8805 H         1 GTP        -0.0393
     36 H3'        -0.7376   -1.2333    1.9867 H         1 GTP        -0.0393
     37 HO3'        1.3408   -0.4870    2.3219 H         1 GTP         0.2010
     38 H2'        -0.0384   -0.0310    0.0096 H         1 GTP        -0.0393
     39 HO2'        2.1463   -0.7958    0.0370 H         1 GTP         0.2010
     40 H1'        -0.4769   -2.1002   -1.8093 H         1 GTP        -0.0393
     41 H8         -2.9610   -2.1316    1.0079 H         1 GTP         0.0000
     42 HN1        -4.5320    1.7923   -3.8726 H         1 GTP         0.0865
     43 HN21       -1.3128    1.1277   -5.0171 H         1 GTP         0.2048
     44 HN22       -2.8342    1.9586   -5.2572 H         1 GTP         0.2048
     45 H45        -5.0195   -0.8034    0.3729 H         1 GTP         0.2048
@<TRIPOS>BOND
     1    1    2 2
     2    1    3 1
     3    1    4 1
     4    1    5 1
     5    5    6 1
     6    6    7 2
     7    6    8 1
     8    6    9 1
     9    9   10 1
    10   10   11 2
    11   10   12 1
    12   10   13 1
    13   13   14 1
    14   14   15 1
    15   14   33 1
    16   14   34 1
    17   15   16 1
    18   15   17 1
    19   15   35 1
    20   16   21 1
    21   17   18 1
    22   17   19 1
    23   17   36 1
    24   18   37 1
    25   19   20 1
    26   19   21 1
    27   19   38 1
    28   20   39 1
    29   21   22 1
    30   21   40 1
    31   22   23 ar
    32   22   32 ar
    33   23   24 ar
    34   23   41 1
    35   24   25 ar
    36   24   45 1
    37   25   26 ar
    38   25   32 ar
    39   26   27 2
    40   26   28 ar
    41   28   29 ar
    42   28   42 1
    43   29   30 1
    44   29   31 ar
    45   30   43 1
    46   30   44 1
    47   31   32 ar
@<TRIPOS>SUBSTRUCTURE
     1 GTP         1 GROUP 0 A     ****
@<TRIPOS>MOLECULE
[[[5-(2-amino-6-oxo-7,8-dihydro-1~{H}-purin-8-ylium-9-yl)-3,4-dihydroxy-tetrahydrofuran-2-yl]methoxy-oxido-phosphoryl]oxy-oxido-phosphoryl] phosphate
   45    47     1     0     0
SMALL
USER_CHARGES

@<TRIPOS>ATOM
      1 PG         -6.1776   -7.2295    3.3924 P.3       1 GTP        -1.1921
      2 O1G        -6.1663   -8.7366    3.1590 O.co2     1 GTP         0.3195
      3 O2G        -6.8728   -6.7974    4.6791 O.co2     1 GTP         0.3195
      4 O3G        -6.5638   -6.4089    2.1662 O.co2     1 GTP         0.3195
      5 O3B        -4.5928   -6.8460    3.6395 O.3       1 GTP         0.4672
      6 PB         -3.2996   -7.0411    2.6603 P.3       1 GTP        -1.1062
      7 O1B        -3.0550   -8.5210    2.4659 O.co2     1 GTP         0.3195
      8 O2B        -3.4224   -6.0981    1.4843 O.co2     1 GTP         0.3195
      9 O3A        -2.1421   -6.4212    3.6304 O.3       1 GTP         0.4672
     10 PA         -0.5378   -6.2523    3.3707 P.3       1 GTP        -1.1062
     11 O1A         0.0525   -5.4774    4.5286 O.co2     1 GTP         0.3195
     12 O2A         0.0382   -7.5866    2.9488 O.co2     1 GTP         0.3195
     13 O5'        -0.5687   -5.2869    2.0510 O.3       1 GTP         0.1618
     14 C5'        -0.7840   -3.8935    2.2172 C.3       1 GTP         0.1504
     15 C4'        -0.0724   -3.1466    1.1027 C.3       1 GTP         0.1111
     16 O4'        -0.8674   -3.1929   -0.0945 O.3       1 GTP        -0.1436
     17 C3'         0.1338   -1.6715    1.4027 C.3       1 GTP         0.1111
     18 O3'         1.2893   -1.4445    2.1808 O.3       1 GTP        -0.2728
     19 C2'         0.2158   -1.0724    0.0128 C.3       1 GTP         0.1111
     20 O2'         1.5141   -1.2448   -0.5513 O.3       1 GTP        -0.2728
     21 C1'        -0.7897   -1.9176   -0.7583 C.3       1 GTP         0.2693
     22 N9         -2.1040   -1.3333   -0.7704 N.pl3     1 GTP        -0.3222
     23 C8         -3.0597   -1.5109    0.1345 C.ar      1 GTP         0.1640
     24 N7         -4.1618   -0.8291   -0.1607 N.pl3     1 GTP        -0.3688
     25 C5         -3.8764   -0.1805   -1.3310 C.ar      1 GTP         0.0648
     26 C6         -4.7187    0.7111   -2.1152 C.ar      1 GTP         0.3597
     27 O6         -5.8617    1.0043   -1.7939 O.2       1 GTP        -0.2755
     28 N1         -4.0405    1.1608   -3.2468 N.pl3     1 GTP        -0.1604
     29 C2         -2.7239    0.8013   -3.5822 C.ar      1 GTP         0.4468
     30 N2         -2.2399    1.3534   -4.7394 N.pl3     1 GTP        -0.5618
     31 N3         -2.0053   -0.0071   -2.8402 N.2       1 GTP        -0.4283
     32 C4         -2.6290   -0.4727   -1.7210 C.ar      1 GTP         0.2226
     33 H5'        -1.8598   -3.6968    2.1850 H         1 GTP        -0.0393
     34 H5''       -0.3933   -3.5903    3.1931 H         1 GTP        -0.0393
     35 H4'         0.8874   -3.6466    0.8805 H         1 GTP        -0.0393
     36 H3'        -0.7376   -1.2333    1.9867 H         1 GTP        -0.0393
     37 HO3'        1.3408   -0.4870    2.3219 H         1 GTP         0.2010
     38 H2'        -0.0384   -0.0310    0.0096 H         1 GTP        -0.0393
     39 HO2'        1.4998   -0.8412   -1.4369 H         1 GTP         0.2010
     40 H1'        -0.4769   -2.1002   -1.8093 H         1 GTP        -0.0393
     41 H8         -2.9610   -2.1316    1.0079 H         1 GTP         0.0000
     42 HN1        -4.5320    1.7923   -3.8726 H         1 GTP         0.0865
     43 HN21       -1.3128    1.1277   -5.0171 H         1 GTP         0.2048
     44 HN22       -2.8342    1.9586   -5.2572 H         1 GTP         0.2048
     45 H45        -5.0195   -0.8034    0.3729 H         1 GTP         0.2048
@<TRIPOS>BOND
     1    1    2 2
     2    1    3 1
     3    1    4 1
     4    1    5 1
     5    5    6 1
     6    6    7 2
     7    6    8 1
     8    6    9 1
     9    9   10 1
    10   10   11 2
    11   10   12 1
    12   10   13 1
    13   13   14 1
    14   14   15 1
    15   14   33 1
    16   14   34 1
    17   15   16 1
    18   15   17 1
    19   15   35 1
    20   16   21 1
    21   17   18 1
    22   17   19 1
    23   17   36 1
    24   18   37 1
    25   19   20 1
    26   19   21 1
    27   19   38 1
    28   20   39 1
    29   21   22 1
    30   21   40 1
    31   22   23 ar
    32   22   32 ar
    33   23   24 ar
    34   23   41 1
    35   24   25 ar
    36   24   45 1
    37   25   26 ar
    38   25   32 ar
    39   26   27 2
    40   26   28 ar
    41   28   29 ar
    42   28   42 1
    43   29   30 1
    44   29   31 ar
    45   30   43 1
    46   30   44 1
    47   31   32 ar
@<TRIPOS>SUBSTRUCTURE
     1 GTP         1 GROUP 0 A     ****
@<TRIPOS>MOLECULE
[[[5-(2-amino-6-oxo-7,8-dihydro-1~{H}-purin-8-ylium-9-yl)-3,4-dihydroxy-tetrahydrofuran-2-yl]methoxy-oxido-phosphoryl]oxy-oxido-phosphoryl] phosphate
   45    47     1     0     0
SMALL
USER_CHARGES

@<TRIPOS>ATOM
      1 PG          4.2350   -7.8637    1.2807 P.3       1 GTP        -1.1921
      2 O1G         5.0734   -8.2590    2.4917 O.co2     1 GTP         0.3195
      3 O2G         3.2077   -8.9088    0.8587 O.co2     1 GTP         0.3195
      4 O3G         5.0402   -7.2757    0.1266 O.co2     1 GTP         0.3195
      5 O3B         3.3265   -6.5947    1.8136 O.3       1 GTP         0.4672
      6 PB          3.7921   -5.1457    2.4078 P.3       1 GTP        -1.1062
      7 O1B         4.5072   -5.3655    3.7223 O.co2     1 GTP         0.3195
      8 O2B         4.4134   -4.3310    1.2954 O.co2     1 GTP         0.3195
      9 O3A         2.3216   -4.4952    2.6906 O.3       1 GTP         0.4672
     10 PA          1.1155   -5.0156    3.6623 P.3       1 GTP        -1.1062
     11 O1A         0.5857   -6.3193    3.1062 O.co2     1 GTP         0.3195
     12 O2A         1.5593   -4.9041    5.1047 O.co2     1 GTP         0.3195
     13 O5'         0.0118   -3.8395    3.3916 O.3       1 GTP         0.1618
     14 C5'        -0.7840   -3.8935    2.2172 C.3       1 GTP         0.1504
     15 C4'        -0.0724   -3.1466    1.1027 C.3       1 GTP         0.1111
     16 O4'        -0.8674   -3.1929   -0.0945 O.3       1 GTP        -0.1436
     17 C3'         0.1338   -1.6715    1.4027 C.3       1 GTP         0.1111
     18 O3'         1.2893   -1.4445    2.1808 O.3       1 GTP        -0.2728
     19 C2'         0.2158   -1.0724    0.0128 C.3       1 GTP         0.1111
     20 O2'         1.5141   -1.2448   -0.5513 O.3       1 GTP        -0.2728
     21 C1'        -0.7897   -1.9176   -0.7583 C.3       1 GTP         0.2693
     22 N9         -2.1040   -1.3333   -0.7704 N.pl3     1 GTP        -0.3222
     23 C8         -3.0597   -1.5109    0.1345 C.ar      1 GTP         0.1640
     24 N7         -4.1618   -0.8291   -0.1607 N.pl3     1 GTP        -0.3688
     25 C5         -3.8764   -0.1805   -1.3310 C.ar      1 GTP         0.0648
     26 C6         -4.7187    0.7111   -2.1152 C.ar      1 GTP         0.3597
     27 O6         -5.8617    1.0043   -1.7939 O.2       1 GTP        -0.2755
     28 N1         -4.0405    1.1608   -3.2468 N.pl3     1 GTP        -0.1604
     29 C2         -2.7239    0.8013   -3.5822 C.ar      1 GTP         0.4468
     30 N2         -2.2399    1.3534   -4.7394 N.pl3     1 GTP        -0.5618
     31 N3         -2.0053   -0.0071   -2.8402 N.2       1 GTP        -0.4283
     32 C4         -2.6290   -0.4727   -1.7210 C.ar      1 GTP         0.2226
     33 H5'        -0.9348   -4.9415    1.9415 H         1 GTP        -0.0393
     34 H5''       -1.7548   -3.4350    2.4278 H         1 GTP        -0.0393
     35 H4'         0.8874   -3.6466    0.8805 H         1 GTP        -0.0393
     36 H3'        -0.7376   -1.2333    1.9867 H         1 GTP        -0.0393
     37 HO3'        1.1626   -1.9325    3.0084 H         1 GTP         0.2010
     38 H2'        -0.0384   -0.0310    0.0096 H         1 GTP        -0.0393
     39 HO2'        2.1463   -0.7958    0.0370 H         1 GTP         0.2010
     40 H1'        -0.4769   -2.1002   -1.8093 H         1 GTP        -0.0393
     41 H8         -2.9610   -2.1316    1.0079 H         1 GTP         0.0000
     42 HN1        -4.5320    1.7923   -3.8726 H         1 GTP         0.0865
     43 HN21       -1.3128    1.1277   -5.0171 H         1 GTP         0.2048
     44 HN22       -2.8342    1.9586   -5.2572 H         1 GTP         0.2048
     45 H45        -5.0195   -0.8034    0.3729 H         1 GTP         0.2048
@<TRIPOS>BOND
     1    1    2 2
     2    1    3 1
     3    1    4 1
     4    1    5 1
     5    5    6 1
     6    6    7 2
     7    6    8 1
     8    6    9 1
     9    9   10 1
    10   10   11 2
    11   10   12 1
    12   10   13 1
    13   13   14 1
    14   14   15 1
    15   14   33 1
    16   14   34 1
    17   15   16 1
    18   15   17 1
    19   15   35 1
    20   16   21 1
    21   17   18 1
    22   17   19 1
    23   17   36 1
    24   18   37 1
    25   19   20 1
    26   19   21 1
    27   19   38 1
    28   20   39 1
    29   21   22 1
    30   21   40 1
    31   22   23 ar
    32   22   32 ar
    33   23   24 ar
    34   23   41 1
    35   24   25 ar
    36   24   45 1
    37   25   26 ar
    38   25   32 ar
    39   26   27 2
    40   26   28 ar
    41   28   29 ar
    42   28   42 1
    43   29   30 1
    44   29   31 ar
    45   30   43 1
    46   30   44 1
    47   31   32 ar
@<TRIPOS>SUBSTRUCTURE
     1 GTP         1 GROUP 0 A     ****
@<TRIPOS>MOLECULE
[[[5-(2-amino-6-oxo-7,8-dihydro-1~{H}-purin-8-ylium-9-yl)-3,4-dihydroxy-tetrahydrofuran-2-yl]methoxy-oxido-phosphoryl]oxy-oxido-phosphoryl] phosphate
   45    47     1     0     0
SMALL
USER_CHARGES

@<TRIPOS>ATOM
      1 PG         -2.3543   -8.2196    4.7544 P.3       1 GTP        -1.1921
      2 O1G        -2.6069   -6.7271    4.5689 O.co2     1 GTP         0.3195
      3 O2G        -3.4302   -9.1189    4.1550 O.co2     1 GTP         0.3195
      4 O3G        -1.9248   -8.6115    6.1643 O.co2     1 GTP         0.3195
      5 O3B        -1.0171   -8.5212    3.8375 O.3       1 GTP         0.4672
      6 PB          0.4883   -7.8941    3.9370 P.3       1 GTP        -1.1062
      7 O1B         1.0058   -8.0914    5.3444 O.co2     1 GTP         0.3195
      8 O2B         1.2882   -8.3331    2.7309 O.co2     1 GTP         0.3195
      9 O3A         0.1301   -6.3183    3.7049 O.3       1 GTP         0.4672
     10 PA          1.1155   -5.0156    3.6623 P.3       1 GTP        -1.1062
     11 O1A         1.7073   -4.8215    5.0413 O.co2     1 GTP         0.3195
     12 O2A         2.0000   -5.1043    2.4376 O.co2     1 GTP         0.3195
     13 O5'         0.0118   -3.8395    3.3916 O.3       1 GTP         0.1618
     14 C5'        -0.7840   -3.8935    2.2172 C.3       1 GTP         0.1504
     15 C4'        -0.0724   -3.1466    1.1027 C.3       1 GTP         0.1111
     16 O4'        -0.8674   -3.1929   -0.0945 O.3       1 GTP        -0.1436
     17 C3'         0.1338   -1.6715    1.4027 C.3       1 GTP         0.1111
     18 O3'         1.2893   -1.4445    2.1808 O.3       1 GTP        -0.2728
     19 C2'         0.2158   -1.0724    0.0128 C.3       1 GTP         0.1111
     20 O2'         1.5141   -1.2448   -0.5513 O.3       1 GTP        -0.2728
     21 C1'        -0.7897   -1.9176   -0.7583 C.3       1 GTP         0.2693
     22 N9         -2.1040   -1.3333   -0.7704 N.pl3     1 GTP        -0.3222
     23 C8         -3.0597   -1.5109    0.1345 C.ar      1 GTP         0.1640
     24 N7         -4.1618   -0.8291   -0.1607 N.pl3     1 GTP        -0.3688
     25 C5         -3.8764   -0.1805   -1.3310 C.ar      1 GTP         0.0648
     26 C6         -4.7187    0.7111   -2.1152 C.ar      1 GTP         0.3597
     27 O6         -5.8617    1.0043   -1.7939 O.2       1 GTP        -0.2755
     28 N1         -4.0405    1.1608   -3.2468 N.pl3     1 GTP        -0.1604
     29 C2         -2.7239    0.8013   -3.5822 C.ar      1 GTP         0.4468
     30 N2         -2.2399    1.3534   -4.7394 N.pl3     1 GTP        -0.5618
     31 N3         -2.0053   -0.0071   -2.8402 N.2       1 GTP        -0.4283
     32 C4         -2.6290   -0.4727   -1.7210 C.ar      1 GTP         0.2226
     33 H5'        -0.9348   -4.9415    1.9415 H         1 GTP        -0.0393
     34 H5''       -1.7548   -3.4350    2.4278 H         1 GTP        -0.0393
     35 H4'         0.8874   -3.6466    0.8805 H         1 GTP        -0.0393
     36 H3'        -0.7376   -1.2333    1.9867 H         1 GTP        -0.0393
     37 HO3'        1.3408   -0.4870    2.3219 H         1 GTP         0.2010
     38 H2'        -0.0384   -0.0310    0.0096 H         1 GTP        -0.0393
     39 HO2'        2.1463   -0.7958    0.0370 H         1 GTP         0.2010
     40 H1'        -0.4769   -2.1002   -1.8093 H         1 GTP        -0.0393
     41 H8         -2.9610   -2.1316    1.0079 H         1 GTP         0.0000
     42 HN1        -4.5320    1.7923   -3.8726 H         1 GTP         0.0865
     43 HN21       -1.3128    1.1277   -5.0171 H         1 GTP         0.2048
     44 HN22       -2.8342    1.9586   -5.2572 H         1 GTP         0.2048
     45 H45        -5.0195   -0.8034    0.3729 H         1 GTP         0.2048
@<TRIPOS>BOND
     1    1    2 2
     2    1    3 1
     3    1    4 1
     4    1    5 1
     5    5    6 1
     6    6    7 2
     7    6    8 1
     8    6    9 1
     9    9   10 1
    10   10   11 2
    11   10   12 1
    12   10   13 1
    13   13   14 1
    14   14   15 1
    15   14   33 1
    16   14   34 1
    17   15   16 1
    18   15   17 1
    19   15   35 1
    20   16   21 1
    21   17   18 1
    22   17   19 1
    23   17   36 1
    24   18   37 1
    25   19   20 1
    26   19   21 1
    27   19   38 1
    28   20   39 1
    29   21   22 1
    30   21   40 1
    31   22   23 ar
    32   22   32 ar
    33   23   24 ar
    34   23   41 1
    35   24   25 ar
    36   24   45 1
    37   25   26 ar
    38   25   32 ar
    39   26   27 2
    40   26   28 ar
    41   28   29 ar
    42   28   42 1
    43   29   30 1
    44   29   31 ar
    45   30   43 1
    46   30   44 1
    47   31   32 ar
@<TRIPOS>SUBSTRUCTURE
     1 GTP         1 GROUP 0 A     ****
@<TRIPOS>MOLECULE
[[[5-(2-amino-6-oxo-7,8-dihydro-1~{H}-purin-8-ylium-9-yl)-3,4-dihydroxy-tetrahydrofuran-2-yl]methoxy-oxido-phosphoryl]oxy-oxido-phosphoryl] phosphate
   45    47     1     0     0
SMALL
USER_CHARGES

@<TRIPOS>ATOM
      1 PG          1.8771   -8.7869    6.5515 P.3       1 GTP        -1.1921
      2 O1G         1.1932   -8.5498    7.8938 O.co2     1 GTP         0.3195
      3 O2G         1.5157  -10.1109    5.8866 O.co2     1 GTP         0.3195
      4 O3G         3.3687   -8.4692    6.5439 O.co2     1 GTP         0.3195
      5 O3B         1.2259   -7.6433    5.5575 O.3       1 GTP         0.4672
      6 PB          1.2422   -6.0141    5.6782 P.3       1 GTP        -1.1062
      7 O1B         0.4443   -5.6082    6.8973 O.co2     1 GTP         0.3195
      8 O2B         2.6520   -5.5151    5.4530 O.co2     1 GTP         0.3195
      9 O3A         0.4004   -5.6443    4.3291 O.3       1 GTP         0.4672
     10 PA          0.7268   -5.9846    2.7648 P.3       1 GTP        -1.1062
     11 O1A         1.9729   -5.2260    2.3630 O.co2     1 GTP         0.3195
     12 O2A         0.6184   -7.4787    2.5505 O.co2     1 GTP         0.3195
     13 O5'        -0.5687   -5.2869    2.0510 O.3       1 GTP         0.1618
     14 C5'        -0.7840   -3.8935    2.2172 C.3       1 GTP         0.1504
     15 C4'        -0.0724   -3.1466    1.1027 C.3       1 GTP         0.1111
     16 O4'        -0.8674   -3.1929   -0.0945 O.3       1 GTP        -0.1436
     17 C3'         0.1338   -1.6715    1.4027 C.3       1 GTP         0.1111
     18 O3'         1.2893   -1.4445    2.1808 O.3       1 GTP        -0.2728
     19 C2'         0.2158   -1.0724    0.0128 C.3       1 GTP         0.1111
     20 O2'         1.5141   -1.2448   -0.5513 O.3       1 GTP        -0.2728
     21 C1'        -0.7897   -1.9176   -0.7583 C.3       1 GTP         0.2693
     22 N9         -2.1040   -1.3333   -0.7704 N.pl3     1 GTP        -0.3222
     23 C8         -3.0597   -1.5109    0.1345 C.ar      1 GTP         0.1640
     24 N7         -4.1618   -0.8291   -0.1607 N.pl3     1 GTP        -0.3688
     25 C5         -3.8764   -0.1805   -1.3310 C.ar      1 GTP         0.0648
     26 C6         -4.7187    0.7111   -2.1152 C.ar      1 GTP         0.3597
     27 O6         -5.8617    1.0043   -1.7939 O.2       1 GTP        -0.2755
     28 N1         -4.0405    1.1608   -3.2468 N.pl3     1 GTP        -0.1604
     29 C2         -2.7239    0.8013   -3.5822 C.ar      1 GTP         0.4468
     30 N2         -2.2399    1.3534   -4.7394 N.pl3     1 GTP        -0.5618
     31 N3         -2.0053   -0.0071   -2.8402 N.2       1 GTP        -0.4283
     32 C4         -2.6290   -0.4727   -1.7210 C.ar      1 GTP         0.2226
     33 H5'        -1.8598   -3.6968    2.1850 H         1 GTP        -0.0393
     34 H5''       -0.3933   -3.5903    3.1931 H         1 GTP        -0.0393
     35 H4'         0.8874   -3.6466    0.8805 H         1 GTP        -0.0393
     36 H3'        -0.7376   -1.2333    1.9867 H         1 GTP        -0.0393
     37 HO3'        1.1626   -1.9325    3.0084 H         1 GTP         0.2010
     38 H2'        -0.0384   -0.0310    0.0096 H         1 GTP        -0.0393
     39 HO2'        2.1463   -0.7958    0.0370 H         1 GTP         0.2010
     40 H1'        -0.4769   -2.1002   -1.8093 H         1 GTP        -0.0393
     41 H8         -2.9610   -2.1316    1.0079 H         1 GTP         0.0000
     42 HN1        -4.5320    1.7923   -3.8726 H         1 GTP         0.0865
     43 HN21       -1.3128    1.1277   -5.0171 H         1 GTP         0.2048
     44 HN22       -2.8342    1.9586   -5.2572 H         1 GTP         0.2048
     45 H45        -5.0195   -0.8034    0.3729 H         1 GTP         0.2048
@<TRIPOS>BOND
     1    1    2 2
     2    1    3 1
     3    1    4 1
     4    1    5 1
     5    5    6 1
     6    6    7 2
     7    6    8 1
     8    6    9 1
     9    9   10 1
    10   10   11 2
    11   10   12 1
    12   10   13 1
    13   13   14 1
    14   14   15 1
    15   14   33 1
    16   14   34 1
    17   15   16 1
    18   15   17 1
    19   15   35 1
    20   16   21 1
    21   17   18 1
    22   17   19 1
    23   17   36 1
    24   18   37 1
    25   19   20 1
    26   19   21 1
    27   19   38 1
    28   20   39 1
    29   21   22 1
    30   21   40 1
    31   22   23 ar
    32   22   32 ar
    33   23   24 ar
    34   23   41 1
    35   24   25 ar
    36   24   45 1
    37   25   26 ar
    38   25   32 ar
    39   26   27 2
    40   26   28 ar
    41   28   29 ar
    42   28   42 1
    43   29   30 1
    44   29   31 ar
    45   30   43 1
    46   30   44 1
    47   31   32 ar
@<TRIPOS>SUBSTRUCTURE
     1 GTP         1 GROUP 0 A     ****
@<TRIPOS>MOLECULE
[[[5-(2-amino-6-oxo-7,8-dihydro-1~{H}-purin-8-ylium-9-yl)-3,4-dihydroxy-tetrahydrofuran-2-yl]methoxy-oxido-phosphoryl]oxy-oxido-phosphoryl] phosphate
   45    47     1     0     0
SMALL
USER_CHARGES

@<TRIPOS>ATOM
      1 PG         -2.2786   -7.5121    6.2707 P.3       1 GTP        -1.1921
      2 O1G        -1.0755   -6.9598    5.5135 O.co2     1 GTP         0.3195
      3 O2G        -2.3432   -7.0979    7.7369 O.co2     1 GTP         0.3195
      4 O3G        -2.5461   -8.9935    6.0262 O.co2     1 GTP         0.3195
      5 O3B        -3.5728   -6.7590    5.5795 O.3       1 GTP         0.4672
      6 PB         -4.0936   -6.7747    4.0310 P.3       1 GTP        -1.1062
      7 O1B        -4.2795   -8.2108    3.5944 O.co2     1 GTP         0.3195
      8 O2B        -5.1933   -5.7493    3.8682 O.co2     1 GTP         0.3195
      9 O3A        -2.7706   -6.1521    3.3047 O.3       1 GTP         0.4672
     10 PA         -2.4913   -5.8423    1.7249 P.3       1 GTP        -1.1062
     11 O1A        -2.4503   -7.1598    0.9819 O.co2     1 GTP         0.3195
     12 O2A        -3.3985   -4.7184    1.2733 O.co2     1 GTP         0.3195
     13 O5'        -0.9724   -5.2440    1.8220 O.3       1 GTP         0.1618
     14 C5'        -0.7840   -3.8935    2.2172 C.3       1 GTP         0.1504
     15 C4'        -0.0724   -3.1466    1.1027 C.3       1 GTP         0.1111
     16 O4'        -0.8674   -3.1929   -0.0945 O.3       1 GTP        -0.1436
     17 C3'         0.1338   -1.6715    1.4027 C.3       1 GTP         0.1111
     18 O3'         1.2893   -1.4445    2.1808 O.3       1 GTP        -0.2728
     19 C2'         0.2158   -1.0724    0.0128 C.3       1 GTP         0.1111
     20 O2'         1.5141   -1.2448   -0.5513 O.3       1 GTP        -0.2728
     21 C1'        -0.7897   -1.9176   -0.7583 C.3       1 GTP         0.2693
     22 N9         -2.1040   -1.3333   -0.7704 N.pl3     1 GTP        -0.3222
     23 C8         -3.0597   -1.5109    0.1345 C.ar      1 GTP         0.1640
     24 N7         -4.1618   -0.8291   -0.1607 N.pl3     1 GTP        -0.3688
     25 C5         -3.8764   -0.1805   -1.3310 C.ar      1 GTP         0.0648
     26 C6         -4.7187    0.7111   -2.1152 C.ar      1 GTP         0.3597
     27 O6         -5.8617    1.0043   -1.7939 O.2       1 GTP        -0.2755
     28 N1         -4.0405    1.1608   -3.2468 N.pl3     1 GTP        -0.1604
     29 C2         -2.7239    0.8013   -3.5822 C.ar      1 GTP         0.4468
     30 N2         -2.2399    1.3534   -4.7394 N.pl3     1 GTP        -0.5618
     31 N3         -2.0053   -0.0071   -2.8402 N.2       1 GTP        -0.4283
     32 C4         -2.6290   -0.4727   -1.7210 C.ar      1 GTP         0.2226
     33 H5'        -1.7618   -3.4448    2.4164 H         1 GTP        -0.0393
     34 H5''       -0.1874   -3.8744    3.1341 H         1 GTP        -0.0393
     35 H4'         0.8874   -3.6466    0.8805 H         1 GTP        -0.0393
     36 H3'        -0.7376   -1.2333    1.9867 H         1 GTP        -0.0393
     37 HO3'        1.3408   -0.4870    2.3219 H         1 GTP         0.2010
     38 H2'        -0.0384   -0.0310    0.0096 H         1 GTP        -0.0393
     39 HO2'        2.1463   -0.7958    0.0370 H         1 GTP         0.2010
     40 H1'        -0.4769   -2.1002   -1.8093 H         1 GTP        -0.0393
     41 H8         -2.9610   -2.1316    1.0079 H         1 GTP         0.0000
     42 HN1        -4.5320    1.7923   -3.8726 H         1 GTP         0.0865
     43 HN21       -1.3128    1.1277   -5.0171 H         1 GTP         0.2048
     44 HN22       -2.8342    1.9586   -5.2572 H         1 GTP         0.2048
     45 H45        -5.0195   -0.8034    0.3729 H         1 GTP         0.2048
@<TRIPOS>BOND
     1    1    2 2
     2    1    3 1
     3    1    4 1
     4    1    5 1
     5    5    6 1
     6    6    7 2
     7    6    8 1
     8    6    9 1
     9    9   10 1
    10   10   11 2
    11   10   12 1
    12   10   13 1
    13   13   14 1
    14   14   15 1
    15   14   33 1
    16   14   34 1
    17   15   16 1
    18   15   17 1
    19   15   35 1
    20   16   21 1
    21   17   18 1
    22   17   19 1
    23   17   36 1
    24   18   37 1
    25   19   20 1
    26   19   21 1
    27   19   38 1
    28   20   39 1
    29   21   22 1
    30   21   40 1
    31   22   23 ar
    32   22   32 ar
    33   23   24 ar
    34   23   41 1
    35   24   25 ar
    36   24   45 1
    37   25   26 ar
    38   25   32 ar
    39   26   27 2
    40   26   28 ar
    41   28   29 ar
    42   28   42 1
    43   29   30 1
    44   29   31 ar
    45   30   43 1
    46   30   44 1
    47   31   32 ar
@<TRIPOS>SUBSTRUCTURE
     1 GTP         1 GROUP 0 A     ****
@<TRIPOS>MOLECULE
[[[5-(2-amino-6-oxo-7,8-dihydro-1~{H}-purin-8-ylium-9-yl)-3,4-dihydroxy-tetrahydrofuran-2-yl]methoxy-oxido-phosphoryl]oxy-oxido-phosphoryl] phosphate
   45    47     1     0     0
SMALL
USER_CHARGES

@<TRIPOS>ATOM
      1 PG          5.8416   -4.4863   -6.6063 P.3       1 GTP        -1.1921
      2 O1G         7.2607   -3.9446   -6.4696 O.co2     1 GTP         0.3195
      3 O2G         5.6444   -5.8854   -6.0325 O.co2     1 GTP         0.3195
      4 O3G         5.2237   -4.2825   -7.9857 O.co2     1 GTP         0.3195
      5 O3B         4.9408   -3.5148   -5.6241 O.3       1 GTP         0.4672
      6 PB          4.7072   -1.8986   -5.6730 P.3       1 GTP        -1.1062
      7 O1B         6.0211   -1.2077   -5.3834 O.co2     1 GTP         0.3195
      8 O2B         3.8841   -1.5541   -6.8941 O.co2     1 GTP         0.3195
      9 O3A         3.7140   -1.7397   -4.3870 O.3       1 GTP         0.4672
     10 PA          3.9665   -2.1124   -2.8163 P.3       1 GTP        -1.1062
     11 O1A         4.1044   -3.6147   -2.7001 O.co2     1 GTP         0.3195
     12 O2A         5.0202   -1.1848   -2.2511 O.co2     1 GTP         0.3195
     13 O5'         2.5245   -1.6648   -2.1878 O.3       1 GTP         0.1618
     14 C5'         2.2816   -0.2918   -1.9206 C.3       1 GTP         0.1504
     15 C4'         2.7248    0.0226   -0.4980 C.3       1 GTP         0.1111
     16 O4'         2.4697    1.4219   -0.2462 O.3       1 GTP        -0.1436
     17 C3'         1.9404   -0.7419    0.5596 C.3       1 GTP         0.1111
     18 O3'         2.7418   -0.8086    1.7389 O.3       1 GTP        -0.2728
     19 C2'         0.7477    0.1630    0.7858 C.3       1 GTP         0.1111
     20 O2'         0.1373   -0.0577    2.0407 O.3       1 GTP        -0.2728
     21 C1'         1.3733    1.5427    0.6747 C.3       1 GTP         0.2693
     22 N9          0.4520    2.5240    0.1767 N.pl3     1 GTP        -0.3222
     23 C8          0.5671    3.2221   -0.9473 C.ar      1 GTP         0.1640
     24 N7         -0.4560    4.0508   -1.1290 N.pl3     1 GTP        -0.3688
     25 C5         -1.2671    3.8585   -0.0441 C.ar      1 GTP         0.0648
     26 C6         -2.5318    4.5014    0.2817 C.ar      1 GTP         0.3597
     27 O6         -3.0527    5.3493   -0.4293 O.2       1 GTP        -0.2755
     28 N1         -3.0357    4.0149    1.4868 N.pl3     1 GTP        -0.1604
     29 C2         -2.4069    3.0373    2.2768 C.ar      1 GTP         0.4468
     30 N2         -3.0679    2.6964    3.4278 N.pl3     1 GTP        -0.5618
     31 N3         -1.2653    2.4872    1.9379 N.2       1 GTP        -0.4283
     32 C4         -0.7342    2.9334    0.7643 C.ar      1 GTP         0.2226
     33 H5'         2.8432    0.3119   -2.6398 H         1 GTP        -0.0393
     34 H5''        1.2128   -0.0927   -2.0428 H         1 GTP        -0.0393
     35 H4'         3.8044   -0.1397   -0.4040 H         1 GTP        -0.0393
     36 H3'         1.6764   -1.7639    0.2728 H         1 GTP        -0.0393
     37 HO3'        3.5554   -1.2733    1.4914 H         1 GTP         0.2010
     38 H2'        -0.0011    0.0027    0.0003 H         1 GTP        -0.0393
     39 HO2'       -0.1563   -0.9855    2.0596 H         1 GTP         0.2010
     40 H1'         1.7826    1.9024    1.6451 H         1 GTP        -0.0393
     41 H8          1.3888    3.1325   -1.6361 H         1 GTP         0.0000
     42 HN1        -3.9188    4.3932    1.8170 H         1 GTP         0.0865
     43 HN21       -2.6609    2.0087    4.0186 H         1 GTP         0.2048
     44 HN22       -3.9293    3.1496    3.6283 H         1 GTP         0.2048
     45 H45        -0.5938    4.6820   -1.9060 H         1 GTP         0.2048
@<TRIPOS>BOND
     1    1    2 2
     2    1    3 1
     3    1    4 1
     4    1    5 1
     5    5    6 1
     6    6    7 2
     7    6    8 1
     8    6    9 1
     9    9   10 1
    10   10   11 2
    11   10   12 1
    12   10   13 1
    13   13   14 1
    14   14   15 1
    15   14   33 1
    16   14   34 1
    17   15   16 1
    18   15   17 1
    19   15   35 1
    20   16   21 1
    21   17   18 1
    22   17   19 1
    23   17   36 1
    24   18   37 1
    25   19   20 1
    26   19   21 1
    27   19   38 1
    28   20   39 1
    29   21   22 1
    30   21   40 1
    31   22   23 ar
    32   22   32 ar
    33   23   24 ar
    34   23   41 1
    35   24   25 ar
    36   24   45 1
    37   25   26 ar
    38   25   32 ar
    39   26   27 2
    40   26   28 ar
    41   28   29 ar
    42   28   42 1
    43   29   30 1
    44   29   31 ar
    45   30   43 1
    46   30   44 1
    47   31   32 ar
@<TRIPOS>SUBSTRUCTURE
     1 GTP         1 GROUP 0 A     ****
@<TRIPOS>MOLECULE
[[[5-(2-amino-6-oxo-7,8-dihydro-1~{H}-purin-8-ylium-9-yl)-3,4-dihydroxy-tetrahydrofuran-2-yl]methoxy-oxido-phosphoryl]oxy-oxido-phosphoryl] phosphate
   45    47     1     0     0
SMALL
USER_CHARGES

@<TRIPOS>ATOM
      1 PG         -1.8797   -7.1546    6.6807 P.3       1 GTP        -1.1921
      2 O1G        -1.6952   -8.6685    6.6838 O.co2     1 GTP         0.3195
      3 O2G        -2.5048   -6.5946    7.9539 O.co2     1 GTP         0.3195
      4 O3G        -2.4785   -6.5995    5.3926 O.co2     1 GTP         0.3195
      5 O3B        -0.3418   -6.5591    6.6885 O.3       1 GTP         0.4672
      6 PB          0.8712   -6.7683    5.6143 P.3       1 GTP        -1.1062
      7 O1B         2.0355   -5.8912    6.0176 O.co2     1 GTP         0.3195
      8 O2B         1.0487   -8.2468    5.3497 O.co2     1 GTP         0.3195
      9 O3A         0.1543   -6.1445    4.2867 O.3       1 GTP         0.4672
     10 PA          0.7268   -5.9846    2.7648 P.3       1 GTP        -1.1062
     11 O1A         1.8665   -4.9894    2.7874 O.co2     1 GTP         0.3195
     12 O2A         0.9011   -7.3586    2.1549 O.co2     1 GTP         0.3195
     13 O5'        -0.5687   -5.2869    2.0510 O.3       1 GTP         0.1618
     14 C5'        -0.7840   -3.8935    2.2172 C.3       1 GTP         0.1504
     15 C4'        -0.0724   -3.1466    1.1027 C.3       1 GTP         0.1111
     16 O4'        -0.8674   -3.1929   -0.0945 O.3       1 GTP        -0.1436
     17 C3'         0.1338   -1.6715    1.4027 C.3       1 GTP         0.1111
     18 O3'         1.2893   -1.4445    2.1808 O.3       1 GTP        -0.2728
     19 C2'         0.2158   -1.0724    0.0128 C.3       1 GTP         0.1111
     20 O2'         1.5141   -1.2448   -0.5513 O.3       1 GTP        -0.2728
     21 C1'        -0.7897   -1.9176   -0.7583 C.3       1 GTP         0.2693
     22 N9         -2.1040   -1.3333   -0.7704 N.pl3     1 GTP        -0.3222
     23 C8         -3.0597   -1.5109    0.1345 C.ar      1 GTP         0.1640
     24 N7         -4.1618   -0.8291   -0.1607 N.pl3     1 GTP        -0.3688
     25 C5         -3.8764   -0.1805   -1.3310 C.ar      1 GTP         0.0648
     26 C6         -4.7187    0.7111   -2.1152 C.ar      1 GTP         0.3597
     27 O6         -5.8617    1.0043   -1.7939 O.2       1 GTP        -0.2755
     28 N1         -4.0405    1.1608   -3.2468 N.pl3     1 GTP        -0.1604
     29 C2         -2.7239    0.8013   -3.5822 C.ar      1 GTP         0.4468
     30 N2         -2.2399    1.3534   -4.7394 N.pl3     1 GTP        -0.5618
     31 N3         -2.0053   -0.0071   -2.8402 N.2       1 GTP        -0.4283
     32 C4         -2.6290   -0.4727   -1.7210 C.ar      1 GTP         0.2226
     33 H5'        -1.8598   -3.6968    2.1850 H         1 GTP        -0.0393
     34 H5''       -0.3933   -3.5903    3.1931 H         1 GTP        -0.0393
     35 H4'         0.8874   -3.6466    0.8805 H         1 GTP        -0.0393
     36 H3'        -0.7376   -1.2333    1.9867 H         1 GTP        -0.0393
     37 HO3'        1.1626   -1.9325    3.0084 H         1 GTP         0.2010
     38 H2'        -0.0384   -0.0310    0.0096 H         1 GTP        -0.0393
     39 HO2'        1.4998   -0.8412   -1.4369 H         1 GTP         0.2010
     40 H1'        -0.4769   -2.1002   -1.8093 H         1 GTP        -0.0393
     41 H8         -2.9610   -2.1316    1.0079 H         1 GTP         0.0000
     42 HN1        -4.5320    1.7923   -3.8726 H         1 GTP         0.0865
     43 HN21       -1.3128    1.1277   -5.0171 H         1 GTP         0.2048
     44 HN22       -2.8342    1.9586   -5.2572 H         1 GTP         0.2048
     45 H45        -5.0195   -0.8034    0.3729 H         1 GTP         0.2048
@<TRIPOS>BOND
     1    1    2 2
     2    1    3 1
     3    1    4 1
     4    1    5 1
     5    5    6 1
     6    6    7 2
     7    6    8 1
     8    6    9 1
     9    9   10 1
    10   10   11 2
    11   10   12 1
    12   10   13 1
    13   13   14 1
    14   14   15 1
    15   14   33 1
    16   14   34 1
    17   15   16 1
    18   15   17 1
    19   15   35 1
    20   16   21 1
    21   17   18 1
    22   17   19 1
    23   17   36 1
    24   18   37 1
    25   19   20 1
    26   19   21 1
    27   19   38 1
    28   20   39 1
    29   21   22 1
    30   21   40 1
    31   22   23 ar
    32   22   32 ar
    33   23   24 ar
    34   23   41 1
    35   24   25 ar
    36   24   45 1
    37   25   26 ar
    38   25   32 ar
    39   26   27 2
    40   26   28 ar
    41   28   29 ar
    42   28   42 1
    43   29   30 1
    44   29   31 ar
    45   30   43 1
    46   30   44 1
    47   31   32 ar
@<TRIPOS>SUBSTRUCTURE
     1 GTP         1 GROUP 0 A     ****
@<TRIPOS>MOLECULE
[[[5-(2-amino-6-oxo-7,8-dihydro-1~{H}-purin-8-ylium-9-yl)-3,4-dihydroxy-tetrahydrofuran-2-yl]methoxy-oxido-phosphoryl]oxy-oxido-phosphoryl] phosphate
   45    47     1     0     0
SMALL
USER_CHARGES

@<TRIPOS>ATOM
      1 PG         -0.4030   -0.7056   -7.1322 P.3       1 GTP        -1.1921
      2 O1G         0.3964   -1.9526   -6.7692 O.co2     1 GTP         0.3195
      3 O2G        -1.9137   -0.9126   -7.1592 O.co2     1 GTP         0.3195
      4 O3G         0.1450    0.0627   -8.3303 O.co2     1 GTP         0.3195
      5 O3B        -0.1568    0.3175   -5.8624 O.3       1 GTP         0.4672
      6 PB          1.2312    0.9476   -5.2748 P.3       1 GTP        -1.1062
      7 O1B         1.9659    1.6411   -6.4004 O.co2     1 GTP         0.3195
      8 O2B         0.9414    1.6505   -3.9675 O.co2     1 GTP         0.3195
      9 O3A         2.0053   -0.4380   -4.8923 O.3       1 GTP         0.4672
     10 PA          3.4850   -0.6647   -4.2376 P.3       1 GTP        -1.1062
     11 O1A         3.6548   -2.1395   -3.9449 O.co2     1 GTP         0.3195
     12 O2A         4.5088    0.0928   -5.0549 O.co2     1 GTP         0.3195
     13 O5'         3.2903    0.1346   -2.8241 O.3       1 GTP         0.1618
     14 C5'         2.2816   -0.2918   -1.9206 C.3       1 GTP         0.1504
     15 C4'         2.7248    0.0226   -0.4980 C.3       1 GTP         0.1111
     16 O4'         2.4697    1.4219   -0.2462 O.3       1 GTP        -0.1436
     17 C3'         1.9404   -0.7419    0.5596 C.3       1 GTP         0.1111
     18 O3'         2.7418   -0.8086    1.7389 O.3       1 GTP        -0.2728
     19 C2'         0.7477    0.1630    0.7858 C.3       1 GTP         0.1111
     20 O2'         0.1373   -0.0577    2.0407 O.3       1 GTP        -0.2728
     21 C1'         1.3733    1.5427    0.6747 C.3       1 GTP         0.2693
     22 N9          0.4520    2.5240    0.1767 N.pl3     1 GTP        -0.3222
     23 C8          0.5671    3.2221   -0.9473 C.ar      1 GTP         0.1640
     24 N7         -0.4560    4.0508   -1.1290 N.pl3     1 GTP        -0.3688
     25 C5         -1.2671    3.8585   -0.0441 C.ar      1 GTP         0.0648
     26 C6         -2.5318    4.5014    0.2817 C.ar      1 GTP         0.3597
     27 O6         -3.0527    5.3493   -0.4293 O.2       1 GTP        -0.2755
     28 N1         -3.0357    4.0149    1.4868 N.pl3     1 GTP        -0.1604
     29 C2         -2.4069    3.0373    2.2768 C.ar      1 GTP         0.4468
     30 N2         -3.0679    2.6964    3.4278 N.pl3     1 GTP        -0.5618
     31 N3         -1.2653    2.4872    1.9379 N.2       1 GTP        -0.4283
     32 C4         -0.7342    2.9334    0.7643 C.ar      1 GTP         0.2226
     33 H5'         1.3514    0.2330   -2.1577 H         1 GTP        -0.0393
     34 H5''        2.1280   -1.3678   -2.0460 H         1 GTP        -0.0393
     35 H4'         3.8044   -0.1397   -0.4040 H         1 GTP        -0.0393
     36 H3'         1.6764   -1.7639    0.2728 H         1 GTP        -0.0393
     37 HO3'        3.5554   -1.2733    1.4914 H         1 GTP         0.2010
     38 H2'        -0.0011    0.0027    0.0003 H         1 GTP        -0.0393
     39 HO2'        0.8082    0.1199    2.7232 H         1 GTP         0.2010
     40 H1'         1.7826    1.9024    1.6451 H         1 GTP        -0.0393
     41 H8          1.3888    3.1325   -1.6361 H         1 GTP         0.0000
     42 HN1        -3.9188    4.3932    1.8170 H         1 GTP         0.0865
     43 HN21       -2.6609    2.0087    4.0186 H         1 GTP         0.2048
     44 HN22       -3.9293    3.1496    3.6283 H         1 GTP         0.2048
     45 H45        -0.5938    4.6820   -1.9060 H         1 GTP         0.2048
@<TRIPOS>BOND
     1    1    2 2
     2    1    3 1
     3    1    4 1
     4    1    5 1
     5    5    6 1
     6    6    7 2
     7    6    8 1
     8    6    9 1
     9    9   10 1
    10   10   11 2
    11   10   12 1
    12   10   13 1
    13   13   14 1
    14   14   15 1
    15   14   33 1
    16   14   34 1
    17   15   16 1
    18   15   17 1
    19   15   35 1
    20   16   21 1
    21   17   18 1
    22   17   19 1
    23   17   36 1
    24   18   37 1
    25   19   20 1
    26   19   21 1
    27   19   38 1
    28   20   39 1
    29   21   22 1
    30   21   40 1
    31   22   23 ar
    32   22   32 ar
    33   23   24 ar
    34   23   41 1
    35   24   25 ar
    36   24   45 1
    37   25   26 ar
    38   25   32 ar
    39   26   27 2
    40   26   28 ar
    41   28   29 ar
    42   28   42 1
    43   29   30 1
    44   29   31 ar
    45   30   43 1
    46   30   44 1
    47   31   32 ar
@<TRIPOS>SUBSTRUCTURE
     1 GTP         1 GROUP 0 A     ****
@<TRIPOS>MOLECULE
[[[5-(2-amino-6-oxo-7,8-dihydro-1~{H}-purin-8-ylium-9-yl)-3,4-dihydroxy-tetrahydrofuran-2-yl]methoxy-oxido-phosphoryl]oxy-oxido-phosphoryl] phosphate
   45    47     1     0     0
SMALL
USER_CHARGES

@<TRIPOS>ATOM
      1 PG          2.2913   -9.4806    2.1803 P.3       1 GTP        -1.1921
      2 O1G         1.1861  -10.4985    1.9193 O.co2     1 GTP         0.3195
      3 O2G         3.0491   -9.0408    0.9321 O.co2     1 GTP         0.3195
      4 O3G         3.1854   -9.8181    3.3690 O.co2     1 GTP         0.3195
      5 O3B         1.4872   -8.1248    2.6650 O.3       1 GTP         0.4672
      6 PB          0.4883   -7.8941    3.9370 P.3       1 GTP        -1.1062
      7 O1B        -0.7569   -8.7289    3.7360 O.co2     1 GTP         0.3195
      8 O2B         1.2913   -7.9662    5.2166 O.co2     1 GTP         0.3195
      9 O3A         0.1301   -6.3183    3.7049 O.3       1 GTP         0.4672
     10 PA          1.1155   -5.0156    3.6623 P.3       1 GTP        -1.1062
     11 O1A         1.7073   -4.8215    5.0413 O.co2     1 GTP         0.3195
     12 O2A         2.0000   -5.1043    2.4376 O.co2     1 GTP         0.3195
     13 O5'         0.0118   -3.8395    3.3916 O.3       1 GTP         0.1618
     14 C5'        -0.7840   -3.8935    2.2172 C.3       1 GTP         0.1504
     15 C4'        -0.0724   -3.1466    1.1027 C.3       1 GTP         0.1111
     16 O4'        -0.8674   -3.1929   -0.0945 O.3       1 GTP        -0.1436
     17 C3'         0.1338   -1.6715    1.4027 C.3       1 GTP         0.1111
     18 O3'         1.2893   -1.4445    2.1808 O.3       1 GTP        -0.2728
     19 C2'         0.2158   -1.0724    0.0128 C.3       1 GTP         0.1111
     20 O2'         1.5141   -1.2448   -0.5513 O.3       1 GTP        -0.2728
     21 C1'        -0.7897   -1.9176   -0.7583 C.3       1 GTP         0.2693
     22 N9         -2.1040   -1.3333   -0.7704 N.pl3     1 GTP        -0.3222
     23 C8         -3.0597   -1.5109    0.1345 C.ar      1 GTP         0.1640
     24 N7         -4.1618   -0.8291   -0.1607 N.pl3     1 GTP        -0.3688
     25 C5         -3.8764   -0.1805   -1.3310 C.ar      1 GTP         0.0648
     26 C6         -4.7187    0.7111   -2.1152 C.ar      1 GTP         0.3597
     27 O6         -5.8617    1.0043   -1.7939 O.2       1 GTP        -0.2755
     28 N1         -4.0405    1.1608   -3.2468 N.pl3     1 GTP        -0.1604
     29 C2         -2.7239    0.8013   -3.5822 C.ar      1 GTP         0.4468
     30 N2         -2.2399    1.3534   -4.7394 N.pl3     1 GTP        -0.5618
     31 N3         -2.0053   -0.0071   -2.8402 N.2       1 GTP        -0.4283
     32 C4         -2.6290   -0.4727   -1.7210 C.ar      1 GTP         0.2226
     33 H5'        -0.9348   -4.9415    1.9415 H         1 GTP        -0.0393
     34 H5''       -1.7548   -3.4350    2.4278 H         1 GTP        -0.0393
     35 H4'         0.8874   -3.6466    0.8805 H         1 GTP        -0.0393
     36 H3'        -0.7376   -1.2333    1.9867 H         1 GTP        -0.0393
     37 HO3'        1.1626   -1.9325    3.0084 H         1 GTP         0.2010
     38 H2'        -0.0384   -0.0310    0.0096 H         1 GTP        -0.0393
     39 HO2'        1.4998   -0.8412   -1.4369 H         1 GTP         0.2010
     40 H1'        -0.4769   -2.1002   -1.8093 H         1 GTP        -0.0393
     41 H8         -2.9610   -2.1316    1.0079 H         1 GTP         0.0000
     42 HN1        -4.5320    1.7923   -3.8726 H         1 GTP         0.0865
     43 HN21       -1.3128    1.1277   -5.0171 H         1 GTP         0.2048
     44 HN22       -2.8342    1.9586   -5.2572 H         1 GTP         0.2048
     45 H45        -5.0195   -0.8034    0.3729 H         1 GTP         0.2048
@<TRIPOS>BOND
     1    1    2 2
     2    1    3 1
     3    1    4 1
     4    1    5 1
     5    5    6 1
     6    6    7 2
     7    6    8 1
     8    6    9 1
     9    9   10 1
    10   10   11 2
    11   10   12 1
    12   10   13 1
    13   13   14 1
    14   14   15 1
    15   14   33 1
    16   14   34 1
    17   15   16 1
    18   15   17 1
    19   15   35 1
    20   16   21 1
    21   17   18 1
    22   17   19 1
    23   17   36 1
    24   18   37 1
    25   19   20 1
    26   19   21 1
    27   19   38 1
    28   20   39 1
    29   21   22 1
    30   21   40 1
    31   22   23 ar
    32   22   32 ar
    33   23   24 ar
    34   23   41 1
    35   24   25 ar
    36   24   45 1
    37   25   26 ar
    38   25   32 ar
    39   26   27 2
    40   26   28 ar
    41   28   29 ar
    42   28   42 1
    43   29   30 1
    44   29   31 ar
    45   30   43 1
    46   30   44 1
    47   31   32 ar
@<TRIPOS>SUBSTRUCTURE
     1 GTP         1 GROUP 0 A     ****
@<TRIPOS>MOLECULE
[[[5-(2-amino-6-oxo-7,8-dihydro-1~{H}-purin-8-ylium-9-yl)-3,4-dihydroxy-tetrahydrofuran-2-yl]methoxy-oxido-phosphoryl]oxy-oxido-phosphoryl] phosphate
   45    47     1     0     0
SMALL
USER_CHARGES

@<TRIPOS>ATOM
      1 PG          4.8890   -4.7247   -1.1010 P.3       1 GTP        -1.1921
      2 O1G         3.6154   -3.9806   -0.7137 O.co2     1 GTP         0.3195
      3 O2G         4.6851   -5.8218   -2.1404 O.co2     1 GTP         0.3195
      4 O3G         5.7576   -5.1375    0.0827 O.co2     1 GTP         0.3195
      5 O3B         5.7990   -3.5917   -1.8808 O.3       1 GTP         0.4672
      6 PB          6.3763   -2.1593   -1.3477 P.3       1 GTP        -1.1062
      7 O1B         6.4867   -2.2095    0.1599 O.co2     1 GTP         0.3195
      8 O2B         7.5445   -1.7433   -2.2134 O.co2     1 GTP         0.3195
      9 O3A         5.1243   -1.2003   -1.7699 O.3       1 GTP         0.4672
     10 PA          4.4792   -0.9077   -3.2423 P.3       1 GTP        -1.1062
     11 O1A         5.5058   -0.1691   -4.0730 O.co2     1 GTP         0.3195
     12 O2A         3.8219   -2.1709   -3.7543 O.co2     1 GTP         0.3195
     13 O5'         3.2903    0.1346   -2.8241 O.3       1 GTP         0.1618
     14 C5'         2.2816   -0.2918   -1.9206 C.3       1 GTP         0.1504
     15 C4'         2.7248    0.0226   -0.4980 C.3       1 GTP         0.1111
     16 O4'         2.4697    1.4219   -0.2462 O.3       1 GTP        -0.1436
     17 C3'         1.9404   -0.7419    0.5596 C.3       1 GTP         0.1111
     18 O3'         2.7418   -0.8086    1.7389 O.3       1 GTP        -0.2728
     19 C2'         0.7477    0.1630    0.7858 C.3       1 GTP         0.1111
     20 O2'         0.1373   -0.0577    2.0407 O.3       1 GTP        -0.2728
     21 C1'         1.3733    1.5427    0.6747 C.3       1 GTP         0.2693
     22 N9          0.4520    2.5240    0.1767 N.pl3     1 GTP        -0.3222
     23 C8          0.2203    2.8205   -1.0970 C.ar      1 GTP         0.1640
     24 N7         -0.6947    3.7752   -1.2304 N.pl3     1 GTP        -0.3688
     25 C5         -1.0607    4.0987    0.0476 C.ar      1 GTP         0.0648
     26 C6         -2.0310    5.0839    0.5029 C.ar      1 GTP         0.3597
     27 O6         -2.6779    5.7867   -0.2609 O.2       1 GTP        -0.2755
     28 N1         -2.1030    5.0975    1.8948 N.pl3     1 GTP        -0.1604
     29 C2         -1.3422    4.2721    2.7403 C.ar      1 GTP         0.4468
     30 N2         -1.5624    4.4419    4.0823 N.pl3     1 GTP        -0.5618
     31 N3         -0.4796    3.3981    2.2792 N.2       1 GTP        -0.4283
     32 C4         -0.3754    3.3496    0.9208 C.ar      1 GTP         0.2226
     33 H5'         1.3514    0.2330   -2.1577 H         1 GTP        -0.0393
     34 H5''        2.1280   -1.3678   -2.0460 H         1 GTP        -0.0393
     35 H4'         3.8044   -0.1397   -0.4040 H         1 GTP        -0.0393
     36 H3'         1.6764   -1.7639    0.2728 H         1 GTP        -0.0393
     37 HO3'        2.2232   -1.2979    2.3953 H         1 GTP         0.2010
     38 H2'        -0.0011    0.0027    0.0003 H         1 GTP        -0.0393
     39 HO2'       -0.6141    0.5574    2.1082 H         1 GTP         0.2010
     40 H1'         1.7826    1.9024    1.6451 H         1 GTP        -0.0393
     41 H8          0.7110    2.3472   -1.9295 H         1 GTP         0.0000
     42 HN1        -2.7504    5.7495    2.3282 H         1 GTP         0.0865
     43 HN21       -1.0467    3.8796    4.7190 H         1 GTP         0.2048
     44 HN22       -2.2294    5.1209    4.3680 H         1 GTP         0.2048
     45 H45        -1.0382    4.1687   -2.0954 H         1 GTP         0.2048
@<TRIPOS>BOND
     1    1    2 2
     2    1    3 1
     3    1    4 1
     4    1    5 1
     5    5    6 1
     6    6    7 2
     7    6    8 1
     8    6    9 1
     9    9   10 1
    10   10   11 2
    11   10   12 1
    12   10   13 1
    13   13   14 1
    14   14   15 1
    15   14   33 1
    16   14   34 1
    17   15   16 1
    18   15   17 1
    19   15   35 1
    20   16   21 1
    21   17   18 1
    22   17   19 1
    23   17   36 1
    24   18   37 1
    25   19   20 1
    26   19   21 1
    27   19   38 1
    28   20   39 1
    29   21   22 1
    30   21   40 1
    31   22   23 ar
    32   22   32 ar
    33   23   24 ar
    34   23   41 1
    35   24   25 ar
    36   24   45 1
    37   25   26 ar
    38   25   32 ar
    39   26   27 2
    40   26   28 ar
    41   28   29 ar
    42   28   42 1
    43   29   30 1
    44   29   31 ar
    45   30   43 1
    46   30   44 1
    47   31   32 ar
@<TRIPOS>SUBSTRUCTURE
     1 GTP         1 GROUP 0 A     ****
@<TRIPOS>MOLECULE
[[[5-(2-amino-6-oxo-7,8-dihydro-1~{H}-purin-8-ylium-9-yl)-3,4-dihydroxy-tetrahydrofuran-2-yl]methoxy-oxido-phosphoryl]oxy-oxido-phosphoryl] phosphate
   45    47     1     0     0
SMALL
USER_CHARGES

@<TRIPOS>ATOM
      1 PG          5.8552   -5.6018    4.5029 P.3       1 GTP        -1.1921
      2 O1G         6.8628   -4.7539    3.7338 O.co2     1 GTP         0.3195
      3 O2G         5.7912   -5.3021    5.9968 O.co2     1 GTP         0.3195
      4 O3G         5.8995   -7.0882    4.1640 O.co2     1 GTP         0.3195
      5 O3B         4.3896   -5.1105    3.9279 O.3       1 GTP         0.4672
      6 PB          3.7921   -5.1457    2.4078 P.3       1 GTP        -1.1062
      7 O1B         4.6020   -4.2045    1.5443 O.co2     1 GTP         0.3195
      8 O2B         3.5532   -6.5832    2.0030 O.co2     1 GTP         0.3195
      9 O3A         2.3216   -4.4952    2.6906 O.3       1 GTP         0.4672
     10 PA          1.1155   -5.0156    3.6623 P.3       1 GTP        -1.1062
     11 O1A         0.5857   -6.3193    3.1062 O.co2     1 GTP         0.3195
     12 O2A         1.5593   -4.9041    5.1047 O.co2     1 GTP         0.3195
     13 O5'         0.0118   -3.8395    3.3916 O.3       1 GTP         0.1618
     14 C5'        -0.7840   -3.8935    2.2172 C.3       1 GTP         0.1504
     15 C4'        -0.0724   -3.1466    1.1027 C.3       1 GTP         0.1111
     16 O4'        -0.8674   -3.1929   -0.0945 O.3       1 GTP        -0.1436
     17 C3'         0.1338   -1.6715    1.4027 C.3       1 GTP         0.1111
     18 O3'         1.2893   -1.4445    2.1808 O.3       1 GTP        -0.2728
     19 C2'         0.2158   -1.0724    0.0128 C.3       1 GTP         0.1111
     20 O2'         1.5141   -1.2448   -0.5513 O.3       1 GTP        -0.2728
     21 C1'        -0.7897   -1.9176   -0.7583 C.3       1 GTP         0.2693
     22 N9         -2.1040   -1.3333   -0.7704 N.pl3     1 GTP        -0.3222
     23 C8         -3.0597   -1.5109    0.1345 C.ar      1 GTP         0.1640
     24 N7         -4.1618   -0.8291   -0.1607 N.pl3     1 GTP        -0.3688
     25 C5         -3.8764   -0.1805   -1.3310 C.ar      1 GTP         0.0648
     26 C6         -4.7187    0.7111   -2.1152 C.ar      1 GTP         0.3597
     27 O6         -5.8617    1.0043   -1.7939 O.2       1 GTP        -0.2755
     28 N1         -4.0405    1.1608   -3.2468 N.pl3     1 GTP        -0.1604
     29 C2         -2.7239    0.8013   -3.5822 C.ar      1 GTP         0.4468
     30 N2         -2.2399    1.3534   -4.7394 N.pl3     1 GTP        -0.5618
     31 N3         -2.0053   -0.0071   -2.8402 N.2       1 GTP        -0.4283
     32 C4         -2.6290   -0.4727   -1.7210 C.ar      1 GTP         0.2226
     33 H5'        -0.9348   -4.9415    1.9415 H         1 GTP        -0.0393
     34 H5''       -1.7548   -3.4350    2.4278 H         1 GTP        -0.0393
     35 H4'         0.8874   -3.6466    0.8805 H         1 GTP        -0.0393
     36 H3'        -0.7376   -1.2333    1.9867 H         1 GTP        -0.0393
     37 HO3'        1.1626   -1.9325    3.0084 H         1 GTP         0.2010
     38 H2'        -0.0384   -0.0310    0.0096 H         1 GTP        -0.0393
     39 HO2'        2.1463   -0.7958    0.0370 H         1 GTP         0.2010
     40 H1'        -0.4769   -2.1002   -1.8093 H         1 GTP        -0.0393
     41 H8         -2.9610   -2.1316    1.0079 H         1 GTP         0.0000
     42 HN1        -4.5320    1.7923   -3.8726 H         1 GTP         0.0865
     43 HN21       -1.3128    1.1277   -5.0171 H         1 GTP         0.2048
     44 HN22       -2.8342    1.9586   -5.2572 H         1 GTP         0.2048
     45 H45        -5.0195   -0.8034    0.3729 H         1 GTP         0.2048
@<TRIPOS>BOND
     1    1    2 2
     2    1    3 1
     3    1    4 1
     4    1    5 1
     5    5    6 1
     6    6    7 2
     7    6    8 1
     8    6    9 1
     9    9   10 1
    10   10   11 2
    11   10   12 1
    12   10   13 1
    13   13   14 1
    14   14   15 1
    15   14   33 1
    16   14   34 1
    17   15   16 1
    18   15   17 1
    19   15   35 1
    20   16   21 1
    21   17   18 1
    22   17   19 1
    23   17   36 1
    24   18   37 1
    25   19   20 1
    26   19   21 1
    27   19   38 1
    28   20   39 1
    29   21   22 1
    30   21   40 1
    31   22   23 ar
    32   22   32 ar
    33   23   24 ar
    34   23   41 1
    35   24   25 ar
    36   24   45 1
    37   25   26 ar
    38   25   32 ar
    39   26   27 2
    40   26   28 ar
    41   28   29 ar
    42   28   42 1
    43   29   30 1
    44   29   31 ar
    45   30   43 1
    46   30   44 1
    47   31   32 ar
@<TRIPOS>SUBSTRUCTURE
     1 GTP         1 GROUP 0 A     ****
@<TRIPOS>MOLECULE
[[[5-(2-amino-6-oxo-7,8-dihydro-1~{H}-purin-8-ylium-9-yl)-3,4-dihydroxy-tetrahydrofuran-2-yl]methoxy-oxido-phosphoryl]oxy-oxido-phosphoryl] phosphate
   45    47     1     0     0
SMALL
USER_CHARGES

@<TRIPOS>ATOM
      1 PG          2.8125   -0.2704   -7.1491 P.3       1 GTP        -1.1921
      2 O1G         1.8198   -0.4230   -6.0014 O.co2     1 GTP         0.3195
      3 O2G         2.6710    1.0291   -7.9345 O.co2     1 GTP         0.3195
      4 O3G         2.9604   -1.5145   -8.0187 O.co2     1 GTP         0.3195
      5 O3B         4.2770   -0.1354   -6.4028 O.3       1 GTP         0.4672
      6 PB          5.0480   -1.1753   -5.4061 P.3       1 GTP        -1.1062
      7 O1B         5.1532   -2.5193   -6.0917 O.co2     1 GTP         0.3195
      8 O2B         6.2610   -0.4898   -4.8178 O.co2     1 GTP         0.3195
      9 O3A         3.9400   -1.2599   -4.2100 O.3       1 GTP         0.4672
     10 PA          3.9665   -2.1124   -2.8163 P.3       1 GTP        -1.1062
     11 O1A         3.9137   -3.5853   -3.1586 O.co2     1 GTP         0.3195
     12 O2A         5.0501   -1.5573   -1.9175 O.co2     1 GTP         0.3195
     13 O5'         2.5245   -1.6648   -2.1878 O.3       1 GTP         0.1618
     14 C5'         2.2816   -0.2918   -1.9206 C.3       1 GTP         0.1504
     15 C4'         2.7248    0.0226   -0.4980 C.3       1 GTP         0.1111
     16 O4'         2.4697    1.4219   -0.2462 O.3       1 GTP        -0.1436
     17 C3'         1.9404   -0.7419    0.5596 C.3       1 GTP         0.1111
     18 O3'         2.7418   -0.8086    1.7389 O.3       1 GTP        -0.2728
     19 C2'         0.7477    0.1630    0.7858 C.3       1 GTP         0.1111
     20 O2'         0.1373   -0.0577    2.0407 O.3       1 GTP        -0.2728
     21 C1'         1.3733    1.5427    0.6747 C.3       1 GTP         0.2693
     22 N9          0.4520    2.5240    0.1767 N.pl3     1 GTP        -0.3222
     23 C8          0.5671    3.2221   -0.9473 C.ar      1 GTP         0.1640
     24 N7         -0.4560    4.0508   -1.1290 N.pl3     1 GTP        -0.3688
     25 C5         -1.2671    3.8585   -0.0441 C.ar      1 GTP         0.0648
     26 C6         -2.5318    4.5014    0.2817 C.ar      1 GTP         0.3597
     27 O6         -3.0527    5.3493   -0.4293 O.2       1 GTP        -0.2755
     28 N1         -3.0357    4.0149    1.4868 N.pl3     1 GTP        -0.1604
     29 C2         -2.4069    3.0373    2.2768 C.ar      1 GTP         0.4468
     30 N2         -3.0679    2.6964    3.4278 N.pl3     1 GTP        -0.5618
     31 N3         -1.2653    2.4872    1.9379 N.2       1 GTP        -0.4283
     32 C4         -0.7342    2.9334    0.7643 C.ar      1 GTP         0.2226
     33 H5'         2.8432    0.3119   -2.6398 H         1 GTP        -0.0393
     34 H5''        1.2128   -0.0927   -2.0428 H         1 GTP        -0.0393
     35 H4'         3.8044   -0.1397   -0.4040 H         1 GTP        -0.0393
     36 H3'         1.6764   -1.7639    0.2728 H         1 GTP        -0.0393
     37 HO3'        3.5554   -1.2733    1.4914 H         1 GTP         0.2010
     38 H2'        -0.0011    0.0027    0.0003 H         1 GTP        -0.0393
     39 HO2'        0.8082    0.1199    2.7232 H         1 GTP         0.2010
     40 H1'         1.7826    1.9024    1.6451 H         1 GTP        -0.0393
     41 H8          1.3888    3.1325   -1.6361 H         1 GTP         0.0000
     42 HN1        -3.9188    4.3932    1.8170 H         1 GTP         0.0865
     43 HN21       -2.6609    2.0087    4.0186 H         1 GTP         0.2048
     44 HN22       -3.9293    3.1496    3.6283 H         1 GTP         0.2048
     45 H45        -0.5938    4.6820   -1.9060 H         1 GTP         0.2048
@<TRIPOS>BOND
     1    1    2 2
     2    1    3 1
     3    1    4 1
     4    1    5 1
     5    5    6 1
     6    6    7 2
     7    6    8 1
     8    6    9 1
     9    9   10 1
    10   10   11 2
    11   10   12 1
    12   10   13 1
    13   13   14 1
    14   14   15 1
    15   14   33 1
    16   14   34 1
    17   15   16 1
    18   15   17 1
    19   15   35 1
    20   16   21 1
    21   17   18 1
    22   17   19 1
    23   17   36 1
    24   18   37 1
    25   19   20 1
    26   19   21 1
    27   19   38 1
    28   20   39 1
    29   21   22 1
    30   21   40 1
    31   22   23 ar
    32   22   32 ar
    33   23   24 ar
    34   23   41 1
    35   24   25 ar
    36   24   45 1
    37   25   26 ar
    38   25   32 ar
    39   26   27 2
    40   26   28 ar
    41   28   29 ar
    42   28   42 1
    43   29   30 1
    44   29   31 ar
    45   30   43 1
    46   30   44 1
    47   31   32 ar
@<TRIPOS>SUBSTRUCTURE
     1 GTP         1 GROUP 0 A     ****
@<TRIPOS>MOLECULE
[[[5-(2-amino-6-oxo-7,8-dihydro-1~{H}-purin-8-ylium-9-yl)-3,4-dihydroxy-tetrahydrofuran-2-yl]methoxy-oxido-phosphoryl]oxy-oxido-phosphoryl] phosphate
   45    47     1     0     0
SMALL
USER_CHARGES

@<TRIPOS>ATOM
      1 PG          2.5130   -4.3752   -4.4450 P.3       1 GTP        -1.1921
      2 O1G         1.0570   -4.1172   -4.0715 O.co2     1 GTP         0.3195
      3 O2G         2.7458   -5.6745   -5.2085 O.co2     1 GTP         0.3195
      4 O3G         3.5031   -4.1292   -3.3114 O.co2     1 GTP         0.3195
      5 O3B         2.8660   -3.1931   -5.5395 O.3       1 GTP         0.4672
      6 PB          2.8259   -1.5677   -5.3799 P.3       1 GTP        -1.1062
      7 O1B         3.3772   -0.9408   -6.6411 O.co2     1 GTP         0.3195
      8 O2B         1.4843   -1.1588   -4.8140 O.co2     1 GTP         0.3195
      9 O3A         3.9086   -1.3977   -4.1698 O.3       1 GTP         0.4672
     10 PA          4.4374   -0.0458   -3.4198 P.3       1 GTP        -1.1062
     11 O1A         5.3232   -0.4584   -2.2644 O.co2     1 GTP         0.3195
     12 O2A         4.9198    0.9409   -4.4608 O.co2     1 GTP         0.3195
     13 O5'         3.0213    0.5153   -2.8245 O.3       1 GTP         0.1618
     14 C5'         2.2816   -0.2918   -1.9206 C.3       1 GTP         0.1504
     15 C4'         2.7248    0.0226   -0.4980 C.3       1 GTP         0.1111
     16 O4'         2.4697    1.4219   -0.2462 O.3       1 GTP        -0.1436
     17 C3'         1.9404   -0.7419    0.5596 C.3       1 GTP         0.1111
     18 O3'         2.7418   -0.8086    1.7389 O.3       1 GTP        -0.2728
     19 C2'         0.7477    0.1630    0.7858 C.3       1 GTP         0.1111
     20 O2'         0.1373   -0.0577    2.0407 O.3       1 GTP        -0.2728
     21 C1'         1.3733    1.5427    0.6747 C.3       1 GTP         0.2693
     22 N9          0.4520    2.5240    0.1767 N.pl3     1 GTP        -0.3222
     23 C8         -0.6818    2.9109    0.7501 C.ar      1 GTP         0.1640
     24 N7         -1.3103    3.8415    0.0391 N.pl3     1 GTP        -0.3688
     25 C5         -0.5155    4.0512   -1.0547 C.ar      1 GTP         0.0648
     26 C6         -0.7125    4.9651   -2.1705 C.ar      1 GTP         0.3597
     27 O6         -1.6819    5.7047   -2.2651 O.2       1 GTP        -0.2755
     28 N1          0.3401    4.8672   -3.0790 N.pl3     1 GTP        -0.1604
     29 C2          1.4396    4.0039   -2.9348 C.ar      1 GTP         0.4468
     30 N2          2.3679    4.0602   -3.9414 N.pl3     1 GTP        -0.5618
     31 N3          1.5708    3.1983   -1.9080 N.2       1 GTP        -0.4283
     32 C4          0.5630    3.2599   -0.9921 C.ar      1 GTP         0.2226
     33 H5'         1.2163   -0.0770   -2.0471 H         1 GTP        -0.0393
     34 H5''        2.4655   -1.3443   -2.1563 H         1 GTP        -0.0393
     35 H4'         3.8044   -0.1397   -0.4040 H         1 GTP        -0.0393
     36 H3'         1.6764   -1.7639    0.2728 H         1 GTP        -0.0393
     37 HO3'        2.2232   -1.2979    2.3953 H         1 GTP         0.2010
     38 H2'        -0.0011    0.0027    0.0003 H         1 GTP        -0.0393
     39 HO2'       -0.1563   -0.9855    2.0596 H         1 GTP         0.2010
     40 H1'         1.7826    1.9024    1.6451 H         1 GTP        -0.0393
     41 H8         -1.0545    2.5222    1.6816 H         1 GTP         0.0000
     42 HN1         0.3104    5.4612   -3.9026 H         1 GTP         0.0865
     43 HN21        3.1632    3.4672   -3.8824 H         1 GTP         0.2048
     44 HN22        2.2108    4.6918   -4.6924 H         1 GTP         0.2048
     45 H45        -2.1863    4.2902    0.2681 H         1 GTP         0.2048
@<TRIPOS>BOND
     1    1    2 2
     2    1    3 1
     3    1    4 1
     4    1    5 1
     5    5    6 1
     6    6    7 2
     7    6    8 1
     8    6    9 1
     9    9   10 1
    10   10   11 2
    11   10   12 1
    12   10   13 1
    13   13   14 1
    14   14   15 1
    15   14   33 1
    16   14   34 1
    17   15   16 1
    18   15   17 1
    19   15   35 1
    20   16   21 1
    21   17   18 1
    22   17   19 1
    23   17   36 1
    24   18   37 1
    25   19   20 1
    26   19   21 1
    27   19   38 1
    28   20   39 1
    29   21   22 1
    30   21   40 1
    31   22   23 ar
    32   22   32 ar
    33   23   24 ar
    34   23   41 1
    35   24   25 ar
    36   24   45 1
    37   25   26 ar
    38   25   32 ar
    39   26   27 2
    40   26   28 ar
    41   28   29 ar
    42   28   42 1
    43   29   30 1
    44   29   31 ar
    45   30   43 1
    46   30   44 1
    47   31   32 ar
@<TRIPOS>SUBSTRUCTURE
     1 GTP         1 GROUP 0 A     ****
@<TRIPOS>MOLECULE
[[[5-(2-amino-6-oxo-7,8-dihydro-1~{H}-purin-8-ylium-9-yl)-3,4-dihydroxy-tetrahydrofuran-2-yl]methoxy-oxido-phosphoryl]oxy-oxido-phosphoryl] phosphate
   45    47     1     0     0
SMALL
USER_CHARGES

@<TRIPOS>ATOM
      1 PG         -2.3262   -8.3812    4.2327 P.3       1 GTP        -1.1921
      2 O1G        -1.4179   -8.2965    3.0105 O.co2     1 GTP         0.3195
      3 O2G        -2.5883   -9.8007    4.7245 O.co2     1 GTP         0.3195
      4 O3G        -3.5736   -7.5079    4.1474 O.co2     1 GTP         0.3195
      5 O3B        -1.4436   -7.6897    5.4421 O.3       1 GTP         0.4672
      6 PB         -0.8293   -6.1808    5.5636 P.3       1 GTP        -1.1062
      7 O1B        -1.9474   -5.1822    5.3631 O.co2     1 GTP         0.3195
      8 O2B         0.0852   -6.1139    6.7664 O.co2     1 GTP         0.3195
      9 O3A         0.1377   -6.1862    4.2481 O.3       1 GTP         0.4672
     10 PA          1.1155   -5.0156    3.6623 P.3       1 GTP        -1.1062
     11 O1A         2.0416   -4.5696    4.7727 O.co2     1 GTP         0.3195
     12 O2A         1.6591   -5.4515    2.3190 O.co2     1 GTP         0.3195
     13 O5'         0.0118   -3.8395    3.3916 O.3       1 GTP         0.1618
     14 C5'        -0.7840   -3.8935    2.2172 C.3       1 GTP         0.1504
     15 C4'        -0.0724   -3.1466    1.1027 C.3       1 GTP         0.1111
     16 O4'        -0.8674   -3.1929   -0.0945 O.3       1 GTP        -0.1436
     17 C3'         0.1338   -1.6715    1.4027 C.3       1 GTP         0.1111
     18 O3'         1.2893   -1.4445    2.1808 O.3       1 GTP        -0.2728
     19 C2'         0.2158   -1.0724    0.0128 C.3       1 GTP         0.1111
     20 O2'         1.5141   -1.2448   -0.5513 O.3       1 GTP        -0.2728
     21 C1'        -0.7897   -1.9176   -0.7583 C.3       1 GTP         0.2693
     22 N9         -2.1040   -1.3333   -0.7704 N.pl3     1 GTP        -0.3222
     23 C8         -3.0597   -1.5109    0.1345 C.ar      1 GTP         0.1640
     24 N7         -4.1618   -0.8291   -0.1607 N.pl3     1 GTP        -0.3688
     25 C5         -3.8764   -0.1805   -1.3310 C.ar      1 GTP         0.0648
     26 C6         -4.7187    0.7111   -2.1152 C.ar      1 GTP         0.3597
     27 O6         -5.8617    1.0043   -1.7939 O.2       1 GTP        -0.2755
     28 N1         -4.0405    1.1608   -3.2468 N.pl3     1 GTP        -0.1604
     29 C2         -2.7239    0.8013   -3.5822 C.ar      1 GTP         0.4468
     30 N2         -2.2399    1.3534   -4.7394 N.pl3     1 GTP        -0.5618
     31 N3         -2.0053   -0.0071   -2.8402 N.2       1 GTP        -0.4283
     32 C4         -2.6290   -0.4727   -1.7210 C.ar      1 GTP         0.2226
     33 H5'        -0.9348   -4.9415    1.9415 H         1 GTP        -0.0393
     34 H5''       -1.7548   -3.4350    2.4278 H         1 GTP        -0.0393
     35 H4'         0.8874   -3.6466    0.8805 H         1 GTP        -0.0393
     36 H3'        -0.7376   -1.2333    1.9867 H         1 GTP        -0.0393
     37 HO3'        1.3408   -0.4870    2.3219 H         1 GTP         0.2010
     38 H2'        -0.0384   -0.0310    0.0096 H         1 GTP        -0.0393
     39 HO2'        2.1463   -0.7958    0.0370 H         1 GTP         0.2010
     40 H1'        -0.4769   -2.1002   -1.8093 H         1 GTP        -0.0393
     41 H8         -2.9610   -2.1316    1.0079 H         1 GTP         0.0000
     42 HN1        -4.5320    1.7923   -3.8726 H         1 GTP         0.0865
     43 HN21       -1.3128    1.1277   -5.0171 H         1 GTP         0.2048
     44 HN22       -2.8342    1.9586   -5.2572 H         1 GTP         0.2048
     45 H45        -5.0195   -0.8034    0.3729 H         1 GTP         0.2048
@<TRIPOS>BOND
     1    1    2 2
     2    1    3 1
     3    1    4 1
     4    1    5 1
     5    5    6 1
     6    6    7 2
     7    6    8 1
     8    6    9 1
     9    9   10 1
    10   10   11 2
    11   10   12 1
    12   10   13 1
    13   13   14 1
    14   14   15 1
    15   14   33 1
    16   14   34 1
    17   15   16 1
    18   15   17 1
    19   15   35 1
    20   16   21 1
    21   17   18 1
    22   17   19 1
    23   17   36 1
    24   18   37 1
    25   19   20 1
    26   19   21 1
    27   19   38 1
    28   20   39 1
    29   21   22 1
    30   21   40 1
    31   22   23 ar
    32   22   32 ar
    33   23   24 ar
    34   23   41 1
    35   24   25 ar
    36   24   45 1
    37   25   26 ar
    38   25   32 ar
    39   26   27 2
    40   26   28 ar
    41   28   29 ar
    42   28   42 1
    43   29   30 1
    44   29   31 ar
    45   30   43 1
    46   30   44 1
    47   31   32 ar
@<TRIPOS>SUBSTRUCTURE
     1 GTP         1 GROUP 0 A     ****
@<TRIPOS>MOLECULE
[[[5-(2-amino-6-oxo-7,8-dihydro-1~{H}-purin-8-ylium-9-yl)-3,4-dihydroxy-tetrahydrofuran-2-yl]methoxy-oxido-phosphoryl]oxy-oxido-phosphoryl] phosphate
   45    47     1     0     0
SMALL
USER_CHARGES

@<TRIPOS>ATOM
      1 PG          6.9484    2.1264    0.1120 P.3       1 GTP        -1.1921
      2 O1G         5.4642    2.3664   -0.1435 O.co2     1 GTP         0.3195
      3 O2G         7.3262    2.0358    1.5867 O.co2     1 GTP         0.3195
      4 O3G         7.8770    3.0055   -0.7192 O.co2     1 GTP         0.3195
      5 O3B         7.2193    0.6072   -0.4698 O.3       1 GTP         0.4672
      6 PB          7.0200    0.0084   -1.9767 P.3       1 GTP        -1.1062
      7 O1B         7.7896    0.8732   -2.9500 O.co2     1 GTP         0.3195
      8 O2B         7.1978   -1.4931   -1.9402 O.co2     1 GTP         0.3195
      9 O3A         5.4200    0.2796   -2.1555 O.3       1 GTP         0.4672
     10 PA          4.4374   -0.0458   -3.4198 P.3       1 GTP        -1.1062
     11 O1A         4.8565    0.8248   -4.5842 O.co2     1 GTP         0.3195
     12 O2A         4.3080   -1.5458   -3.5723 O.co2     1 GTP         0.3195
     13 O5'         3.0213    0.5153   -2.8245 O.3       1 GTP         0.1618
     14 C5'         2.2816   -0.2918   -1.9206 C.3       1 GTP         0.1504
     15 C4'         2.7248    0.0226   -0.4980 C.3       1 GTP         0.1111
     16 O4'         2.4697    1.4219   -0.2462 O.3       1 GTP        -0.1436
     17 C3'         1.9404   -0.7419    0.5596 C.3       1 GTP         0.1111
     18 O3'         2.7418   -0.8086    1.7389 O.3       1 GTP        -0.2728
     19 C2'         0.7477    0.1630    0.7858 C.3       1 GTP         0.1111
     20 O2'         0.1373   -0.0577    2.0407 O.3       1 GTP        -0.2728
     21 C1'         1.3733    1.5427    0.6747 C.3       1 GTP         0.2693
     22 N9          0.4520    2.5240    0.1767 N.pl3     1 GTP        -0.3222
     23 C8         -0.6818    2.9109    0.7501 C.ar      1 GTP         0.1640
     24 N7         -1.3103    3.8415    0.0391 N.pl3     1 GTP        -0.3688
     25 C5         -0.5155    4.0512   -1.0547 C.ar      1 GTP         0.0648
     26 C6         -0.7125    4.9651   -2.1705 C.ar      1 GTP         0.3597
     27 O6         -1.6819    5.7047   -2.2651 O.2       1 GTP        -0.2755
     28 N1          0.3401    4.8672   -3.0790 N.pl3     1 GTP        -0.1604
     29 C2          1.4396    4.0039   -2.9348 C.ar      1 GTP         0.4468
     30 N2          2.3679    4.0602   -3.9414 N.pl3     1 GTP        -0.5618
     31 N3          1.5708    3.1983   -1.9080 N.2       1 GTP        -0.4283
     32 C4          0.5630    3.2599   -0.9921 C.ar      1 GTP         0.2226
     33 H5'         1.2163   -0.0770   -2.0471 H         1 GTP        -0.0393
     34 H5''        2.4655   -1.3443   -2.1563 H         1 GTP        -0.0393
     35 H4'         3.8044   -0.1397   -0.4040 H         1 GTP        -0.0393
     36 H3'         1.6764   -1.7639    0.2728 H         1 GTP        -0.0393
     37 HO3'        2.2232   -1.2979    2.3953 H         1 GTP         0.2010
     38 H2'        -0.0011    0.0027    0.0003 H         1 GTP        -0.0393
     39 HO2'       -0.1563   -0.9855    2.0596 H         1 GTP         0.2010
     40 H1'         1.7826    1.9024    1.6451 H         1 GTP        -0.0393
     41 H8         -1.0545    2.5222    1.6816 H         1 GTP         0.0000
     42 HN1         0.3104    5.4612   -3.9026 H         1 GTP         0.0865
     43 HN21        3.1632    3.4672   -3.8824 H         1 GTP         0.2048
     44 HN22        2.2108    4.6918   -4.6924 H         1 GTP         0.2048
     45 H45        -2.1863    4.2902    0.2681 H         1 GTP         0.2048
@<TRIPOS>BOND
     1    1    2 2
     2    1    3 1
     3    1    4 1
     4    1    5 1
     5    5    6 1
     6    6    7 2
     7    6    8 1
     8    6    9 1
     9    9   10 1
    10   10   11 2
    11   10   12 1
    12   10   13 1
    13   13   14 1
    14   14   15 1
    15   14   33 1
    16   14   34 1
    17   15   16 1
    18   15   17 1
    19   15   35 1
    20   16   21 1
    21   17   18 1
    22   17   19 1
    23   17   36 1
    24   18   37 1
    25   19   20 1
    26   19   21 1
    27   19   38 1
    28   20   39 1
    29   21   22 1
    30   21   40 1
    31   22   23 ar
    32   22   32 ar
    33   23   24 ar
    34   23   41 1
    35   24   25 ar
    36   24   45 1
    37   25   26 ar
    38   25   32 ar
    39   26   27 2
    40   26   28 ar
    41   28   29 ar
    42   28   42 1
    43   29   30 1
    44   29   31 ar
    45   30   43 1
    46   30   44 1
    47   31   32 ar
@<TRIPOS>SUBSTRUCTURE
     1 GTP         1 GROUP 0 A     ****
@<TRIPOS>MOLECULE
[[[5-(2-amino-6-oxo-7,8-dihydro-1~{H}-purin-8-ylium-9-yl)-3,4-dihydroxy-tetrahydrofuran-2-yl]methoxy-oxido-phosphoryl]oxy-oxido-phosphoryl] phosphate
   45    47     1     0     0
SMALL
USER_CHARGES

@<TRIPOS>ATOM
      1 PG          0.2308   -1.2644   -8.3359 P.3       1 GTP        -1.1921
      2 O1G         1.1828   -0.8797   -9.4636 O.co2     1 GTP         0.3195
      3 O2G         0.0396   -2.7670   -8.1592 O.co2     1 GTP         0.3195
      4 O3G        -1.0653   -0.4610   -8.3092 O.co2     1 GTP         0.3195
      5 O3B         1.0154   -0.7917   -6.9645 O.3       1 GTP         0.4672
      6 PB          1.5261    0.6904   -6.5042 P.3       1 GTP        -1.1062
      7 O1B         2.6147    1.1458   -7.4503 O.co2     1 GTP         0.3195
      8 O2B         0.3236    1.5576   -6.2053 O.co2     1 GTP         0.3195
      9 O3A         2.1857    0.3026   -5.0620 O.3       1 GTP         0.4672
     10 PA          2.9240    1.2545   -3.9582 P.3       1 GTP        -1.1062
     11 O1A         4.2095    1.7752   -4.5630 O.co2     1 GTP         0.3195
     12 O2A         1.9045    2.1980   -3.3577 O.co2     1 GTP         0.3195
     13 O5'         3.2903    0.1346   -2.8241 O.3       1 GTP         0.1618
     14 C5'         2.2816   -0.2918   -1.9206 C.3       1 GTP         0.1504
     15 C4'         2.7248    0.0226   -0.4980 C.3       1 GTP         0.1111
     16 O4'         2.4697    1.4219   -0.2462 O.3       1 GTP        -0.1436
     17 C3'         1.9404   -0.7419    0.5596 C.3       1 GTP         0.1111
     18 O3'         2.7418   -0.8086    1.7389 O.3       1 GTP        -0.2728
     19 C2'         0.7477    0.1630    0.7858 C.3       1 GTP         0.1111
     20 O2'         0.1373   -0.0577    2.0407 O.3       1 GTP        -0.2728
     21 C1'         1.3733    1.5427    0.6747 C.3       1 GTP         0.2693
     22 N9          0.4520    2.5240    0.1767 N.pl3     1 GTP        -0.3222
     23 C8         -0.8613    2.5511    0.3730 C.ar      1 GTP         0.1640
     24 N7         -1.4346    3.5939   -0.2188 N.pl3     1 GTP        -0.3688
     25 C5         -0.4099    4.2657   -0.8276 C.ar      1 GTP         0.0648
     26 C6         -0.4554    5.4854   -1.6209 C.ar      1 GTP         0.3597
     27 O6         -1.4907    6.0944   -1.8508 O.2       1 GTP        -0.2755
     28 N1          0.8205    5.8357   -2.0593 N.pl3     1 GTP        -0.1604
     29 C2          1.9890    5.1091   -1.7730 C.ar      1 GTP         0.4468
     30 N2          3.1452    5.6230   -2.2997 N.pl3     1 GTP        -0.5618
     31 N3          1.9765    4.0139   -1.0514 N.2       1 GTP        -0.4283
     32 C4          0.7480    3.6324   -0.6003 C.ar      1 GTP         0.2226
     33 H5'         1.3514    0.2330   -2.1577 H         1 GTP        -0.0393
     34 H5''        2.1280   -1.3678   -2.0460 H         1 GTP        -0.0393
     35 H4'         3.8044   -0.1397   -0.4040 H         1 GTP        -0.0393
     36 H3'         1.6764   -1.7639    0.2728 H         1 GTP        -0.0393
     37 HO3'        2.2232   -1.2979    2.3953 H         1 GTP         0.2010
     38 H2'        -0.0011    0.0027    0.0003 H         1 GTP        -0.0393
     39 HO2'       -0.1563   -0.9855    2.0596 H         1 GTP         0.2010
     40 H1'         1.7826    1.9024    1.6451 H         1 GTP        -0.0393
     41 H8         -1.4050    1.8187    0.9438 H         1 GTP         0.0000
     42 HN1         0.9121    6.6744   -2.6251 H         1 GTP         0.0865
     43 HN21        3.9971    5.1427   -2.1235 H         1 GTP         0.2048
     44 HN22        3.0881    6.4564   -2.8380 H         1 GTP         0.2048
     45 H45        -2.4173    3.8294   -0.2127 H         1 GTP         0.2048
@<TRIPOS>BOND
     1    1    2 2
     2    1    3 1
     3    1    4 1
     4    1    5 1
     5    5    6 1
     6    6    7 2
     7    6    8 1
     8    6    9 1
     9    9   10 1
    10   10   11 2
    11   10   12 1
    12   10   13 1
    13   13   14 1
    14   14   15 1
    15   14   33 1
    16   14   34 1
    17   15   16 1
    18   15   17 1
    19   15   35 1
    20   16   21 1
    21   17   18 1
    22   17   19 1
    23   17   36 1
    24   18   37 1
    25   19   20 1
    26   19   21 1
    27   19   38 1
    28   20   39 1
    29   21   22 1
    30   21   40 1
    31   22   23 ar
    32   22   32 ar
    33   23   24 ar
    34   23   41 1
    35   24   25 ar
    36   24   45 1
    37   25   26 ar
    38   25   32 ar
    39   26   27 2
    40   26   28 ar
    41   28   29 ar
    42   28   42 1
    43   29   30 1
    44   29   31 ar
    45   30   43 1
    46   30   44 1
    47   31   32 ar
@<TRIPOS>SUBSTRUCTURE
     1 GTP         1 GROUP 0 A     ****
@<TRIPOS>MOLECULE
[[[5-(2-amino-6-oxo-7,8-dihydro-1~{H}-purin-8-ylium-9-yl)-3,4-dihydroxy-tetrahydrofuran-2-yl]methoxy-oxido-phosphoryl]oxy-oxido-phosphoryl] phosphate
   45    47     1     0     0
SMALL
USER_CHARGES

@<TRIPOS>ATOM
      1 PG          8.6768   -0.9805   -2.5975 P.3       1 GTP        -1.1921
      2 O1G         9.1983   -2.2749   -3.2127 O.co2     1 GTP         0.3195
      3 O2G         8.6048    0.1932   -3.5684 O.co2     1 GTP         0.3195
      4 O3G         9.2927   -0.6374   -1.2451 O.co2     1 GTP         0.3195
      5 O3B         7.1004   -1.3082   -2.2402 O.3       1 GTP         0.4672
      6 PB          6.4604   -2.4473   -1.2595 P.3       1 GTP        -1.1062
      7 O1B         6.7571   -3.8121   -1.8400 O.co2     1 GTP         0.3195
      8 O2B         6.7935   -2.1085    0.1762 O.co2     1 GTP         0.3195
      9 O3A         4.8769   -2.1037   -1.4595 O.3       1 GTP         0.4672
     10 PA          3.9665   -2.1124   -2.8163 P.3       1 GTP        -1.1062
     11 O1A         4.4633   -1.0128   -3.7294 O.co2     1 GTP         0.3195
     12 O2A         3.8288   -3.5360   -3.3105 O.co2     1 GTP         0.3195
     13 O5'         2.5245   -1.6648   -2.1878 O.3       1 GTP         0.1618
     14 C5'         2.2816   -0.2918   -1.9206 C.3       1 GTP         0.1504
     15 C4'         2.7248    0.0226   -0.4980 C.3       1 GTP         0.1111
     16 O4'         2.4697    1.4219   -0.2462 O.3       1 GTP        -0.1436
     17 C3'         1.9404   -0.7419    0.5596 C.3       1 GTP         0.1111
     18 O3'         2.7418   -0.8086    1.7389 O.3       1 GTP        -0.2728
     19 C2'         0.7477    0.1630    0.7858 C.3       1 GTP         0.1111
     20 O2'         0.1373   -0.0577    2.0407 O.3       1 GTP        -0.2728
     21 C1'         1.3733    1.5427    0.6747 C.3       1 GTP         0.2693
     22 N9          0.4520    2.5240    0.1767 N.pl3     1 GTP        -0.3222
     23 C8          0.5671    3.2221   -0.9473 C.ar      1 GTP         0.1640
     24 N7         -0.4560    4.0508   -1.1290 N.pl3     1 GTP        -0.3688
     25 C5         -1.2671    3.8585   -0.0441 C.ar      1 GTP         0.0648
     26 C6         -2.5318    4.5014    0.2817 C.ar      1 GTP         0.3597
     27 O6         -3.0527    5.3493   -0.4293 O.2       1 GTP        -0.2755
     28 N1         -3.0357    4.0149    1.4868 N.pl3     1 GTP        -0.1604
     29 C2         -2.4069    3.0373    2.2768 C.ar      1 GTP         0.4468
     30 N2         -3.0679    2.6964    3.4278 N.pl3     1 GTP        -0.5618
     31 N3         -1.2653    2.4872    1.9379 N.2       1 GTP        -0.4283
     32 C4         -0.7342    2.9334    0.7643 C.ar      1 GTP         0.2226
     33 H5'         2.8432    0.3119   -2.6398 H         1 GTP        -0.0393
     34 H5''        1.2128   -0.0927   -2.0428 H         1 GTP        -0.0393
     35 H4'         3.8044   -0.1397   -0.4040 H         1 GTP        -0.0393
     36 H3'         1.6764   -1.7639    0.2728 H         1 GTP        -0.0393
     37 HO3'        3.5554   -1.2733    1.4914 H         1 GTP         0.2010
     38 H2'        -0.0011    0.0027    0.0003 H         1 GTP        -0.0393
     39 HO2'        0.8082    0.1199    2.7232 H         1 GTP         0.2010
     40 H1'         1.7826    1.9024    1.6451 H         1 GTP        -0.0393
     41 H8          1.3888    3.1325   -1.6361 H         1 GTP         0.0000
     42 HN1        -3.9188    4.3932    1.8170 H         1 GTP         0.0865
     43 HN21       -2.6609    2.0087    4.0186 H         1 GTP         0.2048
     44 HN22       -3.9293    3.1496    3.6283 H         1 GTP         0.2048
     45 H45        -0.5938    4.6820   -1.9060 H         1 GTP         0.2048
@<TRIPOS>BOND
     1    1    2 2
     2    1    3 1
     3    1    4 1
     4    1    5 1
     5    5    6 1
     6    6    7 2
     7    6    8 1
     8    6    9 1
     9    9   10 1
    10   10   11 2
    11   10   12 1
    12   10   13 1
    13   13   14 1
    14   14   15 1
    15   14   33 1
    16   14   34 1
    17   15   16 1
    18   15   17 1
    19   15   35 1
    20   16   21 1
    21   17   18 1
    22   17   19 1
    23   17   36 1
    24   18   37 1
    25   19   20 1
    26   19   21 1
    27   19   38 1
    28   20   39 1
    29   21   22 1
    30   21   40 1
    31   22   23 ar
    32   22   32 ar
    33   23   24 ar
    34   23   41 1
    35   24   25 ar
    36   24   45 1
    37   25   26 ar
    38   25   32 ar
    39   26   27 2
    40   26   28 ar
    41   28   29 ar
    42   28   42 1
    43   29   30 1
    44   29   31 ar
    45   30   43 1
    46   30   44 1
    47   31   32 ar
@<TRIPOS>SUBSTRUCTURE
     1 GTP         1 GROUP 0 A     ****
@<TRIPOS>MOLECULE
[[[5-(2-amino-6-oxo-7,8-dihydro-1~{H}-purin-8-ylium-9-yl)-3,4-dihydroxy-tetrahydrofuran-2-yl]methoxy-oxido-phosphoryl]oxy-oxido-phosphoryl] phosphate
   45    47     1     0     0
SMALL
USER_CHARGES

@<TRIPOS>ATOM
      1 PG          2.4180   -3.2040    5.7093 P.3       1 GTP        -1.1921
      2 O1G         1.5687   -2.8957    6.9379 O.co2     1 GTP         0.3195
      3 O2G         3.8620   -2.7231    5.8060 O.co2     1 GTP         0.3195
      4 O3G         1.7389   -2.8829    4.3820 O.co2     1 GTP         0.3195
      5 O3B         2.5383   -4.8488    5.7022 O.3       1 GTP         0.4672
      6 PB          1.3695   -5.9872    5.6172 P.3       1 GTP        -1.1062
      7 O1B         2.0218   -7.3471    5.5043 O.co2     1 GTP         0.3195
      8 O2B         0.3193   -5.6978    6.6663 O.co2     1 GTP         0.3195
      9 O3A         0.7114   -5.5784    4.1801 O.3       1 GTP         0.4672
     10 PA         -0.5378   -6.2523    3.3707 P.3       1 GTP        -1.1062
     11 O1A        -0.1323   -7.6468    2.9459 O.co2     1 GTP         0.3195
     12 O2A        -1.8159   -6.0116    4.1444 O.co2     1 GTP         0.3195
     13 O5'        -0.5687   -5.2869    2.0510 O.3       1 GTP         0.1618
     14 C5'        -0.7840   -3.8935    2.2172 C.3       1 GTP         0.1504
     15 C4'        -0.0724   -3.1466    1.1027 C.3       1 GTP         0.1111
     16 O4'        -0.8674   -3.1929   -0.0945 O.3       1 GTP        -0.1436
     17 C3'         0.1338   -1.6715    1.4027 C.3       1 GTP         0.1111
     18 O3'         1.2893   -1.4445    2.1808 O.3       1 GTP        -0.2728
     19 C2'         0.2158   -1.0724    0.0128 C.3       1 GTP         0.1111
     20 O2'         1.5141   -1.2448   -0.5513 O.3       1 GTP        -0.2728
     21 C1'        -0.7897   -1.9176   -0.7583 C.3       1 GTP         0.2693
     22 N9         -2.1040   -1.3333   -0.7704 N.pl3     1 GTP        -0.3222
     23 C8         -3.0597   -1.5109    0.1345 C.ar      1 GTP         0.1640
     24 N7         -4.1618   -0.8291   -0.1607 N.pl3     1 GTP        -0.3688
     25 C5         -3.8764   -0.1805   -1.3310 C.ar      1 GTP         0.0648
     26 C6         -4.7187    0.7111   -2.1152 C.ar      1 GTP         0.3597
     27 O6         -5.8617    1.0043   -1.7939 O.2       1 GTP        -0.2755
     28 N1         -4.0405    1.1608   -3.2468 N.pl3     1 GTP        -0.1604
     29 C2         -2.7239    0.8013   -3.5822 C.ar      1 GTP         0.4468
     30 N2         -2.2399    1.3534   -4.7394 N.pl3     1 GTP        -0.5618
     31 N3         -2.0053   -0.0071   -2.8402 N.2       1 GTP        -0.4283
     32 C4         -2.6290   -0.4727   -1.7210 C.ar      1 GTP         0.2226
     33 H5'        -1.8598   -3.6968    2.1850 H         1 GTP        -0.0393
     34 H5''       -0.3933   -3.5903    3.1931 H         1 GTP        -0.0393
     35 H4'         0.8874   -3.6466    0.8805 H         1 GTP        -0.0393
     36 H3'        -0.7376   -1.2333    1.9867 H         1 GTP        -0.0393
     37 HO3'        1.3408   -0.4870    2.3219 H         1 GTP         0.2010
     38 H2'        -0.0384   -0.0310    0.0096 H         1 GTP        -0.0393
     39 HO2'        2.1463   -0.7958    0.0370 H         1 GTP         0.2010
     40 H1'        -0.4769   -2.1002   -1.8093 H         1 GTP        -0.0393
     41 H8         -2.9610   -2.1316    1.0079 H         1 GTP         0.0000
     42 HN1        -4.5320    1.7923   -3.8726 H         1 GTP         0.0865
     43 HN21       -1.3128    1.1277   -5.0171 H         1 GTP         0.2048
     44 HN22       -2.8342    1.9586   -5.2572 H         1 GTP         0.2048
     45 H45        -5.0195   -0.8034    0.3729 H         1 GTP         0.2048
@<TRIPOS>BOND
     1    1    2 2
     2    1    3 1
     3    1    4 1
     4    1    5 1
     5    5    6 1
     6    6    7 2
     7    6    8 1
     8    6    9 1
     9    9   10 1
    10   10   11 2
    11   10   12 1
    12   10   13 1
    13   13   14 1
    14   14   15 1
    15   14   33 1
    16   14   34 1
    17   15   16 1
    18   15   17 1
    19   15   35 1
    20   16   21 1
    21   17   18 1
    22   17   19 1
    23   17   36 1
    24   18   37 1
    25   19   20 1
    26   19   21 1
    27   19   38 1
    28   20   39 1
    29   21   22 1
    30   21   40 1
    31   22   23 ar
    32   22   32 ar
    33   23   24 ar
    34   23   41 1
    35   24   25 ar
    36   24   45 1
    37   25   26 ar
    38   25   32 ar
    39   26   27 2
    40   26   28 ar
    41   28   29 ar
    42   28   42 1
    43   29   30 1
    44   29   31 ar
    45   30   43 1
    46   30   44 1
    47   31   32 ar
@<TRIPOS>SUBSTRUCTURE
     1 GTP         1 GROUP 0 A     ****
@<TRIPOS>MOLECULE
[[[5-(2-amino-6-oxo-7,8-dihydro-1~{H}-purin-8-ylium-9-yl)-3,4-dihydroxy-tetrahydrofuran-2-yl]methoxy-oxido-phosphoryl]oxy-oxido-phosphoryl] phosphate
   45    47     1     0     0
SMALL
USER_CHARGES

@<TRIPOS>ATOM
      1 PG         -1.6572    2.4071   -6.2962 P.3       1 GTP        -1.1921
      2 O1G        -1.0856    2.7879   -7.6578 O.co2     1 GTP         0.3195
      3 O2G        -2.5568    1.1759   -6.3136 O.co2     1 GTP         0.3195
      4 O3G        -2.2192    3.5819   -5.5023 O.co2     1 GTP         0.3195
      5 O3B        -0.3409    1.9350   -5.4219 O.3       1 GTP         0.4672
      6 PB          1.0058    2.7672   -5.0184 P.3       1 GTP        -1.1062
      7 O1B         1.7816    3.0789   -6.2788 O.co2     1 GTP         0.3195
      8 O2B         0.6408    3.8486   -4.0260 O.co2     1 GTP         0.3195
      9 O3A         1.7849    1.6083   -4.1726 O.3       1 GTP         0.4672
     10 PA          3.2351    1.6560   -3.4214 P.3       1 GTP        -1.1062
     11 O1A         4.3114    1.8064   -4.4743 O.co2     1 GTP         0.3195
     12 O2A         3.1526    2.6065   -2.2467 O.co2     1 GTP         0.3195
     13 O5'         3.2903    0.1346   -2.8241 O.3       1 GTP         0.1618
     14 C5'         2.2816   -0.2918   -1.9206 C.3       1 GTP         0.1504
     15 C4'         2.7248    0.0226   -0.4980 C.3       1 GTP         0.1111
     16 O4'         2.4697    1.4219   -0.2462 O.3       1 GTP        -0.1436
     17 C3'         1.9404   -0.7419    0.5596 C.3       1 GTP         0.1111
     18 O3'         2.7418   -0.8086    1.7389 O.3       1 GTP        -0.2728
     19 C2'         0.7477    0.1630    0.7858 C.3       1 GTP         0.1111
     20 O2'         0.1373   -0.0577    2.0407 O.3       1 GTP        -0.2728
     21 C1'         1.3733    1.5427    0.6747 C.3       1 GTP         0.2693
     22 N9          0.4520    2.5240    0.1767 N.pl3     1 GTP        -0.3222
     23 C8         -0.2009    2.4849   -0.9792 C.ar      1 GTP         0.1640
     24 N7         -0.9840    3.5454   -1.1481 N.pl3     1 GTP        -0.3688
     25 C5         -0.8090    4.3005   -0.0206 C.ar      1 GTP         0.0648
     26 C6         -1.4206    5.5724    0.3362 C.ar      1 GTP         0.3597
     27 O6         -2.2199    6.1544   -0.3836 O.2       1 GTP        -0.2755
     28 N1         -0.9680    6.0043    1.5817 N.pl3     1 GTP        -0.1604
     29 C2         -0.0474    5.3055    2.3814 C.ar      1 GTP         0.4468
     30 N2          0.2680    5.9024    3.5740 N.pl3     1 GTP        -0.5618
     31 N3          0.4755    4.1601    2.0138 N.2       1 GTP        -0.4283
     32 C4          0.0611    3.6981    0.8001 C.ar      1 GTP         0.2226
     33 H5'         1.3514    0.2330   -2.1577 H         1 GTP        -0.0393
     34 H5''        2.1280   -1.3678   -2.0460 H         1 GTP        -0.0393
     35 H4'         3.8044   -0.1397   -0.4040 H         1 GTP        -0.0393
     36 H3'         1.6764   -1.7639    0.2728 H         1 GTP        -0.0393
     37 HO3'        2.2232   -1.2979    2.3953 H         1 GTP         0.2010
     38 H2'        -0.0011    0.0027    0.0003 H         1 GTP        -0.0393
     39 HO2'       -0.6141    0.5574    2.1082 H         1 GTP         0.2010
     40 H1'         1.7826    1.9024    1.6451 H         1 GTP        -0.0393
     41 H8         -0.1126    1.6906   -1.6997 H         1 GTP         0.0000
     42 HN1        -1.3285    6.8855    1.9361 H         1 GTP         0.0865
     43 HN21        0.9153    5.4446    4.1732 H         1 GTP         0.2048
     44 HN22       -0.1624    6.7706    3.7948 H         1 GTP         0.2048
     45 H45        -1.5768    3.7405   -1.9429 H         1 GTP         0.2048
@<TRIPOS>BOND
     1    1    2 2
     2    1    3 1
     3    1    4 1
     4    1    5 1
     5    5    6 1
     6    6    7 2
     7    6    8 1
     8    6    9 1
     9    9   10 1
    10   10   11 2
    11   10   12 1
    12   10   13 1
    13   13   14 1
    14   14   15 1
    15   14   33 1
    16   14   34 1
    17   15   16 1
    18   15   17 1
    19   15   35 1
    20   16   21 1
    21   17   18 1
    22   17   19 1
    23   17   36 1
    24   18   37 1
    25   19   20 1
    26   19   21 1
    27   19   38 1
    28   20   39 1
    29   21   22 1
    30   21   40 1
    31   22   23 ar
    32   22   32 ar
    33   23   24 ar
    34   23   41 1
    35   24   25 ar
    36   24   45 1
    37   25   26 ar
    38   25   32 ar
    39   26   27 2
    40   26   28 ar
    41   28   29 ar
    42   28   42 1
    43   29   30 1
    44   29   31 ar
    45   30   43 1
    46   30   44 1
    47   31   32 ar
@<TRIPOS>SUBSTRUCTURE
     1 GTP         1 GROUP 0 A     ****
@<TRIPOS>MOLECULE
[[[5-(2-amino-6-oxo-7,8-dihydro-1~{H}-purin-8-ylium-9-yl)-3,4-dihydroxy-tetrahydrofuran-2-yl]methoxy-oxido-phosphoryl]oxy-oxido-phosphoryl] phosphate
   45    47     1     0     0
SMALL
USER_CHARGES

@<TRIPOS>ATOM
      1 PG         -1.7382   -9.1074   -2.6947 P.3       1 GTP        -1.1921
      2 O1G        -0.8735   -8.7889   -3.9098 O.co2     1 GTP         0.3195
      3 O2G        -1.3253  -10.3676   -1.9416 O.co2     1 GTP         0.3195
      4 O3G        -3.2380   -8.9913   -2.9457 O.co2     1 GTP         0.3195
      5 O3B        -1.4198   -7.8816   -1.6384 O.3       1 GTP         0.4672
      6 PB         -1.6277   -6.2698   -1.8060 P.3       1 GTP        -1.1062
      7 O1B        -0.6945   -5.7681   -2.8854 O.co2     1 GTP         0.3195
      8 O2B        -3.1082   -5.9619   -1.8340 O.co2     1 GTP         0.3195
      9 O3A        -1.0824   -5.7833   -0.3461 O.3       1 GTP         0.4672
     10 PA         -1.6222   -6.1552    1.1506 P.3       1 GTP        -1.1062
     11 O1A        -3.0065   -5.5671    1.3167 O.co2     1 GTP         0.3195
     12 O2A        -1.3577   -7.6202    1.4220 O.co2     1 GTP         0.3195
     13 O5'        -0.5687   -5.2869    2.0510 O.3       1 GTP         0.1618
     14 C5'        -0.7840   -3.8935    2.2172 C.3       1 GTP         0.1504
     15 C4'        -0.0724   -3.1466    1.1027 C.3       1 GTP         0.1111
     16 O4'        -0.8674   -3.1929   -0.0945 O.3       1 GTP        -0.1436
     17 C3'         0.1338   -1.6715    1.4027 C.3       1 GTP         0.1111
     18 O3'         1.2893   -1.4445    2.1808 O.3       1 GTP        -0.2728
     19 C2'         0.2158   -1.0724    0.0128 C.3       1 GTP         0.1111
     20 O2'         1.5141   -1.2448   -0.5513 O.3       1 GTP        -0.2728
     21 C1'        -0.7897   -1.9176   -0.7583 C.3       1 GTP         0.2693
     22 N9         -2.1040   -1.3333   -0.7704 N.pl3     1 GTP        -0.3222
     23 C8         -3.0597   -1.5109    0.1345 C.ar      1 GTP         0.1640
     24 N7         -4.1618   -0.8291   -0.1607 N.pl3     1 GTP        -0.3688
     25 C5         -3.8764   -0.1805   -1.3310 C.ar      1 GTP         0.0648
     26 C6         -4.7187    0.7111   -2.1152 C.ar      1 GTP         0.3597
     27 O6         -5.8617    1.0043   -1.7939 O.2       1 GTP        -0.2755
     28 N1         -4.0405    1.1608   -3.2468 N.pl3     1 GTP        -0.1604
     29 C2         -2.7239    0.8013   -3.5822 C.ar      1 GTP         0.4468
     30 N2         -2.2399    1.3534   -4.7394 N.pl3     1 GTP        -0.5618
     31 N3         -2.0053   -0.0071   -2.8402 N.2       1 GTP        -0.4283
     32 C4         -2.6290   -0.4727   -1.7210 C.ar      1 GTP         0.2226
     33 H5'        -1.8598   -3.6968    2.1850 H         1 GTP        -0.0393
     34 H5''       -0.3933   -3.5903    3.1931 H         1 GTP        -0.0393
     35 H4'         0.8874   -3.6466    0.8805 H         1 GTP        -0.0393
     36 H3'        -0.7376   -1.2333    1.9867 H         1 GTP        -0.0393
     37 HO3'        1.3408   -0.4870    2.3219 H         1 GTP         0.2010
     38 H2'        -0.0384   -0.0310    0.0096 H         1 GTP        -0.0393
     39 HO2'        2.1463   -0.7958    0.0370 H         1 GTP         0.2010
     40 H1'        -0.4769   -2.1002   -1.8093 H         1 GTP        -0.0393
     41 H8         -2.9610   -2.1316    1.0079 H         1 GTP         0.0000
     42 HN1        -4.5320    1.7923   -3.8726 H         1 GTP         0.0865
     43 HN21       -1.3128    1.1277   -5.0171 H         1 GTP         0.2048
     44 HN22       -2.8342    1.9586   -5.2572 H         1 GTP         0.2048
     45 H45        -5.0195   -0.8034    0.3729 H         1 GTP         0.2048
@<TRIPOS>BOND
     1    1    2 2
     2    1    3 1
     3    1    4 1
     4    1    5 1
     5    5    6 1
     6    6    7 2
     7    6    8 1
     8    6    9 1
     9    9   10 1
    10   10   11 2
    11   10   12 1
    12   10   13 1
    13   13   14 1
    14   14   15 1
    15   14   33 1
    16   14   34 1
    17   15   16 1
    18   15   17 1
    19   15   35 1
    20   16   21 1
    21   17   18 1
    22   17   19 1
    23   17   36 1
    24   18   37 1
    25   19   20 1
    26   19   21 1
    27   19   38 1
    28   20   39 1
    29   21   22 1
    30   21   40 1
    31   22   23 ar
    32   22   32 ar
    33   23   24 ar
    34   23   41 1
    35   24   25 ar
    36   24   45 1
    37   25   26 ar
    38   25   32 ar
    39   26   27 2
    40   26   28 ar
    41   28   29 ar
    42   28   42 1
    43   29   30 1
    44   29   31 ar
    45   30   43 1
    46   30   44 1
    47   31   32 ar
@<TRIPOS>SUBSTRUCTURE
     1 GTP         1 GROUP 0 A     ****
@<TRIPOS>MOLECULE
[[[5-(2-amino-6-oxo-7,8-dihydro-1~{H}-purin-8-ylium-9-yl)-3,4-dihydroxy-tetrahydrofuran-2-yl]methoxy-oxido-phosphoryl]oxy-oxido-phosphoryl] phosphate
   45    47     1     0     0
SMALL
USER_CHARGES

@<TRIPOS>ATOM
      1 PG          6.0523   -5.4925   -1.0734 P.3       1 GTP        -1.1921
      2 O1G         5.1684   -5.5464    0.1682 O.co2     1 GTP         0.3195
      3 O2G         5.7880   -6.6049   -2.0826 O.co2     1 GTP         0.3195
      4 O3G         7.5294   -5.2511   -0.7805 O.co2     1 GTP         0.3195
      5 O3B         5.5755   -4.1184   -1.8509 O.3       1 GTP         0.4672
      6 PB          5.5873   -2.5658   -1.3424 P.3       1 GTP        -1.1062
      7 O1B         4.6116   -2.4216   -0.1958 O.co2     1 GTP         0.3195
      8 O2B         7.0194   -2.0935   -1.2272 O.co2     1 GTP         0.3195
      9 O3A         4.9710   -1.8506   -2.6744 O.3       1 GTP         0.4672
     10 PA          3.5298   -2.0738   -3.4112 P.3       1 GTP        -1.1062
     11 O1A         3.3966   -1.0484   -4.5160 O.co2     1 GTP         0.3195
     12 O2A         3.3387   -3.5494   -3.6873 O.co2     1 GTP         0.3195
     13 O5'         2.5245   -1.6648   -2.1878 O.3       1 GTP         0.1618
     14 C5'         2.2816   -0.2918   -1.9206 C.3       1 GTP         0.1504
     15 C4'         2.7248    0.0226   -0.4980 C.3       1 GTP         0.1111
     16 O4'         2.4697    1.4219   -0.2462 O.3       1 GTP        -0.1436
     17 C3'         1.9404   -0.7419    0.5596 C.3       1 GTP         0.1111
     18 O3'         2.7418   -0.8086    1.7389 O.3       1 GTP        -0.2728
     19 C2'         0.7477    0.1630    0.7858 C.3       1 GTP         0.1111
     20 O2'         0.1373   -0.0577    2.0407 O.3       1 GTP        -0.2728
     21 C1'         1.3733    1.5427    0.6747 C.3       1 GTP         0.2693
     22 N9          0.4520    2.5240    0.1767 N.pl3     1 GTP        -0.3222
     23 C8         -0.2009    2.4849   -0.9792 C.ar      1 GTP         0.1640
     24 N7         -0.9840    3.5454   -1.1481 N.pl3     1 GTP        -0.3688
     25 C5         -0.8090    4.3005   -0.0206 C.ar      1 GTP         0.0648
     26 C6         -1.4206    5.5724    0.3362 C.ar      1 GTP         0.3597
     27 O6         -2.2199    6.1544   -0.3836 O.2       1 GTP        -0.2755
     28 N1         -0.9680    6.0043    1.5817 N.pl3     1 GTP        -0.1604
     29 C2         -0.0474    5.3055    2.3814 C.ar      1 GTP         0.4468
     30 N2          0.2680    5.9024    3.5740 N.pl3     1 GTP        -0.5618
     31 N3          0.4755    4.1601    2.0138 N.2       1 GTP        -0.4283
     32 C4          0.0611    3.6981    0.8001 C.ar      1 GTP         0.2226
     33 H5'         2.8432    0.3119   -2.6398 H         1 GTP        -0.0393
     34 H5''        1.2128   -0.0927   -2.0428 H         1 GTP        -0.0393
     35 H4'         3.8044   -0.1397   -0.4040 H         1 GTP        -0.0393
     36 H3'         1.6764   -1.7639    0.2728 H         1 GTP        -0.0393
     37 HO3'        2.2232   -1.2979    2.3953 H         1 GTP         0.2010
     38 H2'        -0.0011    0.0027    0.0003 H         1 GTP        -0.0393
     39 HO2'       -0.1563   -0.9855    2.0596 H         1 GTP         0.2010
     40 H1'         1.7826    1.9024    1.6451 H         1 GTP        -0.0393
     41 H8         -0.1126    1.6906   -1.6997 H         1 GTP         0.0000
     42 HN1        -1.3285    6.8855    1.9361 H         1 GTP         0.0865
     43 HN21        0.9153    5.4446    4.1732 H         1 GTP         0.2048
     44 HN22       -0.1624    6.7706    3.7948 H         1 GTP         0.2048
     45 H45        -1.5768    3.7405   -1.9429 H         1 GTP         0.2048
@<TRIPOS>BOND
     1    1    2 2
     2    1    3 1
     3    1    4 1
     4    1    5 1
     5    5    6 1
     6    6    7 2
     7    6    8 1
     8    6    9 1
     9    9   10 1
    10   10   11 2
    11   10   12 1
    12   10   13 1
    13   13   14 1
    14   14   15 1
    15   14   33 1
    16   14   34 1
    17   15   16 1
    18   15   17 1
    19   15   35 1
    20   16   21 1
    21   17   18 1
    22   17   19 1
    23   17   36 1
    24   18   37 1
    25   19   20 1
    26   19   21 1
    27   19   38 1
    28   20   39 1
    29   21   22 1
    30   21   40 1
    31   22   23 ar
    32   22   32 ar
    33   23   24 ar
    34   23   41 1
    35   24   25 ar
    36   24   45 1
    37   25   26 ar
    38   25   32 ar
    39   26   27 2
    40   26   28 ar
    41   28   29 ar
    42   28   42 1
    43   29   30 1
    44   29   31 ar
    45   30   43 1
    46   30   44 1
    47   31   32 ar
@<TRIPOS>SUBSTRUCTURE
     1 GTP         1 GROUP 0 A     ****
@<TRIPOS>MOLECULE
[[[5-(2-amino-6-oxo-7,8-dihydro-1~{H}-purin-8-ylium-9-yl)-3,4-dihydroxy-tetrahydrofuran-2-yl]methoxy-oxido-phosphoryl]oxy-oxido-phosphoryl] phosphate
   45    47     1     0     0
SMALL
USER_CHARGES

@<TRIPOS>ATOM
      1 PG          7.9346   -2.4021   -3.4022 P.3       1 GTP        -1.1921
      2 O1G         8.1338   -3.9056   -3.2421 O.co2     1 GTP         0.3195
      3 O2G         8.5745   -1.8126   -4.6546 O.co2     1 GTP         0.3195
      4 O3G         8.1890   -1.5979   -2.1315 O.co2     1 GTP         0.3195
      5 O3B         6.3140   -2.2330   -3.6572 O.3       1 GTP         0.4672
      6 PB          5.0518   -2.6567   -2.7105 P.3       1 GTP        -1.1062
      7 O1B         5.0165   -4.1641   -2.5919 O.co2     1 GTP         0.3195
      8 O2B         5.0286   -1.7660   -1.4884 O.co2     1 GTP         0.3195
      9 O3A         3.8279   -2.1576   -3.6689 O.3       1 GTP         0.4672
     10 PA          3.4850   -0.6647   -4.2376 P.3       1 GTP        -1.1062
     11 O1A         4.7151   -0.1278   -4.9364 O.co2     1 GTP         0.3195
     12 O2A         2.1420   -0.6972   -4.9342 O.co2     1 GTP         0.3195
     13 O5'         3.2903    0.1346   -2.8241 O.3       1 GTP         0.1618
     14 C5'         2.2816   -0.2918   -1.9206 C.3       1 GTP         0.1504
     15 C4'         2.7248    0.0226   -0.4980 C.3       1 GTP         0.1111
     16 O4'         2.4697    1.4219   -0.2462 O.3       1 GTP        -0.1436
     17 C3'         1.9404   -0.7419    0.5596 C.3       1 GTP         0.1111
     18 O3'         2.7418   -0.8086    1.7389 O.3       1 GTP        -0.2728
     19 C2'         0.7477    0.1630    0.7858 C.3       1 GTP         0.1111
     20 O2'         0.1373   -0.0577    2.0407 O.3       1 GTP        -0.2728
     21 C1'         1.3733    1.5427    0.6747 C.3       1 GTP         0.2693
     22 N9          0.4520    2.5240    0.1767 N.pl3     1 GTP        -0.3222
     23 C8         -0.2009    2.4849   -0.9792 C.ar      1 GTP         0.1640
     24 N7         -0.9840    3.5454   -1.1481 N.pl3     1 GTP        -0.3688
     25 C5         -0.8090    4.3005   -0.0206 C.ar      1 GTP         0.0648
     26 C6         -1.4206    5.5724    0.3362 C.ar      1 GTP         0.3597
     27 O6         -2.2199    6.1544   -0.3836 O.2       1 GTP        -0.2755
     28 N1         -0.9680    6.0043    1.5817 N.pl3     1 GTP        -0.1604
     29 C2         -0.0474    5.3055    2.3814 C.ar      1 GTP         0.4468
     30 N2          0.2680    5.9024    3.5740 N.pl3     1 GTP        -0.5618
     31 N3          0.4755    4.1601    2.0138 N.2       1 GTP        -0.4283
     32 C4          0.0611    3.6981    0.8001 C.ar      1 GTP         0.2226
     33 H5'         1.3514    0.2330   -2.1577 H         1 GTP        -0.0393
     34 H5''        2.1280   -1.3678   -2.0460 H         1 GTP        -0.0393
     35 H4'         3.8044   -0.1397   -0.4040 H         1 GTP        -0.0393
     36 H3'         1.6764   -1.7639    0.2728 H         1 GTP        -0.0393
     37 HO3'        2.2232   -1.2979    2.3953 H         1 GTP         0.2010
     38 H2'        -0.0011    0.0027    0.0003 H         1 GTP        -0.0393
     39 HO2'       -0.1563   -0.9855    2.0596 H         1 GTP         0.2010
     40 H1'         1.7826    1.9024    1.6451 H         1 GTP        -0.0393
     41 H8         -0.1126    1.6906   -1.6997 H         1 GTP         0.0000
     42 HN1        -1.3285    6.8855    1.9361 H         1 GTP         0.0865
     43 HN21        0.9153    5.4446    4.1732 H         1 GTP         0.2048
     44 HN22       -0.1624    6.7706    3.7948 H         1 GTP         0.2048
     45 H45        -1.5768    3.7405   -1.9429 H         1 GTP         0.2048
@<TRIPOS>BOND
     1    1    2 2
     2    1    3 1
     3    1    4 1
     4    1    5 1
     5    5    6 1
     6    6    7 2
     7    6    8 1
     8    6    9 1
     9    9   10 1
    10   10   11 2
    11   10   12 1
    12   10   13 1
    13   13   14 1
    14   14   15 1
    15   14   33 1
    16   14   34 1
    17   15   16 1
    18   15   17 1
    19   15   35 1
    20   16   21 1
    21   17   18 1
    22   17   19 1
    23   17   36 1
    24   18   37 1
    25   19   20 1
    26   19   21 1
    27   19   38 1
    28   20   39 1
    29   21   22 1
    30   21   40 1
    31   22   23 ar
    32   22   32 ar
    33   23   24 ar
    34   23   41 1
    35   24   25 ar
    36   24   45 1
    37   25   26 ar
    38   25   32 ar
    39   26   27 2
    40   26   28 ar
    41   28   29 ar
    42   28   42 1
    43   29   30 1
    44   29   31 ar
    45   30   43 1
    46   30   44 1
    47   31   32 ar
@<TRIPOS>SUBSTRUCTURE
     1 GTP         1 GROUP 0 A     ****
@<TRIPOS>MOLECULE
[[[5-(2-amino-6-oxo-7,8-dihydro-1~{H}-purin-8-ylium-9-yl)-3,4-dihydroxy-tetrahydrofuran-2-yl]methoxy-oxido-phosphoryl]oxy-oxido-phosphoryl] phosphate
   45    47     1     0     0
SMALL
USER_CHARGES

@<TRIPOS>ATOM
      1 PG         -0.1541   -3.7590    6.9800 P.3       1 GTP        -1.1921
      2 O1G        -1.4649   -3.0557    6.6437 O.co2     1 GTP         0.3195
      3 O2G         0.2042   -3.7466    8.4622 O.co2     1 GTP         0.3195
      4 O3G         1.0035   -3.4024    6.0532 O.co2     1 GTP         0.3195
      5 O3B        -0.4495   -5.3471    6.6477 O.3       1 GTP         0.4672
      6 PB         -0.8841   -6.0638    5.2454 P.3       1 GTP        -1.1062
      7 O1B        -0.8917   -7.5628    5.4465 O.co2     1 GTP         0.3195
      8 O2B        -2.0776   -5.3368    4.6670 O.co2     1 GTP         0.3195
      9 O3A         0.4004   -5.6443    4.3291 O.3       1 GTP         0.4672
     10 PA          0.7268   -5.9846    2.7648 P.3       1 GTP        -1.1062
     11 O1A         1.9729   -5.2260    2.3630 O.co2     1 GTP         0.3195
     12 O2A         0.6184   -7.4787    2.5505 O.co2     1 GTP         0.3195
     13 O5'        -0.5687   -5.2869    2.0510 O.3       1 GTP         0.1618
     14 C5'        -0.7840   -3.8935    2.2172 C.3       1 GTP         0.1504
     15 C4'        -0.0724   -3.1466    1.1027 C.3       1 GTP         0.1111
     16 O4'        -0.8674   -3.1929   -0.0945 O.3       1 GTP        -0.1436
     17 C3'         0.1338   -1.6715    1.4027 C.3       1 GTP         0.1111
     18 O3'         1.2893   -1.4445    2.1808 O.3       1 GTP        -0.2728
     19 C2'         0.2158   -1.0724    0.0128 C.3       1 GTP         0.1111
     20 O2'         1.5141   -1.2448   -0.5513 O.3       1 GTP        -0.2728
     21 C1'        -0.7897   -1.9176   -0.7583 C.3       1 GTP         0.2693
     22 N9         -2.1040   -1.3333   -0.7704 N.pl3     1 GTP        -0.3222
     23 C8         -3.0597   -1.5109    0.1345 C.ar      1 GTP         0.1640
     24 N7         -4.1618   -0.8291   -0.1607 N.pl3     1 GTP        -0.3688
     25 C5         -3.8764   -0.1805   -1.3310 C.ar      1 GTP         0.0648
     26 C6         -4.7187    0.7111   -2.1152 C.ar      1 GTP         0.3597
     27 O6         -5.8617    1.0043   -1.7939 O.2       1 GTP        -0.2755
     28 N1         -4.0405    1.1608   -3.2468 N.pl3     1 GTP        -0.1604
     29 C2         -2.7239    0.8013   -3.5822 C.ar      1 GTP         0.4468
     30 N2         -2.2399    1.3534   -4.7394 N.pl3     1 GTP        -0.5618
     31 N3         -2.0053   -0.0071   -2.8402 N.2       1 GTP        -0.4283
     32 C4         -2.6290   -0.4727   -1.7210 C.ar      1 GTP         0.2226
     33 H5'        -1.8598   -3.6968    2.1850 H         1 GTP        -0.0393
     34 H5''       -0.3933   -3.5903    3.1931 H         1 GTP        -0.0393
     35 H4'         0.8874   -3.6466    0.8805 H         1 GTP        -0.0393
     36 H3'        -0.7376   -1.2333    1.9867 H         1 GTP        -0.0393
     37 HO3'        1.1626   -1.9325    3.0084 H         1 GTP         0.2010
     38 H2'        -0.0384   -0.0310    0.0096 H         1 GTP        -0.0393
     39 HO2'        1.4998   -0.8412   -1.4369 H         1 GTP         0.2010
     40 H1'        -0.4769   -2.1002   -1.8093 H         1 GTP        -0.0393
     41 H8         -2.9610   -2.1316    1.0079 H         1 GTP         0.0000
     42 HN1        -4.5320    1.7923   -3.8726 H         1 GTP         0.0865
     43 HN21       -1.3128    1.1277   -5.0171 H         1 GTP         0.2048
     44 HN22       -2.8342    1.9586   -5.2572 H         1 GTP         0.2048
     45 H45        -5.0195   -0.8034    0.3729 H         1 GTP         0.2048
@<TRIPOS>BOND
     1    1    2 2
     2    1    3 1
     3    1    4 1
     4    1    5 1
     5    5    6 1
     6    6    7 2
     7    6    8 1
     8    6    9 1
     9    9   10 1
    10   10   11 2
    11   10   12 1
    12   10   13 1
    13   13   14 1
    14   14   15 1
    15   14   33 1
    16   14   34 1
    17   15   16 1
    18   15   17 1
    19   15   35 1
    20   16   21 1
    21   17   18 1
    22   17   19 1
    23   17   36 1
    24   18   37 1
    25   19   20 1
    26   19   21 1
    27   19   38 1
    28   20   39 1
    29   21   22 1
    30   21   40 1
    31   22   23 ar
    32   22   32 ar
    33   23   24 ar
    34   23   41 1
    35   24   25 ar
    36   24   45 1
    37   25   26 ar
    38   25   32 ar
    39   26   27 2
    40   26   28 ar
    41   28   29 ar
    42   28   42 1
    43   29   30 1
    44   29   31 ar
    45   30   43 1
    46   30   44 1
    47   31   32 ar
@<TRIPOS>SUBSTRUCTURE
     1 GTP         1 GROUP 0 A     ****
@<TRIPOS>MOLECULE
[[[5-(2-amino-6-oxo-7,8-dihydro-1~{H}-purin-8-ylium-9-yl)-3,4-dihydroxy-tetrahydrofuran-2-yl]methoxy-oxido-phosphoryl]oxy-oxido-phosphoryl] phosphate
   45    47     1     0     0
SMALL
USER_CHARGES

@<TRIPOS>ATOM
      1 PG         -2.1143   -5.0237   -1.5812 P.3       1 GTP        -1.1921
      2 O1G        -2.4763   -5.1881   -0.1089 O.co2     1 GTP         0.3195
      3 O2G        -3.0391   -4.0910   -2.3560 O.co2     1 GTP         0.3195
      4 O3G        -1.8008   -6.3325   -2.2988 O.co2     1 GTP         0.3195
      5 O3B        -0.6678   -4.2319   -1.5569 O.3       1 GTP         0.4672
      6 PB          0.7581   -4.6693   -0.8903 P.3       1 GTP        -1.1062
      7 O1B         0.5995   -4.7137    0.6132 O.co2     1 GTP         0.3195
      8 O2B         1.3266   -5.8399   -1.6610 O.co2     1 GTP         0.3195
      9 O3A         1.6504   -3.3665   -1.3049 O.3       1 GTP         0.4672
     10 PA          2.0071   -2.7689   -2.7832 P.3       1 GTP        -1.1062
     11 O1A         2.8830   -3.7714   -3.5027 O.co2     1 GTP         0.3195
     12 O2A         0.7417   -2.2375   -3.4206 O.co2     1 GTP         0.3195
     13 O5'         2.9216   -1.4836   -2.3516 O.3       1 GTP         0.1618
     14 C5'         2.2816   -0.2918   -1.9206 C.3       1 GTP         0.1504
     15 C4'         2.7248    0.0226   -0.4980 C.3       1 GTP         0.1111
     16 O4'         2.4697    1.4219   -0.2462 O.3       1 GTP        -0.1436
     17 C3'         1.9404   -0.7419    0.5596 C.3       1 GTP         0.1111
     18 O3'         2.7418   -0.8086    1.7389 O.3       1 GTP        -0.2728
     19 C2'         0.7477    0.1630    0.7858 C.3       1 GTP         0.1111
     20 O2'         0.1373   -0.0577    2.0407 O.3       1 GTP        -0.2728
     21 C1'         1.3733    1.5427    0.6747 C.3       1 GTP         0.2693
     22 N9          0.4520    2.5240    0.1767 N.pl3     1 GTP        -0.3222
     23 C8          0.2203    2.8205   -1.0970 C.ar      1 GTP         0.1640
     24 N7         -0.6947    3.7752   -1.2304 N.pl3     1 GTP        -0.3688
     25 C5         -1.0607    4.0987    0.0476 C.ar      1 GTP         0.0648
     26 C6         -2.0310    5.0839    0.5029 C.ar      1 GTP         0.3597
     27 O6         -2.6779    5.7867   -0.2609 O.2       1 GTP        -0.2755
     28 N1         -2.1030    5.0975    1.8948 N.pl3     1 GTP        -0.1604
     29 C2         -1.3422    4.2721    2.7403 C.ar      1 GTP         0.4468
     30 N2         -1.5624    4.4419    4.0823 N.pl3     1 GTP        -0.5618
     31 N3         -0.4796    3.3981    2.2792 N.2       1 GTP        -0.4283
     32 C4         -0.3754    3.3496    0.9208 C.ar      1 GTP         0.2226
     33 H5'         2.5589    0.5217   -2.5976 H         1 GTP        -0.0393
     34 H5''        1.1982   -0.4388   -1.9617 H         1 GTP        -0.0393
     35 H4'         3.8044   -0.1397   -0.4040 H         1 GTP        -0.0393
     36 H3'         1.6764   -1.7639    0.2728 H         1 GTP        -0.0393
     37 HO3'        2.2232   -1.2979    2.3953 H         1 GTP         0.2010
     38 H2'        -0.0011    0.0027    0.0003 H         1 GTP        -0.0393
     39 HO2'       -0.6141    0.5574    2.1082 H         1 GTP         0.2010
     40 H1'         1.7826    1.9024    1.6451 H         1 GTP        -0.0393
     41 H8          0.7110    2.3472   -1.9295 H         1 GTP         0.0000
     42 HN1        -2.7504    5.7495    2.3282 H         1 GTP         0.0865
     43 HN21       -1.0467    3.8796    4.7190 H         1 GTP         0.2048
     44 HN22       -2.2294    5.1209    4.3680 H         1 GTP         0.2048
     45 H45        -1.0382    4.1687   -2.0954 H         1 GTP         0.2048
@<TRIPOS>BOND
     1    1    2 2
     2    1    3 1
     3    1    4 1
     4    1    5 1
     5    5    6 1
     6    6    7 2
     7    6    8 1
     8    6    9 1
     9    9   10 1
    10   10   11 2
    11   10   12 1
    12   10   13 1
    13   13   14 1
    14   14   15 1
    15   14   33 1
    16   14   34 1
    17   15   16 1
    18   15   17 1
    19   15   35 1
    20   16   21 1
    21   17   18 1
    22   17   19 1
    23   17   36 1
    24   18   37 1
    25   19   20 1
    26   19   21 1
    27   19   38 1
    28   20   39 1
    29   21   22 1
    30   21   40 1
    31   22   23 ar
    32   22   32 ar
    33   23   24 ar
    34   23   41 1
    35   24   25 ar
    36   24   45 1
    37   25   26 ar
    38   25   32 ar
    39   26   27 2
    40   26   28 ar
    41   28   29 ar
    42   28   42 1
    43   29   30 1
    44   29   31 ar
    45   30   43 1
    46   30   44 1
    47   31   32 ar
@<TRIPOS>SUBSTRUCTURE
     1 GTP         1 GROUP 0 A     ****
@<TRIPOS>MOLECULE
[[[5-(2-amino-6-oxo-7,8-dihydro-1~{H}-purin-8-ylium-9-yl)-3,4-dihydroxy-tetrahydrofuran-2-yl]methoxy-oxido-phosphoryl]oxy-oxido-phosphoryl] phosphate
   45    47     1     0     0
SMALL
USER_CHARGES

@<TRIPOS>ATOM
      1 PG          5.9268    2.5386   -4.3335 P.3       1 GTP        -1.1921
      2 O1G         4.6708    2.6598   -3.4771 O.co2     1 GTP         0.3195
      3 O2G         7.2311    2.7397   -3.5693 O.co2     1 GTP         0.3195
      4 O3G         5.8557    3.2897   -5.6590 O.co2     1 GTP         0.3195
      5 O3B         5.9601    0.9518   -4.7815 O.3       1 GTP         0.4672
      6 PB          4.8710    0.0760   -5.6276 P.3       1 GTP        -1.1062
      7 O1B         4.0529    1.0145   -6.4862 O.co2     1 GTP         0.3195
      8 O2B         5.5591   -1.1363   -6.2143 O.co2     1 GTP         0.3195
      9 O3A         3.9551   -0.4669   -4.3900 O.3       1 GTP         0.4672
     10 PA          4.3707   -1.3841   -3.1032 P.3       1 GTP        -1.1062
     11 O1A         4.7562   -2.7590   -3.6037 O.co2     1 GTP         0.3195
     12 O2A         5.2972   -0.5899   -2.2083 O.co2     1 GTP         0.3195
     13 O5'         2.9216   -1.4836   -2.3516 O.3       1 GTP         0.1618
     14 C5'         2.2816   -0.2918   -1.9206 C.3       1 GTP         0.1504
     15 C4'         2.7248    0.0226   -0.4980 C.3       1 GTP         0.1111
     16 O4'         2.4697    1.4219   -0.2462 O.3       1 GTP        -0.1436
     17 C3'         1.9404   -0.7419    0.5596 C.3       1 GTP         0.1111
     18 O3'         2.7418   -0.8086    1.7389 O.3       1 GTP        -0.2728
     19 C2'         0.7477    0.1630    0.7858 C.3       1 GTP         0.1111
     20 O2'         0.1373   -0.0577    2.0407 O.3       1 GTP        -0.2728
     21 C1'         1.3733    1.5427    0.6747 C.3       1 GTP         0.2693
     22 N9          0.4520    2.5240    0.1767 N.pl3     1 GTP        -0.3222
     23 C8         -0.2009    2.4849   -0.9792 C.ar      1 GTP         0.1640
     24 N7         -0.9840    3.5454   -1.1481 N.pl3     1 GTP        -0.3688
     25 C5         -0.8090    4.3005   -0.0206 C.ar      1 GTP         0.0648
     26 C6         -1.4206    5.5724    0.3362 C.ar      1 GTP         0.3597
     27 O6         -2.2199    6.1544   -0.3836 O.2       1 GTP        -0.2755
     28 N1         -0.9680    6.0043    1.5817 N.pl3     1 GTP        -0.1604
     29 C2         -0.0474    5.3055    2.3814 C.ar      1 GTP         0.4468
     30 N2          0.2680    5.9024    3.5740 N.pl3     1 GTP        -0.5618
     31 N3          0.4755    4.1601    2.0138 N.2       1 GTP        -0.4283
     32 C4          0.0611    3.6981    0.8001 C.ar      1 GTP         0.2226
     33 H5'         2.5589    0.5217   -2.5976 H         1 GTP        -0.0393
     34 H5''        1.1982   -0.4388   -1.9617 H         1 GTP        -0.0393
     35 H4'         3.8044   -0.1397   -0.4040 H         1 GTP        -0.0393
     36 H3'         1.6764   -1.7639    0.2728 H         1 GTP        -0.0393
     37 HO3'        3.5554   -1.2733    1.4914 H         1 GTP         0.2010
     38 H2'        -0.0011    0.0027    0.0003 H         1 GTP        -0.0393
     39 HO2'       -0.6141    0.5574    2.1082 H         1 GTP         0.2010
     40 H1'         1.7826    1.9024    1.6451 H         1 GTP        -0.0393
     41 H8         -0.1126    1.6906   -1.6997 H         1 GTP         0.0000
     42 HN1        -1.3285    6.8855    1.9361 H         1 GTP         0.0865
     43 HN21        0.9153    5.4446    4.1732 H         1 GTP         0.2048
     44 HN22       -0.1624    6.7706    3.7948 H         1 GTP         0.2048
     45 H45        -1.5768    3.7405   -1.9429 H         1 GTP         0.2048
@<TRIPOS>BOND
     1    1    2 2
     2    1    3 1
     3    1    4 1
     4    1    5 1
     5    5    6 1
     6    6    7 2
     7    6    8 1
     8    6    9 1
     9    9   10 1
    10   10   11 2
    11   10   12 1
    12   10   13 1
    13   13   14 1
    14   14   15 1
    15   14   33 1
    16   14   34 1
    17   15   16 1
    18   15   17 1
    19   15   35 1
    20   16   21 1
    21   17   18 1
    22   17   19 1
    23   17   36 1
    24   18   37 1
    25   19   20 1
    26   19   21 1
    27   19   38 1
    28   20   39 1
    29   21   22 1
    30   21   40 1
    31   22   23 ar
    32   22   32 ar
    33   23   24 ar
    34   23   41 1
    35   24   25 ar
    36   24   45 1
    37   25   26 ar
    38   25   32 ar
    39   26   27 2
    40   26   28 ar
    41   28   29 ar
    42   28   42 1
    43   29   30 1
    44   29   31 ar
    45   30   43 1
    46   30   44 1
    47   31   32 ar
@<TRIPOS>SUBSTRUCTURE
     1 GTP         1 GROUP 0 A     ****
@<TRIPOS>MOLECULE
[[[5-(2-amino-6-oxo-7,8-dihydro-1~{H}-purin-8-ylium-9-yl)-3,4-dihydroxy-tetrahydrofuran-2-yl]methoxy-oxido-phosphoryl]oxy-oxido-phosphoryl] phosphate
   45    47     1     0     0
SMALL
USER_CHARGES

@<TRIPOS>ATOM
      1 PG          6.7438   -1.9744    1.0822 P.3       1 GTP        -1.1921
      2 O1G         7.5561   -3.2234    0.7567 O.co2     1 GTP         0.3195
      3 O2G         7.1613   -1.2701    2.3688 O.co2     1 GTP         0.3195
      4 O3G         5.2369   -2.1488    0.9246 O.co2     1 GTP         0.3195
      5 O3B         7.1436   -0.9086   -0.1112 O.3       1 GTP         0.4672
      6 PB          6.9681   -1.0307   -1.7308 P.3       1 GTP        -1.1062
      7 O1B         7.3664    0.2837   -2.3643 O.co2     1 GTP         0.3195
      8 O2B         7.5577   -2.3438   -2.1951 O.co2     1 GTP         0.3195
      9 O3A         5.3461   -1.2010   -1.8052 O.3       1 GTP         0.4672
     10 PA          4.3707   -1.3841   -3.1032 P.3       1 GTP        -1.1062
     11 O1A         4.4132   -0.1072   -3.9140 O.co2     1 GTP         0.3195
     12 O2A         4.6473   -2.7266   -3.7444 O.co2     1 GTP         0.3195
     13 O5'         2.9216   -1.4836   -2.3516 O.3       1 GTP         0.1618
     14 C5'         2.2816   -0.2918   -1.9206 C.3       1 GTP         0.1504
     15 C4'         2.7248    0.0226   -0.4980 C.3       1 GTP         0.1111
     16 O4'         2.4697    1.4219   -0.2462 O.3       1 GTP        -0.1436
     17 C3'         1.9404   -0.7419    0.5596 C.3       1 GTP         0.1111
     18 O3'         2.7418   -0.8086    1.7389 O.3       1 GTP        -0.2728
     19 C2'         0.7477    0.1630    0.7858 C.3       1 GTP         0.1111
     20 O2'         0.1373   -0.0577    2.0407 O.3       1 GTP        -0.2728
     21 C1'         1.3733    1.5427    0.6747 C.3       1 GTP         0.2693
     22 N9          0.4520    2.5240    0.1767 N.pl3     1 GTP        -0.3222
     23 C8         -0.2009    2.4849   -0.9792 C.ar      1 GTP         0.1640
     24 N7         -0.9840    3.5454   -1.1481 N.pl3     1 GTP        -0.3688
     25 C5         -0.8090    4.3005   -0.0206 C.ar      1 GTP         0.0648
     26 C6         -1.4206    5.5724    0.3362 C.ar      1 GTP         0.3597
     27 O6         -2.2199    6.1544   -0.3836 O.2       1 GTP        -0.2755
     28 N1         -0.9680    6.0043    1.5817 N.pl3     1 GTP        -0.1604
     29 C2         -0.0474    5.3055    2.3814 C.ar      1 GTP         0.4468
     30 N2          0.2680    5.9024    3.5740 N.pl3     1 GTP        -0.5618
     31 N3          0.4755    4.1601    2.0138 N.2       1 GTP        -0.4283
     32 C4          0.0611    3.6981    0.8001 C.ar      1 GTP         0.2226
     33 H5'         2.5589    0.5217   -2.5976 H         1 GTP        -0.0393
     34 H5''        1.1982   -0.4388   -1.9617 H         1 GTP        -0.0393
     35 H4'         3.8044   -0.1397   -0.4040 H         1 GTP        -0.0393
     36 H3'         1.6764   -1.7639    0.2728 H         1 GTP        -0.0393
     37 HO3'        2.2232   -1.2979    2.3953 H         1 GTP         0.2010
     38 H2'        -0.0011    0.0027    0.0003 H         1 GTP        -0.0393
     39 HO2'       -0.6141    0.5574    2.1082 H         1 GTP         0.2010
     40 H1'         1.7826    1.9024    1.6451 H         1 GTP        -0.0393
     41 H8         -0.1126    1.6906   -1.6997 H         1 GTP         0.0000
     42 HN1        -1.3285    6.8855    1.9361 H         1 GTP         0.0865
     43 HN21        0.9153    5.4446    4.1732 H         1 GTP         0.2048
     44 HN22       -0.1624    6.7706    3.7948 H         1 GTP         0.2048
     45 H45        -1.5768    3.7405   -1.9429 H         1 GTP         0.2048
@<TRIPOS>BOND
     1    1    2 2
     2    1    3 1
     3    1    4 1
     4    1    5 1
     5    5    6 1
     6    6    7 2
     7    6    8 1
     8    6    9 1
     9    9   10 1
    10   10   11 2
    11   10   12 1
    12   10   13 1
    13   13   14 1
    14   14   15 1
    15   14   33 1
    16   14   34 1
    17   15   16 1
    18   15   17 1
    19   15   35 1
    20   16   21 1
    21   17   18 1
    22   17   19 1
    23   17   36 1
    24   18   37 1
    25   19   20 1
    26   19   21 1
    27   19   38 1
    28   20   39 1
    29   21   22 1
    30   21   40 1
    31   22   23 ar
    32   22   32 ar
    33   23   24 ar
    34   23   41 1
    35   24   25 ar
    36   24   45 1
    37   25   26 ar
    38   25   32 ar
    39   26   27 2
    40   26   28 ar
    41   28   29 ar
    42   28   42 1
    43   29   30 1
    44   29   31 ar
    45   30   43 1
    46   30   44 1
    47   31   32 ar
@<TRIPOS>SUBSTRUCTURE
     1 GTP         1 GROUP 0 A     ****
@<TRIPOS>MOLECULE
[[[5-(2-amino-6-oxo-7,8-dihydro-1~{H}-purin-8-ylium-9-yl)-3,4-dihydroxy-tetrahydrofuran-2-yl]methoxy-oxido-phosphoryl]oxy-oxido-phosphoryl] phosphate
   45    47     1     0     0
SMALL
USER_CHARGES

@<TRIPOS>ATOM
      1 PG          1.3751   -7.4585   -1.7232 P.3       1 GTP        -1.1921
      2 O1G        -0.0015   -7.6006   -2.3640 O.co2     1 GTP         0.3195
      3 O2G         2.5250   -7.9734   -2.5824 O.co2     1 GTP         0.3195
      4 O3G         1.4359   -7.9017   -0.2652 O.co2     1 GTP         0.3195
      5 O3B         1.6217   -5.8295   -1.6500 O.3       1 GTP         0.4672
      6 PB          0.7581   -4.6693   -0.8903 P.3       1 GTP        -1.1062
      7 O1B        -0.6050   -4.5738   -1.5386 O.co2     1 GTP         0.3195
      8 O2B         0.9135   -4.8357    0.6049 O.co2     1 GTP         0.3195
      9 O3A         1.6504   -3.3665   -1.3049 O.3       1 GTP         0.4672
     10 PA          2.0071   -2.7689   -2.7832 P.3       1 GTP        -1.1062
     11 O1A         2.8830   -3.7714   -3.5027 O.co2     1 GTP         0.3195
     12 O2A         0.7417   -2.2375   -3.4206 O.co2     1 GTP         0.3195
     13 O5'         2.9216   -1.4836   -2.3516 O.3       1 GTP         0.1618
     14 C5'         2.2816   -0.2918   -1.9206 C.3       1 GTP         0.1504
     15 C4'         2.7248    0.0226   -0.4980 C.3       1 GTP         0.1111
     16 O4'         2.4697    1.4219   -0.2462 O.3       1 GTP        -0.1436
     17 C3'         1.9404   -0.7419    0.5596 C.3       1 GTP         0.1111
     18 O3'         2.7418   -0.8086    1.7389 O.3       1 GTP        -0.2728
     19 C2'         0.7477    0.1630    0.7858 C.3       1 GTP         0.1111
     20 O2'         0.1373   -0.0577    2.0407 O.3       1 GTP        -0.2728
     21 C1'         1.3733    1.5427    0.6747 C.3       1 GTP         0.2693
     22 N9          0.4520    2.5240    0.1767 N.pl3     1 GTP        -0.3222
     23 C8          0.2203    2.8205   -1.0970 C.ar      1 GTP         0.1640
     24 N7         -0.6947    3.7752   -1.2304 N.pl3     1 GTP        -0.3688
     25 C5         -1.0607    4.0987    0.0476 C.ar      1 GTP         0.0648
     26 C6         -2.0310    5.0839    0.5029 C.ar      1 GTP         0.3597
     27 O6         -2.6779    5.7867   -0.2609 O.2       1 GTP        -0.2755
     28 N1         -2.1030    5.0975    1.8948 N.pl3     1 GTP        -0.1604
     29 C2         -1.3422    4.2721    2.7403 C.ar      1 GTP         0.4468
     30 N2         -1.5624    4.4419    4.0823 N.pl3     1 GTP        -0.5618
     31 N3         -0.4796    3.3981    2.2792 N.2       1 GTP        -0.4283
     32 C4         -0.3754    3.3496    0.9208 C.ar      1 GTP         0.2226
     33 H5'         2.5589    0.5217   -2.5976 H         1 GTP        -0.0393
     34 H5''        1.1982   -0.4388   -1.9617 H         1 GTP        -0.0393
     35 H4'         3.8044   -0.1397   -0.4040 H         1 GTP        -0.0393
     36 H3'         1.6764   -1.7639    0.2728 H         1 GTP        -0.0393
     37 HO3'        2.2232   -1.2979    2.3953 H         1 GTP         0.2010
     38 H2'        -0.0011    0.0027    0.0003 H         1 GTP        -0.0393
     39 HO2'       -0.6141    0.5574    2.1082 H         1 GTP         0.2010
     40 H1'         1.7826    1.9024    1.6451 H         1 GTP        -0.0393
     41 H8          0.7110    2.3472   -1.9295 H         1 GTP         0.0000
     42 HN1        -2.7504    5.7495    2.3282 H         1 GTP         0.0865
     43 HN21       -1.0467    3.8796    4.7190 H         1 GTP         0.2048
     44 HN22       -2.2294    5.1209    4.3680 H         1 GTP         0.2048
     45 H45        -1.0382    4.1687   -2.0954 H         1 GTP         0.2048
@<TRIPOS>BOND
     1    1    2 2
     2    1    3 1
     3    1    4 1
     4    1    5 1
     5    5    6 1
     6    6    7 2
     7    6    8 1
     8    6    9 1
     9    9   10 1
    10   10   11 2
    11   10   12 1
    12   10   13 1
    13   13   14 1
    14   14   15 1
    15   14   33 1
    16   14   34 1
    17   15   16 1
    18   15   17 1
    19   15   35 1
    20   16   21 1
    21   17   18 1
    22   17   19 1
    23   17   36 1
    24   18   37 1
    25   19   20 1
    26   19   21 1
    27   19   38 1
    28   20   39 1
    29   21   22 1
    30   21   40 1
    31   22   23 ar
    32   22   32 ar
    33   23   24 ar
    34   23   41 1
    35   24   25 ar
    36   24   45 1
    37   25   26 ar
    38   25   32 ar
    39   26   27 2
    40   26   28 ar
    41   28   29 ar
    42   28   42 1
    43   29   30 1
    44   29   31 ar
    45   30   43 1
    46   30   44 1
    47   31   32 ar
@<TRIPOS>SUBSTRUCTURE
     1 GTP         1 GROUP 0 A     ****
@<TRIPOS>MOLECULE
[[[5-(2-amino-6-oxo-7,8-dihydro-1~{H}-purin-8-ylium-9-yl)-3,4-dihydroxy-tetrahydrofuran-2-yl]methoxy-oxido-phosphoryl]oxy-oxido-phosphoryl] phosphate
   45    47     1     0     0
SMALL
USER_CHARGES

@<TRIPOS>ATOM
      1 PG         -2.2187   -0.1469   -3.6015 P.3       1 GTP        -1.1921
      2 O1G        -1.0633    0.3110   -4.4853 O.co2     1 GTP         0.3195
      3 O2G        -3.5821   -0.1195   -4.2842 O.co2     1 GTP         0.3195
      4 O3G        -2.2090    0.4512   -2.1985 O.co2     1 GTP         0.3195
      5 O3B        -1.9245   -1.7497   -3.3481 O.3       1 GTP         0.4672
      6 PB         -0.6397   -2.4857   -2.6576 P.3       1 GTP        -1.1062
      7 O1B        -0.4184   -1.8918   -1.2844 O.co2     1 GTP         0.3195
      8 O2B        -0.7545   -3.9794   -2.8647 O.co2     1 GTP         0.3195
      9 O3A         0.5322   -1.9680   -3.6696 O.3       1 GTP         0.4672
     10 PA          2.1375   -2.2725   -3.6560 P.3       1 GTP        -1.1062
     11 O1A         2.3368   -3.7723   -3.6314 O.co2     1 GTP         0.3195
     12 O2A         2.8132   -1.4113   -4.7009 O.co2     1 GTP         0.3195
     13 O5'         2.5245   -1.6648   -2.1878 O.3       1 GTP         0.1618
     14 C5'         2.2816   -0.2918   -1.9206 C.3       1 GTP         0.1504
     15 C4'         2.7248    0.0226   -0.4980 C.3       1 GTP         0.1111
     16 O4'         2.4697    1.4219   -0.2462 O.3       1 GTP        -0.1436
     17 C3'         1.9404   -0.7419    0.5596 C.3       1 GTP         0.1111
     18 O3'         2.7418   -0.8086    1.7389 O.3       1 GTP        -0.2728
     19 C2'         0.7477    0.1630    0.7858 C.3       1 GTP         0.1111
     20 O2'         0.1373   -0.0577    2.0407 O.3       1 GTP        -0.2728
     21 C1'         1.3733    1.5427    0.6747 C.3       1 GTP         0.2693
     22 N9          0.4520    2.5240    0.1767 N.pl3     1 GTP        -0.3222
     23 C8         -0.3350    3.3125    0.8998 C.ar      1 GTP         0.1640
     24 N7         -1.0716    4.1171    0.1405 N.pl3     1 GTP        -0.3688
     25 C5         -0.7219    3.8110   -1.1464 C.ar      1 GTP         0.0648
     26 C6         -1.2133    4.3827   -2.3917 C.ar      1 GTP         0.3597
     27 O6         -2.0567    5.2674   -2.4335 O.2       1 GTP        -0.2755
     28 N1         -0.5926    3.7846   -3.4870 N.pl3     1 GTP        -0.1604
     29 C2          0.3749    2.7691   -3.3983 C.ar      1 GTP         0.4468
     30 N2          0.8624    2.3146   -4.5959 N.pl3     1 GTP        -0.5618
     31 N3          0.7851    2.2875   -2.2493 N.2       1 GTP        -0.4283
     32 C4          0.2042    2.8436   -1.1486 C.ar      1 GTP         0.2226
     33 H5'         2.8432    0.3119   -2.6398 H         1 GTP        -0.0393
     34 H5''        1.2128   -0.0927   -2.0428 H         1 GTP        -0.0393
     35 H4'         3.8044   -0.1397   -0.4040 H         1 GTP        -0.0393
     36 H3'         1.6764   -1.7639    0.2728 H         1 GTP        -0.0393
     37 HO3'        2.2232   -1.2979    2.3953 H         1 GTP         0.2010
     38 H2'        -0.0011    0.0027    0.0003 H         1 GTP        -0.0393
     39 HO2'       -0.6141    0.5574    2.1082 H         1 GTP         0.2010
     40 H1'         1.7826    1.9024    1.6451 H         1 GTP        -0.0393
     41 H8         -0.3766    3.3075    1.9750 H         1 GTP         0.0000
     42 HN1        -0.8580    4.1049   -4.4138 H         1 GTP         0.0865
     43 HN21        1.5490    1.5963   -4.5827 H         1 GTP         0.2048
     44 HN22        0.5109    2.7205   -5.4321 H         1 GTP         0.2048
     45 H45        -1.7420    4.8034    0.4575 H         1 GTP         0.2048
@<TRIPOS>BOND
     1    1    2 2
     2    1    3 1
     3    1    4 1
     4    1    5 1
     5    5    6 1
     6    6    7 2
     7    6    8 1
     8    6    9 1
     9    9   10 1
    10   10   11 2
    11   10   12 1
    12   10   13 1
    13   13   14 1
    14   14   15 1
    15   14   33 1
    16   14   34 1
    17   15   16 1
    18   15   17 1
    19   15   35 1
    20   16   21 1
    21   17   18 1
    22   17   19 1
    23   17   36 1
    24   18   37 1
    25   19   20 1
    26   19   21 1
    27   19   38 1
    28   20   39 1
    29   21   22 1
    30   21   40 1
    31   22   23 ar
    32   22   32 ar
    33   23   24 ar
    34   23   41 1
    35   24   25 ar
    36   24   45 1
    37   25   26 ar
    38   25   32 ar
    39   26   27 2
    40   26   28 ar
    41   28   29 ar
    42   28   42 1
    43   29   30 1
    44   29   31 ar
    45   30   43 1
    46   30   44 1
    47   31   32 ar
@<TRIPOS>SUBSTRUCTURE
     1 GTP         1 GROUP 0 A     ****
@<TRIPOS>MOLECULE
[[[5-(2-amino-6-oxo-7,8-dihydro-1~{H}-purin-8-ylium-9-yl)-3,4-dihydroxy-tetrahydrofuran-2-yl]methoxy-oxido-phosphoryl]oxy-oxido-phosphoryl] phosphate
   45    47     1     0     0
SMALL
USER_CHARGES

@<TRIPOS>ATOM
      1 PG         -1.3203   -5.3465   -2.2036 P.3       1 GTP        -1.1921
      2 O1G        -2.7669   -5.0961   -2.6167 O.co2     1 GTP         0.3195
      3 O2G        -0.6964   -6.5932   -2.8219 O.co2     1 GTP         0.3195
      4 O3G        -1.0603   -5.1919   -0.7088 O.co2     1 GTP         0.3195
      5 O3B        -0.4837   -4.0966   -2.8801 O.3       1 GTP         0.4672
      6 PB         -0.6397   -2.4857   -2.6576 P.3       1 GTP        -1.1062
      7 O1B        -1.9889   -2.0499   -3.1841 O.co2     1 GTP         0.3195
      8 O2B        -0.1841   -2.1326   -1.2594 O.co2     1 GTP         0.3195
      9 O3A         0.5322   -1.9680   -3.6696 O.3       1 GTP         0.4672
     10 PA          2.1375   -2.2725   -3.6560 P.3       1 GTP        -1.1062
     11 O1A         2.3368   -3.7723   -3.6314 O.co2     1 GTP         0.3195
     12 O2A         2.8132   -1.4113   -4.7009 O.co2     1 GTP         0.3195
     13 O5'         2.5245   -1.6648   -2.1878 O.3       1 GTP         0.1618
     14 C5'         2.2816   -0.2918   -1.9206 C.3       1 GTP         0.1504
     15 C4'         2.7248    0.0226   -0.4980 C.3       1 GTP         0.1111
     16 O4'         2.4697    1.4219   -0.2462 O.3       1 GTP        -0.1436
     17 C3'         1.9404   -0.7419    0.5596 C.3       1 GTP         0.1111
     18 O3'         2.7418   -0.8086    1.7389 O.3       1 GTP        -0.2728
     19 C2'         0.7477    0.1630    0.7858 C.3       1 GTP         0.1111
     20 O2'         0.1373   -0.0577    2.0407 O.3       1 GTP        -0.2728
     21 C1'         1.3733    1.5427    0.6747 C.3       1 GTP         0.2693
     22 N9          0.4520    2.5240    0.1767 N.pl3     1 GTP        -0.3222
     23 C8          0.5671    3.2221   -0.9473 C.ar      1 GTP         0.1640
     24 N7         -0.4560    4.0508   -1.1290 N.pl3     1 GTP        -0.3688
     25 C5         -1.2671    3.8585   -0.0441 C.ar      1 GTP         0.0648
     26 C6         -2.5318    4.5014    0.2817 C.ar      1 GTP         0.3597
     27 O6         -3.0527    5.3493   -0.4293 O.2       1 GTP        -0.2755
     28 N1         -3.0357    4.0149    1.4868 N.pl3     1 GTP        -0.1604
     29 C2         -2.4069    3.0373    2.2768 C.ar      1 GTP         0.4468
     30 N2         -3.0679    2.6964    3.4278 N.pl3     1 GTP        -0.5618
     31 N3         -1.2653    2.4872    1.9379 N.2       1 GTP        -0.4283
     32 C4         -0.7342    2.9334    0.7643 C.ar      1 GTP         0.2226
     33 H5'         2.8432    0.3119   -2.6398 H         1 GTP        -0.0393
     34 H5''        1.2128   -0.0927   -2.0428 H         1 GTP        -0.0393
     35 H4'         3.8044   -0.1397   -0.4040 H         1 GTP        -0.0393
     36 H3'         1.6764   -1.7639    0.2728 H         1 GTP        -0.0393
     37 HO3'        3.5554   -1.2733    1.4914 H         1 GTP         0.2010
     38 H2'        -0.0011    0.0027    0.0003 H         1 GTP        -0.0393
     39 HO2'       -0.1563   -0.9855    2.0596 H         1 GTP         0.2010
     40 H1'         1.7826    1.9024    1.6451 H         1 GTP        -0.0393
     41 H8          1.3888    3.1325   -1.6361 H         1 GTP         0.0000
     42 HN1        -3.9188    4.3932    1.8170 H         1 GTP         0.0865
     43 HN21       -2.6609    2.0087    4.0186 H         1 GTP         0.2048
     44 HN22       -3.9293    3.1496    3.6283 H         1 GTP         0.2048
     45 H45        -0.5938    4.6820   -1.9060 H         1 GTP         0.2048
@<TRIPOS>BOND
     1    1    2 2
     2    1    3 1
     3    1    4 1
     4    1    5 1
     5    5    6 1
     6    6    7 2
     7    6    8 1
     8    6    9 1
     9    9   10 1
    10   10   11 2
    11   10   12 1
    12   10   13 1
    13   13   14 1
    14   14   15 1
    15   14   33 1
    16   14   34 1
    17   15   16 1
    18   15   17 1
    19   15   35 1
    20   16   21 1
    21   17   18 1
    22   17   19 1
    23   17   36 1
    24   18   37 1
    25   19   20 1
    26   19   21 1
    27   19   38 1
    28   20   39 1
    29   21   22 1
    30   21   40 1
    31   22   23 ar
    32   22   32 ar
    33   23   24 ar
    34   23   41 1
    35   24   25 ar
    36   24   45 1
    37   25   26 ar
    38   25   32 ar
    39   26   27 2
    40   26   28 ar
    41   28   29 ar
    42   28   42 1
    43   29   30 1
    44   29   31 ar
    45   30   43 1
    46   30   44 1
    47   31   32 ar
@<TRIPOS>SUBSTRUCTURE
     1 GTP         1 GROUP 0 A     ****
@<TRIPOS>MOLECULE
[[[5-(2-amino-6-oxo-7,8-dihydro-1~{H}-purin-8-ylium-9-yl)-3,4-dihydroxy-tetrahydrofuran-2-yl]methoxy-oxido-phosphoryl]oxy-oxido-phosphoryl] phosphate
   45    47     1     0     0
SMALL
USER_CHARGES

@<TRIPOS>ATOM
      1 PG         -0.2278    3.4646   -4.6059 P.3       1 GTP        -1.1921
      2 O1G         0.4247    4.3864   -5.6307 O.co2     1 GTP         0.3195
      3 O2G        -1.6734    3.8179   -4.2724 O.co2     1 GTP         0.3195
      4 O3G         0.6409    3.1676   -3.3881 O.co2     1 GTP         0.3195
      5 O3B        -0.3336    2.0111   -5.3779 O.3       1 GTP         0.4672
      6 PB          0.8428    1.0657   -6.0034 P.3       1 GTP        -1.1062
      7 O1B         0.2250   -0.2307   -6.4780 O.co2     1 GTP         0.3195
      8 O2B         1.7211    1.9014   -6.9075 O.co2     1 GTP         0.3195
      9 O3A         1.7067    0.7916   -4.6454 O.3       1 GTP         0.4672
     10 PA          3.0683   -0.0853   -4.4294 P.3       1 GTP        -1.1062
     11 O1A         2.7416   -1.5410   -4.6820 O.co2     1 GTP         0.3195
     12 O2A         4.2137    0.5946   -5.1476 O.co2     1 GTP         0.3195
     13 O5'         3.2903    0.1346   -2.8241 O.3       1 GTP         0.1618
     14 C5'         2.2816   -0.2918   -1.9206 C.3       1 GTP         0.1504
     15 C4'         2.7248    0.0226   -0.4980 C.3       1 GTP         0.1111
     16 O4'         2.4697    1.4219   -0.2462 O.3       1 GTP        -0.1436
     17 C3'         1.9404   -0.7419    0.5596 C.3       1 GTP         0.1111
     18 O3'         2.7418   -0.8086    1.7389 O.3       1 GTP        -0.2728
     19 C2'         0.7477    0.1630    0.7858 C.3       1 GTP         0.1111
     20 O2'         0.1373   -0.0577    2.0407 O.3       1 GTP        -0.2728
     21 C1'         1.3733    1.5427    0.6747 C.3       1 GTP         0.2693
     22 N9          0.4520    2.5240    0.1767 N.pl3     1 GTP        -0.3222
     23 C8         -0.2009    2.4849   -0.9792 C.ar      1 GTP         0.1640
     24 N7         -0.9840    3.5454   -1.1481 N.pl3     1 GTP        -0.3688
     25 C5         -0.8090    4.3005   -0.0206 C.ar      1 GTP         0.0648
     26 C6         -1.4206    5.5724    0.3362 C.ar      1 GTP         0.3597
     27 O6         -2.2199    6.1544   -0.3836 O.2       1 GTP        -0.2755
     28 N1         -0.9680    6.0043    1.5817 N.pl3     1 GTP        -0.1604
     29 C2         -0.0474    5.3055    2.3814 C.ar      1 GTP         0.4468
     30 N2          0.2680    5.9024    3.5740 N.pl3     1 GTP        -0.5618
     31 N3          0.4755    4.1601    2.0138 N.2       1 GTP        -0.4283
     32 C4          0.0611    3.6981    0.8001 C.ar      1 GTP         0.2226
     33 H5'         1.3514    0.2330   -2.1577 H         1 GTP        -0.0393
     34 H5''        2.1280   -1.3678   -2.0460 H         1 GTP        -0.0393
     35 H4'         3.8044   -0.1397   -0.4040 H         1 GTP        -0.0393
     36 H3'         1.6764   -1.7639    0.2728 H         1 GTP        -0.0393
     37 HO3'        2.2232   -1.2979    2.3953 H         1 GTP         0.2010
     38 H2'        -0.0011    0.0027    0.0003 H         1 GTP        -0.0393
     39 HO2'       -0.6141    0.5574    2.1082 H         1 GTP         0.2010
     40 H1'         1.7826    1.9024    1.6451 H         1 GTP        -0.0393
     41 H8         -0.1126    1.6906   -1.6997 H         1 GTP         0.0000
     42 HN1        -1.3285    6.8855    1.9361 H         1 GTP         0.0865
     43 HN21        0.9153    5.4446    4.1732 H         1 GTP         0.2048
     44 HN22       -0.1624    6.7706    3.7948 H         1 GTP         0.2048
     45 H45        -1.5768    3.7405   -1.9429 H         1 GTP         0.2048
@<TRIPOS>BOND
     1    1    2 2
     2    1    3 1
     3    1    4 1
     4    1    5 1
     5    5    6 1
     6    6    7 2
     7    6    8 1
     8    6    9 1
     9    9   10 1
    10   10   11 2
    11   10   12 1
    12   10   13 1
    13   13   14 1
    14   14   15 1
    15   14   33 1
    16   14   34 1
    17   15   16 1
    18   15   17 1
    19   15   35 1
    20   16   21 1
    21   17   18 1
    22   17   19 1
    23   17   36 1
    24   18   37 1
    25   19   20 1
    26   19   21 1
    27   19   38 1
    28   20   39 1
    29   21   22 1
    30   21   40 1
    31   22   23 ar
    32   22   32 ar
    33   23   24 ar
    34   23   41 1
    35   24   25 ar
    36   24   45 1
    37   25   26 ar
    38   25   32 ar
    39   26   27 2
    40   26   28 ar
    41   28   29 ar
    42   28   42 1
    43   29   30 1
    44   29   31 ar
    45   30   43 1
    46   30   44 1
    47   31   32 ar
@<TRIPOS>SUBSTRUCTURE
     1 GTP         1 GROUP 0 A     ****
@<TRIPOS>MOLECULE
[[[5-(2-amino-6-oxo-7,8-dihydro-1~{H}-purin-8-ylium-9-yl)-3,4-dihydroxy-tetrahydrofuran-2-yl]methoxy-oxido-phosphoryl]oxy-oxido-phosphoryl] phosphate
   45    47     1     0     0
SMALL
USER_CHARGES

@<TRIPOS>ATOM
      1 PG          9.1234    1.1608   -3.7378 P.3       1 GTP        -1.1921
      2 O1G         9.6422   -0.2329   -4.0758 O.co2     1 GTP         0.3195
      3 O2G         8.9698    2.0840   -4.9418 O.co2     1 GTP         0.3195
      4 O3G         9.8036    1.8076   -2.5358 O.co2     1 GTP         0.3195
      5 O3B         7.5774    0.9040   -3.2242 O.3       1 GTP         0.4672
      6 PB          7.0200    0.0084   -1.9767 P.3       1 GTP        -1.1062
      7 O1B         7.3180   -1.4486   -2.2518 O.co2     1 GTP         0.3195
      8 O2B         7.4226    0.6666   -0.6759 O.co2     1 GTP         0.3195
      9 O3A         5.4200    0.2796   -2.1555 O.3       1 GTP         0.4672
     10 PA          4.4374   -0.0458   -3.4198 P.3       1 GTP        -1.1062
     11 O1A         4.8565    0.8248   -4.5842 O.co2     1 GTP         0.3195
     12 O2A         4.3080   -1.5458   -3.5723 O.co2     1 GTP         0.3195
     13 O5'         3.0213    0.5153   -2.8245 O.3       1 GTP         0.1618
     14 C5'         2.2816   -0.2918   -1.9206 C.3       1 GTP         0.1504
     15 C4'         2.7248    0.0226   -0.4980 C.3       1 GTP         0.1111
     16 O4'         2.4697    1.4219   -0.2462 O.3       1 GTP        -0.1436
     17 C3'         1.9404   -0.7419    0.5596 C.3       1 GTP         0.1111
     18 O3'         2.7418   -0.8086    1.7389 O.3       1 GTP        -0.2728
     19 C2'         0.7477    0.1630    0.7858 C.3       1 GTP         0.1111
     20 O2'         0.1373   -0.0577    2.0407 O.3       1 GTP        -0.2728
     21 C1'         1.3733    1.5427    0.6747 C.3       1 GTP         0.2693
     22 N9          0.4520    2.5240    0.1767 N.pl3     1 GTP        -0.3222
     23 C8         -0.6818    2.9109    0.7501 C.ar      1 GTP         0.1640
     24 N7         -1.3103    3.8415    0.0391 N.pl3     1 GTP        -0.3688
     25 C5         -0.5155    4.0512   -1.0547 C.ar      1 GTP         0.0648
     26 C6         -0.7125    4.9651   -2.1705 C.ar      1 GTP         0.3597
     27 O6         -1.6819    5.7047   -2.2651 O.2       1 GTP        -0.2755
     28 N1          0.3401    4.8672   -3.0790 N.pl3     1 GTP        -0.1604
     29 C2          1.4396    4.0039   -2.9348 C.ar      1 GTP         0.4468
     30 N2          2.3679    4.0602   -3.9414 N.pl3     1 GTP        -0.5618
     31 N3          1.5708    3.1983   -1.9080 N.2       1 GTP        -0.4283
     32 C4          0.5630    3.2599   -0.9921 C.ar      1 GTP         0.2226
     33 H5'         1.2163   -0.0770   -2.0471 H         1 GTP        -0.0393
     34 H5''        2.4655   -1.3443   -2.1563 H         1 GTP        -0.0393
     35 H4'         3.8044   -0.1397   -0.4040 H         1 GTP        -0.0393
     36 H3'         1.6764   -1.7639    0.2728 H         1 GTP        -0.0393
     37 HO3'        2.2232   -1.2979    2.3953 H         1 GTP         0.2010
     38 H2'        -0.0011    0.0027    0.0003 H         1 GTP        -0.0393
     39 HO2'       -0.1563   -0.9855    2.0596 H         1 GTP         0.2010
     40 H1'         1.7826    1.9024    1.6451 H         1 GTP        -0.0393
     41 H8         -1.0545    2.5222    1.6816 H         1 GTP         0.0000
     42 HN1         0.3104    5.4612   -3.9026 H         1 GTP         0.0865
     43 HN21        3.1632    3.4672   -3.8824 H         1 GTP         0.2048
     44 HN22        2.2108    4.6918   -4.6924 H         1 GTP         0.2048
     45 H45        -2.1863    4.2902    0.2681 H         1 GTP         0.2048
@<TRIPOS>BOND
     1    1    2 2
     2    1    3 1
     3    1    4 1
     4    1    5 1
     5    5    6 1
     6    6    7 2
     7    6    8 1
     8    6    9 1
     9    9   10 1
    10   10   11 2
    11   10   12 1
    12   10   13 1
    13   13   14 1
    14   14   15 1
    15   14   33 1
    16   14   34 1
    17   15   16 1
    18   15   17 1
    19   15   35 1
    20   16   21 1
    21   17   18 1
    22   17   19 1
    23   17   36 1
    24   18   37 1
    25   19   20 1
    26   19   21 1
    27   19   38 1
    28   20   39 1
    29   21   22 1
    30   21   40 1
    31   22   23 ar
    32   22   32 ar
    33   23   24 ar
    34   23   41 1
    35   24   25 ar
    36   24   45 1
    37   25   26 ar
    38   25   32 ar
    39   26   27 2
    40   26   28 ar
    41   28   29 ar
    42   28   42 1
    43   29   30 1
    44   29   31 ar
    45   30   43 1
    46   30   44 1
    47   31   32 ar
@<TRIPOS>SUBSTRUCTURE
     1 GTP         1 GROUP 0 A     ****
@<TRIPOS>MOLECULE
[[[5-(2-amino-6-oxo-7,8-dihydro-1~{H}-purin-8-ylium-9-yl)-3,4-dihydroxy-tetrahydrofuran-2-yl]methoxy-oxido-phosphoryl]oxy-oxido-phosphoryl] phosphate
   45    47     1     0     0
SMALL
USER_CHARGES

@<TRIPOS>ATOM
      1 PG          4.1246   -4.1913   -5.9128 P.3       1 GTP        -1.1921
      2 O1G         5.1404   -3.9447   -4.8023 O.co2     1 GTP         0.3195
      3 O2G         3.5108   -5.5873   -5.9052 O.co2     1 GTP         0.3195
      4 O3G         4.5733   -3.7122   -7.2894 O.co2     1 GTP         0.3195
      5 O3B         2.8660   -3.1931   -5.5395 O.3       1 GTP         0.4672
      6 PB          2.8259   -1.5677   -5.3799 P.3       1 GTP        -1.1062
      7 O1B         3.3772   -0.9408   -6.6411 O.co2     1 GTP         0.3195
      8 O2B         1.4843   -1.1588   -4.8140 O.co2     1 GTP         0.3195
      9 O3A         3.9086   -1.3977   -4.1698 O.3       1 GTP         0.4672
     10 PA          4.4374   -0.0458   -3.4198 P.3       1 GTP        -1.1062
     11 O1A         5.3232   -0.4584   -2.2644 O.co2     1 GTP         0.3195
     12 O2A         4.9198    0.9409   -4.4608 O.co2     1 GTP         0.3195
     13 O5'         3.0213    0.5153   -2.8245 O.3       1 GTP         0.1618
     14 C5'         2.2816   -0.2918   -1.9206 C.3       1 GTP         0.1504
     15 C4'         2.7248    0.0226   -0.4980 C.3       1 GTP         0.1111
     16 O4'         2.4697    1.4219   -0.2462 O.3       1 GTP        -0.1436
     17 C3'         1.9404   -0.7419    0.5596 C.3       1 GTP         0.1111
     18 O3'         2.7418   -0.8086    1.7389 O.3       1 GTP        -0.2728
     19 C2'         0.7477    0.1630    0.7858 C.3       1 GTP         0.1111
     20 O2'         0.1373   -0.0577    2.0407 O.3       1 GTP        -0.2728
     21 C1'         1.3733    1.5427    0.6747 C.3       1 GTP         0.2693
     22 N9          0.4520    2.5240    0.1767 N.pl3     1 GTP        -0.3222
     23 C8         -0.8613    2.5511    0.3730 C.ar      1 GTP         0.1640
     24 N7         -1.4346    3.5939   -0.2188 N.pl3     1 GTP        -0.3688
     25 C5         -0.4099    4.2657   -0.8276 C.ar      1 GTP         0.0648
     26 C6         -0.4554    5.4854   -1.6209 C.ar      1 GTP         0.3597
     27 O6         -1.4907    6.0944   -1.8508 O.2       1 GTP        -0.2755
     28 N1          0.8205    5.8357   -2.0593 N.pl3     1 GTP        -0.1604
     29 C2          1.9890    5.1091   -1.7730 C.ar      1 GTP         0.4468
     30 N2          3.1452    5.6230   -2.2997 N.pl3     1 GTP        -0.5618
     31 N3          1.9765    4.0139   -1.0514 N.2       1 GTP        -0.4283
     32 C4          0.7480    3.6324   -0.6003 C.ar      1 GTP         0.2226
     33 H5'         1.2163   -0.0770   -2.0471 H         1 GTP        -0.0393
     34 H5''        2.4655   -1.3443   -2.1563 H         1 GTP        -0.0393
     35 H4'         3.8044   -0.1397   -0.4040 H         1 GTP        -0.0393
     36 H3'         1.6764   -1.7639    0.2728 H         1 GTP        -0.0393
     37 HO3'        2.2232   -1.2979    2.3953 H         1 GTP         0.2010
     38 H2'        -0.0011    0.0027    0.0003 H         1 GTP        -0.0393
     39 HO2'       -0.1563   -0.9855    2.0596 H         1 GTP         0.2010
     40 H1'         1.7826    1.9024    1.6451 H         1 GTP        -0.0393
     41 H8         -1.4050    1.8187    0.9438 H         1 GTP         0.0000
     42 HN1         0.9121    6.6744   -2.6251 H         1 GTP         0.0865
     43 HN21        3.9971    5.1427   -2.1235 H         1 GTP         0.2048
     44 HN22        3.0881    6.4564   -2.8380 H         1 GTP         0.2048
     45 H45        -2.4173    3.8294   -0.2127 H         1 GTP         0.2048
@<TRIPOS>BOND
     1    1    2 2
     2    1    3 1
     3    1    4 1
     4    1    5 1
     5    5    6 1
     6    6    7 2
     7    6    8 1
     8    6    9 1
     9    9   10 1
    10   10   11 2
    11   10   12 1
    12   10   13 1
    13   13   14 1
    14   14   15 1
    15   14   33 1
    16   14   34 1
    17   15   16 1
    18   15   17 1
    19   15   35 1
    20   16   21 1
    21   17   18 1
    22   17   19 1
    23   17   36 1
    24   18   37 1
    25   19   20 1
    26   19   21 1
    27   19   38 1
    28   20   39 1
    29   21   22 1
    30   21   40 1
    31   22   23 ar
    32   22   32 ar
    33   23   24 ar
    34   23   41 1
    35   24   25 ar
    36   24   45 1
    37   25   26 ar
    38   25   32 ar
    39   26   27 2
    40   26   28 ar
    41   28   29 ar
    42   28   42 1
    43   29   30 1
    44   29   31 ar
    45   30   43 1
    46   30   44 1
    47   31   32 ar
@<TRIPOS>SUBSTRUCTURE
     1 GTP         1 GROUP 0 A     ****
@<TRIPOS>MOLECULE
[[[5-(2-amino-6-oxo-7,8-dihydro-1~{H}-purin-8-ylium-9-yl)-3,4-dihydroxy-tetrahydrofuran-2-yl]methoxy-oxido-phosphoryl]oxy-oxido-phosphoryl] phosphate
   45    47     1     0     0
SMALL
USER_CHARGES

@<TRIPOS>ATOM
      1 PG          8.2895   -2.6798   -2.1012 P.3       1 GTP        -1.1921
      2 O1G         8.8826   -2.4942   -0.7085 O.co2     1 GTP         0.3195
      3 O2G         7.6401   -4.0402   -2.3322 O.co2     1 GTP         0.3195
      4 O3G         9.1992   -2.2197   -3.2356 O.co2     1 GTP         0.3195
      5 O3B         7.0303   -1.6160   -2.1503 O.3       1 GTP         0.4672
      6 PB          7.0200    0.0084   -1.9767 P.3       1 GTP        -1.1062
      7 O1B         7.4340    0.3496   -0.5626 O.co2     1 GTP         0.3195
      8 O2B         7.6969    0.6385   -3.1734 O.co2     1 GTP         0.3195
      9 O3A         5.4200    0.2796   -2.1555 O.3       1 GTP         0.4672
     10 PA          4.4374   -0.0458   -3.4198 P.3       1 GTP        -1.1062
     11 O1A         4.8565    0.8248   -4.5842 O.co2     1 GTP         0.3195
     12 O2A         4.3080   -1.5458   -3.5723 O.co2     1 GTP         0.3195
     13 O5'         3.0213    0.5153   -2.8245 O.3       1 GTP         0.1618
     14 C5'         2.2816   -0.2918   -1.9206 C.3       1 GTP         0.1504
     15 C4'         2.7248    0.0226   -0.4980 C.3       1 GTP         0.1111
     16 O4'         2.4697    1.4219   -0.2462 O.3       1 GTP        -0.1436
     17 C3'         1.9404   -0.7419    0.5596 C.3       1 GTP         0.1111
     18 O3'         2.7418   -0.8086    1.7389 O.3       1 GTP        -0.2728
     19 C2'         0.7477    0.1630    0.7858 C.3       1 GTP         0.1111
     20 O2'         0.1373   -0.0577    2.0407 O.3       1 GTP        -0.2728
     21 C1'         1.3733    1.5427    0.6747 C.3       1 GTP         0.2693
     22 N9          0.4520    2.5240    0.1767 N.pl3     1 GTP        -0.3222
     23 C8         -0.6818    2.9109    0.7501 C.ar      1 GTP         0.1640
     24 N7         -1.3103    3.8415    0.0391 N.pl3     1 GTP        -0.3688
     25 C5         -0.5155    4.0512   -1.0547 C.ar      1 GTP         0.0648
     26 C6         -0.7125    4.9651   -2.1705 C.ar      1 GTP         0.3597
     27 O6         -1.6819    5.7047   -2.2651 O.2       1 GTP        -0.2755
     28 N1          0.3401    4.8672   -3.0790 N.pl3     1 GTP        -0.1604
     29 C2          1.4396    4.0039   -2.9348 C.ar      1 GTP         0.4468
     30 N2          2.3679    4.0602   -3.9414 N.pl3     1 GTP        -0.5618
     31 N3          1.5708    3.1983   -1.9080 N.2       1 GTP        -0.4283
     32 C4          0.5630    3.2599   -0.9921 C.ar      1 GTP         0.2226
     33 H5'         1.2163   -0.0770   -2.0471 H         1 GTP        -0.0393
     34 H5''        2.4655   -1.3443   -2.1563 H         1 GTP        -0.0393
     35 H4'         3.8044   -0.1397   -0.4040 H         1 GTP        -0.0393
     36 H3'         1.6764   -1.7639    0.2728 H         1 GTP        -0.0393
     37 HO3'        2.2232   -1.2979    2.3953 H         1 GTP         0.2010
     38 H2'        -0.0011    0.0027    0.0003 H         1 GTP        -0.0393
     39 HO2'       -0.1563   -0.9855    2.0596 H         1 GTP         0.2010
     40 H1'         1.7826    1.9024    1.6451 H         1 GTP        -0.0393
     41 H8         -1.0545    2.5222    1.6816 H         1 GTP         0.0000
     42 HN1         0.3104    5.4612   -3.9026 H         1 GTP         0.0865
     43 HN21        3.1632    3.4672   -3.8824 H         1 GTP         0.2048
     44 HN22        2.2108    4.6918   -4.6924 H         1 GTP         0.2048
     45 H45        -2.1863    4.2902    0.2681 H         1 GTP         0.2048
@<TRIPOS>BOND
     1    1    2 2
     2    1    3 1
     3    1    4 1
     4    1    5 1
     5    5    6 1
     6    6    7 2
     7    6    8 1
     8    6    9 1
     9    9   10 1
    10   10   11 2
    11   10   12 1
    12   10   13 1
    13   13   14 1
    14   14   15 1
    15   14   33 1
    16   14   34 1
    17   15   16 1
    18   15   17 1
    19   15   35 1
    20   16   21 1
    21   17   18 1
    22   17   19 1
    23   17   36 1
    24   18   37 1
    25   19   20 1
    26   19   21 1
    27   19   38 1
    28   20   39 1
    29   21   22 1
    30   21   40 1
    31   22   23 ar
    32   22   32 ar
    33   23   24 ar
    34   23   41 1
    35   24   25 ar
    36   24   45 1
    37   25   26 ar
    38   25   32 ar
    39   26   27 2
    40   26   28 ar
    41   28   29 ar
    42   28   42 1
    43   29   30 1
    44   29   31 ar
    45   30   43 1
    46   30   44 1
    47   31   32 ar
@<TRIPOS>SUBSTRUCTURE
     1 GTP         1 GROUP 0 A     ****
@<TRIPOS>MOLECULE
[[[5-(2-amino-6-oxo-7,8-dihydro-1~{H}-purin-8-ylium-9-yl)-3,4-dihydroxy-tetrahydrofuran-2-yl]methoxy-oxido-phosphoryl]oxy-oxido-phosphoryl] phosphate
   45    47     1     0     0
SMALL
USER_CHARGES

@<TRIPOS>ATOM
      1 PG         -1.3203   -5.3465   -2.2036 P.3       1 GTP        -1.1921
      2 O1G        -2.7669   -5.0961   -2.6167 O.co2     1 GTP         0.3195
      3 O2G        -0.6964   -6.5932   -2.8219 O.co2     1 GTP         0.3195
      4 O3G        -1.0603   -5.1919   -0.7088 O.co2     1 GTP         0.3195
      5 O3B        -0.4837   -4.0966   -2.8801 O.3       1 GTP         0.4672
      6 PB         -0.6397   -2.4857   -2.6576 P.3       1 GTP        -1.1062
      7 O1B        -1.9889   -2.0499   -3.1841 O.co2     1 GTP         0.3195
      8 O2B        -0.1841   -2.1326   -1.2594 O.co2     1 GTP         0.3195
      9 O3A         0.5322   -1.9680   -3.6696 O.3       1 GTP         0.4672
     10 PA          2.1375   -2.2725   -3.6560 P.3       1 GTP        -1.1062
     11 O1A         2.3368   -3.7723   -3.6314 O.co2     1 GTP         0.3195
     12 O2A         2.8132   -1.4113   -4.7009 O.co2     1 GTP         0.3195
     13 O5'         2.5245   -1.6648   -2.1878 O.3       1 GTP         0.1618
     14 C5'         2.2816   -0.2918   -1.9206 C.3       1 GTP         0.1504
     15 C4'         2.7248    0.0226   -0.4980 C.3       1 GTP         0.1111
     16 O4'         2.4697    1.4219   -0.2462 O.3       1 GTP        -0.1436
     17 C3'         1.9404   -0.7419    0.5596 C.3       1 GTP         0.1111
     18 O3'         2.7418   -0.8086    1.7389 O.3       1 GTP        -0.2728
     19 C2'         0.7477    0.1630    0.7858 C.3       1 GTP         0.1111
     20 O2'         0.1373   -0.0577    2.0407 O.3       1 GTP        -0.2728
     21 C1'         1.3733    1.5427    0.6747 C.3       1 GTP         0.2693
     22 N9          0.4520    2.5240    0.1767 N.pl3     1 GTP        -0.3222
     23 C8         -0.3350    3.3125    0.8998 C.ar      1 GTP         0.1640
     24 N7         -1.0716    4.1171    0.1405 N.pl3     1 GTP        -0.3688
     25 C5         -0.7219    3.8110   -1.1464 C.ar      1 GTP         0.0648
     26 C6         -1.2133    4.3827   -2.3917 C.ar      1 GTP         0.3597
     27 O6         -2.0567    5.2674   -2.4335 O.2       1 GTP        -0.2755
     28 N1         -0.5926    3.7846   -3.4870 N.pl3     1 GTP        -0.1604
     29 C2          0.3749    2.7691   -3.3983 C.ar      1 GTP         0.4468
     30 N2          0.8624    2.3146   -4.5959 N.pl3     1 GTP        -0.5618
     31 N3          0.7851    2.2875   -2.2493 N.2       1 GTP        -0.4283
     32 C4          0.2042    2.8436   -1.1486 C.ar      1 GTP         0.2226
     33 H5'         2.8432    0.3119   -2.6398 H         1 GTP        -0.0393
     34 H5''        1.2128   -0.0927   -2.0428 H         1 GTP        -0.0393
     35 H4'         3.8044   -0.1397   -0.4040 H         1 GTP        -0.0393
     36 H3'         1.6764   -1.7639    0.2728 H         1 GTP        -0.0393
     37 HO3'        2.2232   -1.2979    2.3953 H         1 GTP         0.2010
     38 H2'        -0.0011    0.0027    0.0003 H         1 GTP        -0.0393
     39 HO2'       -0.6141    0.5574    2.1082 H         1 GTP         0.2010
     40 H1'         1.7826    1.9024    1.6451 H         1 GTP        -0.0393
     41 H8         -0.3766    3.3075    1.9750 H         1 GTP         0.0000
     42 HN1        -0.8580    4.1049   -4.4138 H         1 GTP         0.0865
     43 HN21        1.5490    1.5963   -4.5827 H         1 GTP         0.2048
     44 HN22        0.5109    2.7205   -5.4321 H         1 GTP         0.2048
     45 H45        -1.7420    4.8034    0.4575 H         1 GTP         0.2048
@<TRIPOS>BOND
     1    1    2 2
     2    1    3 1
     3    1    4 1
     4    1    5 1
     5    5    6 1
     6    6    7 2
     7    6    8 1
     8    6    9 1
     9    9   10 1
    10   10   11 2
    11   10   12 1
    12   10   13 1
    13   13   14 1
    14   14   15 1
    15   14   33 1
    16   14   34 1
    17   15   16 1
    18   15   17 1
    19   15   35 1
    20   16   21 1
    21   17   18 1
    22   17   19 1
    23   17   36 1
    24   18   37 1
    25   19   20 1
    26   19   21 1
    27   19   38 1
    28   20   39 1
    29   21   22 1
    30   21   40 1
    31   22   23 ar
    32   22   32 ar
    33   23   24 ar
    34   23   41 1
    35   24   25 ar
    36   24   45 1
    37   25   26 ar
    38   25   32 ar
    39   26   27 2
    40   26   28 ar
    41   28   29 ar
    42   28   42 1
    43   29   30 1
    44   29   31 ar
    45   30   43 1
    46   30   44 1
    47   31   32 ar
@<TRIPOS>SUBSTRUCTURE
     1 GTP         1 GROUP 0 A     ****
@<TRIPOS>MOLECULE
[[[5-(2-amino-6-oxo-7,8-dihydro-1~{H}-purin-8-ylium-9-yl)-3,4-dihydroxy-tetrahydrofuran-2-yl]methoxy-oxido-phosphoryl]oxy-oxido-phosphoryl] phosphate
   45    47     1     0     0
SMALL
USER_CHARGES

@<TRIPOS>ATOM
      1 PG          4.7331   -1.1625   -7.6611 P.3       1 GTP        -1.1921
      2 O1G         3.4095   -0.4780   -7.3363 O.co2     1 GTP         0.3195
      3 O2G         5.7837   -0.2420   -8.2730 O.co2     1 GTP         0.3195
      4 O3G         4.5864   -2.5043   -8.3711 O.co2     1 GTP         0.3195
      5 O3B         5.3544   -1.5631   -6.1869 O.3       1 GTP         0.4672
      6 PB          4.7415   -2.5203   -5.0134 P.3       1 GTP        -1.1062
      7 O1B         3.7744   -3.5000   -5.6398 O.co2     1 GTP         0.3195
      8 O2B         5.8661   -2.9834   -4.1145 O.co2     1 GTP         0.3195
      9 O3A         3.9086   -1.3977   -4.1698 O.3       1 GTP         0.4672
     10 PA          4.4374   -0.0458   -3.4198 P.3       1 GTP        -1.1062
     11 O1A         5.3232   -0.4584   -2.2644 O.co2     1 GTP         0.3195
     12 O2A         4.9198    0.9409   -4.4608 O.co2     1 GTP         0.3195
     13 O5'         3.0213    0.5153   -2.8245 O.3       1 GTP         0.1618
     14 C5'         2.2816   -0.2918   -1.9206 C.3       1 GTP         0.1504
     15 C4'         2.7248    0.0226   -0.4980 C.3       1 GTP         0.1111
     16 O4'         2.4697    1.4219   -0.2462 O.3       1 GTP        -0.1436
     17 C3'         1.9404   -0.7419    0.5596 C.3       1 GTP         0.1111
     18 O3'         2.7418   -0.8086    1.7389 O.3       1 GTP        -0.2728
     19 C2'         0.7477    0.1630    0.7858 C.3       1 GTP         0.1111
     20 O2'         0.1373   -0.0577    2.0407 O.3       1 GTP        -0.2728
     21 C1'         1.3733    1.5427    0.6747 C.3       1 GTP         0.2693
     22 N9          0.4520    2.5240    0.1767 N.pl3     1 GTP        -0.3222
     23 C8         -0.6818    2.9109    0.7501 C.ar      1 GTP         0.1640
     24 N7         -1.3103    3.8415    0.0391 N.pl3     1 GTP        -0.3688
     25 C5         -0.5155    4.0512   -1.0547 C.ar      1 GTP         0.0648
     26 C6         -0.7125    4.9651   -2.1705 C.ar      1 GTP         0.3597
     27 O6         -1.6819    5.7047   -2.2651 O.2       1 GTP        -0.2755
     28 N1          0.3401    4.8672   -3.0790 N.pl3     1 GTP        -0.1604
     29 C2          1.4396    4.0039   -2.9348 C.ar      1 GTP         0.4468
     30 N2          2.3679    4.0602   -3.9414 N.pl3     1 GTP        -0.5618
     31 N3          1.5708    3.1983   -1.9080 N.2       1 GTP        -0.4283
     32 C4          0.5630    3.2599   -0.9921 C.ar      1 GTP         0.2226
     33 H5'         1.2163   -0.0770   -2.0471 H         1 GTP        -0.0393
     34 H5''        2.4655   -1.3443   -2.1563 H         1 GTP        -0.0393
     35 H4'         3.8044   -0.1397   -0.4040 H         1 GTP        -0.0393
     36 H3'         1.6764   -1.7639    0.2728 H         1 GTP        -0.0393
     37 HO3'        2.2232   -1.2979    2.3953 H         1 GTP         0.2010
     38 H2'        -0.0011    0.0027    0.0003 H         1 GTP        -0.0393
     39 HO2'       -0.1563   -0.9855    2.0596 H         1 GTP         0.2010
     40 H1'         1.7826    1.9024    1.6451 H         1 GTP        -0.0393
     41 H8         -1.0545    2.5222    1.6816 H         1 GTP         0.0000
     42 HN1         0.3104    5.4612   -3.9026 H         1 GTP         0.0865
     43 HN21        3.1632    3.4672   -3.8824 H         1 GTP         0.2048
     44 HN22        2.2108    4.6918   -4.6924 H         1 GTP         0.2048
     45 H45        -2.1863    4.2902    0.2681 H         1 GTP         0.2048
@<TRIPOS>BOND
     1    1    2 2
     2    1    3 1
     3    1    4 1
     4    1    5 1
     5    5    6 1
     6    6    7 2
     7    6    8 1
     8    6    9 1
     9    9   10 1
    10   10   11 2
    11   10   12 1
    12   10   13 1
    13   13   14 1
    14   14   15 1
    15   14   33 1
    16   14   34 1
    17   15   16 1
    18   15   17 1
    19   15   35 1
    20   16   21 1
    21   17   18 1
    22   17   19 1
    23   17   36 1
    24   18   37 1
    25   19   20 1
    26   19   21 1
    27   19   38 1
    28   20   39 1
    29   21   22 1
    30   21   40 1
    31   22   23 ar
    32   22   32 ar
    33   23   24 ar
    34   23   41 1
    35   24   25 ar
    36   24   45 1
    37   25   26 ar
    38   25   32 ar
    39   26   27 2
    40   26   28 ar
    41   28   29 ar
    42   28   42 1
    43   29   30 1
    44   29   31 ar
    45   30   43 1
    46   30   44 1
    47   31   32 ar
@<TRIPOS>SUBSTRUCTURE
     1 GTP         1 GROUP 0 A     ****
@<TRIPOS>MOLECULE
[[[5-(2-amino-6-oxo-7,8-dihydro-1~{H}-purin-8-ylium-9-yl)-3,4-dihydroxy-tetrahydrofuran-2-yl]methoxy-oxido-phosphoryl]oxy-oxido-phosphoryl] phosphate
   45    47     1     0     0
SMALL
USER_CHARGES

@<TRIPOS>ATOM
      1 PG          1.6958    2.6308   -8.5037 P.3       1 GTP        -1.1921
      2 O1G         0.4085    3.4352   -8.3570 O.co2     1 GTP         0.3195
      3 O2G         2.9582    3.4790   -8.6159 O.co2     1 GTP         0.3195
      4 O3G         1.6124    1.4952   -9.5183 O.co2     1 GTP         0.3195
      5 O3B         1.8560    1.8552   -7.0571 O.3       1 GTP         0.4672
      6 PB          0.8587    0.7924   -6.3189 P.3       1 GTP        -1.1062
      7 O1B        -0.4256    1.5029   -5.9534 O.co2     1 GTP         0.3195
      8 O2B         0.8519   -0.5036   -7.0983 O.co2     1 GTP         0.3195
      9 O3A         1.7299    0.5134   -4.9666 O.3       1 GTP         0.4672
     10 PA          2.2228    1.5519   -3.8055 P.3       1 GTP        -1.1062
     11 O1A         3.2202    2.5111   -4.4175 O.co2     1 GTP         0.3195
     12 O2A         1.0138    2.0587   -3.0494 O.co2     1 GTP         0.3195
     13 O5'         3.0213    0.5153   -2.8245 O.3       1 GTP         0.1618
     14 C5'         2.2816   -0.2918   -1.9206 C.3       1 GTP         0.1504
     15 C4'         2.7248    0.0226   -0.4980 C.3       1 GTP         0.1111
     16 O4'         2.4697    1.4219   -0.2462 O.3       1 GTP        -0.1436
     17 C3'         1.9404   -0.7419    0.5596 C.3       1 GTP         0.1111
     18 O3'         2.7418   -0.8086    1.7389 O.3       1 GTP        -0.2728
     19 C2'         0.7477    0.1630    0.7858 C.3       1 GTP         0.1111
     20 O2'         0.1373   -0.0577    2.0407 O.3       1 GTP        -0.2728
     21 C1'         1.3733    1.5427    0.6747 C.3       1 GTP         0.2693
     22 N9          0.4520    2.5240    0.1767 N.pl3     1 GTP        -0.3222
     23 C8         -0.8613    2.5511    0.3730 C.ar      1 GTP         0.1640
     24 N7         -1.4346    3.5939   -0.2188 N.pl3     1 GTP        -0.3688
     25 C5         -0.4099    4.2657   -0.8276 C.ar      1 GTP         0.0648
     26 C6         -0.4554    5.4854   -1.6209 C.ar      1 GTP         0.3597
     27 O6         -1.4907    6.0944   -1.8508 O.2       1 GTP        -0.2755
     28 N1          0.8205    5.8357   -2.0593 N.pl3     1 GTP        -0.1604
     29 C2          1.9890    5.1091   -1.7730 C.ar      1 GTP         0.4468
     30 N2          3.1452    5.6230   -2.2997 N.pl3     1 GTP        -0.5618
     31 N3          1.9765    4.0139   -1.0514 N.2       1 GTP        -0.4283
     32 C4          0.7480    3.6324   -0.6003 C.ar      1 GTP         0.2226
     33 H5'         1.2163   -0.0770   -2.0471 H         1 GTP        -0.0393
     34 H5''        2.4655   -1.3443   -2.1563 H         1 GTP        -0.0393
     35 H4'         3.8044   -0.1397   -0.4040 H         1 GTP        -0.0393
     36 H3'         1.6764   -1.7639    0.2728 H         1 GTP        -0.0393
     37 HO3'        3.5554   -1.2733    1.4914 H         1 GTP         0.2010
     38 H2'        -0.0011    0.0027    0.0003 H         1 GTP        -0.0393
     39 HO2'        0.8082    0.1199    2.7232 H         1 GTP         0.2010
     40 H1'         1.7826    1.9024    1.6451 H         1 GTP        -0.0393
     41 H8         -1.4050    1.8187    0.9438 H         1 GTP         0.0000
     42 HN1         0.9121    6.6744   -2.6251 H         1 GTP         0.0865
     43 HN21        3.9971    5.1427   -2.1235 H         1 GTP         0.2048
     44 HN22        3.0881    6.4564   -2.8380 H         1 GTP         0.2048
     45 H45        -2.4173    3.8294   -0.2127 H         1 GTP         0.2048
@<TRIPOS>BOND
     1    1    2 2
     2    1    3 1
     3    1    4 1
     4    1    5 1
     5    5    6 1
     6    6    7 2
     7    6    8 1
     8    6    9 1
     9    9   10 1
    10   10   11 2
    11   10   12 1
    12   10   13 1
    13   13   14 1
    14   14   15 1
    15   14   33 1
    16   14   34 1
    17   15   16 1
    18   15   17 1
    19   15   35 1
    20   16   21 1
    21   17   18 1
    22   17   19 1
    23   17   36 1
    24   18   37 1
    25   19   20 1
    26   19   21 1
    27   19   38 1
    28   20   39 1
    29   21   22 1
    30   21   40 1
    31   22   23 ar
    32   22   32 ar
    33   23   24 ar
    34   23   41 1
    35   24   25 ar
    36   24   45 1
    37   25   26 ar
    38   25   32 ar
    39   26   27 2
    40   26   28 ar
    41   28   29 ar
    42   28   42 1
    43   29   30 1
    44   29   31 ar
    45   30   43 1
    46   30   44 1
    47   31   32 ar
@<TRIPOS>SUBSTRUCTURE
     1 GTP         1 GROUP 0 A     ****
@<TRIPOS>MOLECULE
[[[5-(2-amino-6-oxo-7,8-dihydro-1~{H}-purin-8-ylium-9-yl)-3,4-dihydroxy-tetrahydrofuran-2-yl]methoxy-oxido-phosphoryl]oxy-oxido-phosphoryl] phosphate
   45    47     1     0     0
SMALL
USER_CHARGES

@<TRIPOS>ATOM
      1 PG         -0.8921   -6.8934    7.6571 P.3       1 GTP        -1.1921
      2 O1G        -1.4671   -8.3053    7.6137 O.co2     1 GTP         0.3195
      3 O2G         0.3409   -6.7433    8.5418 O.co2     1 GTP         0.3195
      4 O3G        -1.9359   -5.7978    7.8469 O.co2     1 GTP         0.3195
      5 O3B        -0.3276   -6.6387    6.1286 O.3       1 GTP         0.4672
      6 PB         -1.1202   -6.6525    4.7001 P.3       1 GTP        -1.1062
      7 O1B        -1.6165   -8.0559    4.4321 O.co2     1 GTP         0.3195
      8 O2B        -2.0477   -5.4596    4.6371 O.co2     1 GTP         0.3195
      9 O3A         0.1301   -6.3183    3.7049 O.3       1 GTP         0.4672
     10 PA          1.1155   -5.0156    3.6623 P.3       1 GTP        -1.1062
     11 O1A         1.7073   -4.8215    5.0413 O.co2     1 GTP         0.3195
     12 O2A         2.0000   -5.1043    2.4376 O.co2     1 GTP         0.3195
     13 O5'         0.0118   -3.8395    3.3916 O.3       1 GTP         0.1618
     14 C5'        -0.7840   -3.8935    2.2172 C.3       1 GTP         0.1504
     15 C4'        -0.0724   -3.1466    1.1027 C.3       1 GTP         0.1111
     16 O4'        -0.8674   -3.1929   -0.0945 O.3       1 GTP        -0.1436
     17 C3'         0.1338   -1.6715    1.4027 C.3       1 GTP         0.1111
     18 O3'         1.2893   -1.4445    2.1808 O.3       1 GTP        -0.2728
     19 C2'         0.2158   -1.0724    0.0128 C.3       1 GTP         0.1111
     20 O2'         1.5141   -1.2448   -0.5513 O.3       1 GTP        -0.2728
     21 C1'        -0.7897   -1.9176   -0.7583 C.3       1 GTP         0.2693
     22 N9         -2.1040   -1.3333   -0.7704 N.pl3     1 GTP        -0.3222
     23 C8         -3.0597   -1.5109    0.1345 C.ar      1 GTP         0.1640
     24 N7         -4.1618   -0.8291   -0.1607 N.pl3     1 GTP        -0.3688
     25 C5         -3.8764   -0.1805   -1.3310 C.ar      1 GTP         0.0648
     26 C6         -4.7187    0.7111   -2.1152 C.ar      1 GTP         0.3597
     27 O6         -5.8617    1.0043   -1.7939 O.2       1 GTP        -0.2755
     28 N1         -4.0405    1.1608   -3.2468 N.pl3     1 GTP        -0.1604
     29 C2         -2.7239    0.8013   -3.5822 C.ar      1 GTP         0.4468
     30 N2         -2.2399    1.3534   -4.7394 N.pl3     1 GTP        -0.5618
     31 N3         -2.0053   -0.0071   -2.8402 N.2       1 GTP        -0.4283
     32 C4         -2.6290   -0.4727   -1.7210 C.ar      1 GTP         0.2226
     33 H5'        -0.9348   -4.9415    1.9415 H         1 GTP        -0.0393
     34 H5''       -1.7548   -3.4350    2.4278 H         1 GTP        -0.0393
     35 H4'         0.8874   -3.6466    0.8805 H         1 GTP        -0.0393
     36 H3'        -0.7376   -1.2333    1.9867 H         1 GTP        -0.0393
     37 HO3'        2.0374   -1.7816    1.6652 H         1 GTP         0.2010
     38 H2'        -0.0384   -0.0310    0.0096 H         1 GTP        -0.0393
     39 HO2'        1.4998   -0.8412   -1.4369 H         1 GTP         0.2010
     40 H1'        -0.4769   -2.1002   -1.8093 H         1 GTP        -0.0393
     41 H8         -2.9610   -2.1316    1.0079 H         1 GTP         0.0000
     42 HN1        -4.5320    1.7923   -3.8726 H         1 GTP         0.0865
     43 HN21       -1.3128    1.1277   -5.0171 H         1 GTP         0.2048
     44 HN22       -2.8342    1.9586   -5.2572 H         1 GTP         0.2048
     45 H45        -5.0195   -0.8034    0.3729 H         1 GTP         0.2048
@<TRIPOS>BOND
     1    1    2 2
     2    1    3 1
     3    1    4 1
     4    1    5 1
     5    5    6 1
     6    6    7 2
     7    6    8 1
     8    6    9 1
     9    9   10 1
    10   10   11 2
    11   10   12 1
    12   10   13 1
    13   13   14 1
    14   14   15 1
    15   14   33 1
    16   14   34 1
    17   15   16 1
    18   15   17 1
    19   15   35 1
    20   16   21 1
    21   17   18 1
    22   17   19 1
    23   17   36 1
    24   18   37 1
    25   19   20 1
    26   19   21 1
    27   19   38 1
    28   20   39 1
    29   21   22 1
    30   21   40 1
    31   22   23 ar
    32   22   32 ar
    33   23   24 ar
    34   23   41 1
    35   24   25 ar
    36   24   45 1
    37   25   26 ar
    38   25   32 ar
    39   26   27 2
    40   26   28 ar
    41   28   29 ar
    42   28   42 1
    43   29   30 1
    44   29   31 ar
    45   30   43 1
    46   30   44 1
    47   31   32 ar
@<TRIPOS>SUBSTRUCTURE
     1 GTP         1 GROUP 0 A     ****
@<TRIPOS>MOLECULE
[[[5-(2-amino-6-oxo-7,8-dihydro-1~{H}-purin-8-ylium-9-yl)-3,4-dihydroxy-tetrahydrofuran-2-yl]methoxy-oxido-phosphoryl]oxy-oxido-phosphoryl] phosphate
   45    47     1     0     0
SMALL
USER_CHARGES

@<TRIPOS>ATOM
      1 PG          8.5941   -0.5420   -0.6200 P.3       1 GTP        -1.1921
      2 O1G         8.0409    0.1218    0.6367 O.co2     1 GTP         0.3195
      3 O2G         9.0994   -1.9653   -0.4092 O.co2     1 GTP         0.3195
      4 O3G         9.5340    0.3420   -1.4330 O.co2     1 GTP         0.3195
      5 O3B         7.2775   -0.7199   -1.5972 O.3       1 GTP         0.4672
      6 PB          6.2644    0.4056   -2.2102 P.3       1 GTP        -1.1062
      7 O1B         5.5052    1.0493   -1.0713 O.co2     1 GTP         0.3195
      8 O2B         7.0066    1.2342   -3.2348 O.co2     1 GTP         0.3195
      9 O3A         5.2619   -0.5741   -3.0472 O.3       1 GTP         0.4672
     10 PA          3.9556   -0.2056   -3.9568 P.3       1 GTP        -1.1062
     11 O1A         4.3662    0.8291   -4.9816 O.co2     1 GTP         0.3195
     12 O2A         3.2651   -1.4864   -4.3727 O.co2     1 GTP         0.3195
     13 O5'         3.0213    0.5153   -2.8245 O.3       1 GTP         0.1618
     14 C5'         2.2816   -0.2918   -1.9206 C.3       1 GTP         0.1504
     15 C4'         2.7248    0.0226   -0.4980 C.3       1 GTP         0.1111
     16 O4'         2.4697    1.4219   -0.2462 O.3       1 GTP        -0.1436
     17 C3'         1.9404   -0.7419    0.5596 C.3       1 GTP         0.1111
     18 O3'         2.7418   -0.8086    1.7389 O.3       1 GTP        -0.2728
     19 C2'         0.7477    0.1630    0.7858 C.3       1 GTP         0.1111
     20 O2'         0.1373   -0.0577    2.0407 O.3       1 GTP        -0.2728
     21 C1'         1.3733    1.5427    0.6747 C.3       1 GTP         0.2693
     22 N9          0.4520    2.5240    0.1767 N.pl3     1 GTP        -0.3222
     23 C8          0.2203    2.8205   -1.0970 C.ar      1 GTP         0.1640
     24 N7         -0.6947    3.7752   -1.2304 N.pl3     1 GTP        -0.3688
     25 C5         -1.0607    4.0987    0.0476 C.ar      1 GTP         0.0648
     26 C6         -2.0310    5.0839    0.5029 C.ar      1 GTP         0.3597
     27 O6         -2.6779    5.7867   -0.2609 O.2       1 GTP        -0.2755
     28 N1         -2.1030    5.0975    1.8948 N.pl3     1 GTP        -0.1604
     29 C2         -1.3422    4.2721    2.7403 C.ar      1 GTP         0.4468
     30 N2         -1.5624    4.4419    4.0823 N.pl3     1 GTP        -0.5618
     31 N3         -0.4796    3.3981    2.2792 N.2       1 GTP        -0.4283
     32 C4         -0.3754    3.3496    0.9208 C.ar      1 GTP         0.2226
     33 H5'         1.2163   -0.0770   -2.0471 H         1 GTP        -0.0393
     34 H5''        2.4655   -1.3443   -2.1563 H         1 GTP        -0.0393
     35 H4'         3.8044   -0.1397   -0.4040 H         1 GTP        -0.0393
     36 H3'         1.6764   -1.7639    0.2728 H         1 GTP        -0.0393
     37 HO3'        2.2232   -1.2979    2.3953 H         1 GTP         0.2010
     38 H2'        -0.0011    0.0027    0.0003 H         1 GTP        -0.0393
     39 HO2'       -0.6141    0.5574    2.1082 H         1 GTP         0.2010
     40 H1'         1.7826    1.9024    1.6451 H         1 GTP        -0.0393
     41 H8          0.7110    2.3472   -1.9295 H         1 GTP         0.0000
     42 HN1        -2.7504    5.7495    2.3282 H         1 GTP         0.0865
     43 HN21       -1.0467    3.8796    4.7190 H         1 GTP         0.2048
     44 HN22       -2.2294    5.1209    4.3680 H         1 GTP         0.2048
     45 H45        -1.0382    4.1687   -2.0954 H         1 GTP         0.2048
@<TRIPOS>BOND
     1    1    2 2
     2    1    3 1
     3    1    4 1
     4    1    5 1
     5    5    6 1
     6    6    7 2
     7    6    8 1
     8    6    9 1
     9    9   10 1
    10   10   11 2
    11   10   12 1
    12   10   13 1
    13   13   14 1
    14   14   15 1
    15   14   33 1
    16   14   34 1
    17   15   16 1
    18   15   17 1
    19   15   35 1
    20   16   21 1
    21   17   18 1
    22   17   19 1
    23   17   36 1
    24   18   37 1
    25   19   20 1
    26   19   21 1
    27   19   38 1
    28   20   39 1
    29   21   22 1
    30   21   40 1
    31   22   23 ar
    32   22   32 ar
    33   23   24 ar
    34   23   41 1
    35   24   25 ar
    36   24   45 1
    37   25   26 ar
    38   25   32 ar
    39   26   27 2
    40   26   28 ar
    41   28   29 ar
    42   28   42 1
    43   29   30 1
    44   29   31 ar
    45   30   43 1
    46   30   44 1
    47   31   32 ar
@<TRIPOS>SUBSTRUCTURE
     1 GTP         1 GROUP 0 A     ****
@<TRIPOS>MOLECULE
[[[5-(2-amino-6-oxo-7,8-dihydro-1~{H}-purin-8-ylium-9-yl)-3,4-dihydroxy-tetrahydrofuran-2-yl]methoxy-oxido-phosphoryl]oxy-oxido-phosphoryl] phosphate
   45    47     1     0     0
SMALL
USER_CHARGES

@<TRIPOS>ATOM
      1 PG          8.0665   -1.0410    0.8933 P.3       1 GTP        -1.1921
      2 O1G         9.2106   -0.1270    0.4671 O.co2     1 GTP         0.3195
      3 O2G         7.4892   -0.7263    2.2692 O.co2     1 GTP         0.3195
      4 O3G         8.3246   -2.5238    0.6469 O.co2     1 GTP         0.3195
      5 O3B         6.8447   -0.6751   -0.1522 O.3       1 GTP         0.4672
      6 PB          6.7900   -0.7788   -1.7817 P.3       1 GTP        -1.1062
      7 O1B         7.7729    0.2113   -2.3659 O.co2     1 GTP         0.3195
      8 O2B         6.8002   -2.2362   -2.1857 O.co2     1 GTP         0.3195
      9 O3A         5.2674   -0.2426   -2.0262 O.3       1 GTP         0.4672
     10 PA          4.4374   -0.0458   -3.4198 P.3       1 GTP        -1.1062
     11 O1A         5.1018    1.0549   -4.2177 O.co2     1 GTP         0.3195
     12 O2A         4.1709   -1.4036   -4.0326 O.co2     1 GTP         0.3195
     13 O5'         3.0213    0.5153   -2.8245 O.3       1 GTP         0.1618
     14 C5'         2.2816   -0.2918   -1.9206 C.3       1 GTP         0.1504
     15 C4'         2.7248    0.0226   -0.4980 C.3       1 GTP         0.1111
     16 O4'         2.4697    1.4219   -0.2462 O.3       1 GTP        -0.1436
     17 C3'         1.9404   -0.7419    0.5596 C.3       1 GTP         0.1111
     18 O3'         2.7418   -0.8086    1.7389 O.3       1 GTP        -0.2728
     19 C2'         0.7477    0.1630    0.7858 C.3       1 GTP         0.1111
     20 O2'         0.1373   -0.0577    2.0407 O.3       1 GTP        -0.2728
     21 C1'         1.3733    1.5427    0.6747 C.3       1 GTP         0.2693
     22 N9          0.4520    2.5240    0.1767 N.pl3     1 GTP        -0.3222
     23 C8         -0.6818    2.9109    0.7501 C.ar      1 GTP         0.1640
     24 N7         -1.3103    3.8415    0.0391 N.pl3     1 GTP        -0.3688
     25 C5         -0.5155    4.0512   -1.0547 C.ar      1 GTP         0.0648
     26 C6         -0.7125    4.9651   -2.1705 C.ar      1 GTP         0.3597
     27 O6         -1.6819    5.7047   -2.2651 O.2       1 GTP        -0.2755
     28 N1          0.3401    4.8672   -3.0790 N.pl3     1 GTP        -0.1604
     29 C2          1.4396    4.0039   -2.9348 C.ar      1 GTP         0.4468
     30 N2          2.3679    4.0602   -3.9414 N.pl3     1 GTP        -0.5618
     31 N3          1.5708    3.1983   -1.9080 N.2       1 GTP        -0.4283
     32 C4          0.5630    3.2599   -0.9921 C.ar      1 GTP         0.2226
     33 H5'         1.2163   -0.0770   -2.0471 H         1 GTP        -0.0393
     34 H5''        2.4655   -1.3443   -2.1563 H         1 GTP        -0.0393
     35 H4'         3.8044   -0.1397   -0.4040 H         1 GTP        -0.0393
     36 H3'         1.6764   -1.7639    0.2728 H         1 GTP        -0.0393
     37 HO3'        2.2232   -1.2979    2.3953 H         1 GTP         0.2010
     38 H2'        -0.0011    0.0027    0.0003 H         1 GTP        -0.0393
     39 HO2'       -0.1563   -0.9855    2.0596 H         1 GTP         0.2010
     40 H1'         1.7826    1.9024    1.6451 H         1 GTP        -0.0393
     41 H8         -1.0545    2.5222    1.6816 H         1 GTP         0.0000
     42 HN1         0.3104    5.4612   -3.9026 H         1 GTP         0.0865
     43 HN21        3.1632    3.4672   -3.8824 H         1 GTP         0.2048
     44 HN22        2.2108    4.6918   -4.6924 H         1 GTP         0.2048
     45 H45        -2.1863    4.2902    0.2681 H         1 GTP         0.2048
@<TRIPOS>BOND
     1    1    2 2
     2    1    3 1
     3    1    4 1
     4    1    5 1
     5    5    6 1
     6    6    7 2
     7    6    8 1
     8    6    9 1
     9    9   10 1
    10   10   11 2
    11   10   12 1
    12   10   13 1
    13   13   14 1
    14   14   15 1
    15   14   33 1
    16   14   34 1
    17   15   16 1
    18   15   17 1
    19   15   35 1
    20   16   21 1
    21   17   18 1
    22   17   19 1
    23   17   36 1
    24   18   37 1
    25   19   20 1
    26   19   21 1
    27   19   38 1
    28   20   39 1
    29   21   22 1
    30   21   40 1
    31   22   23 ar
    32   22   32 ar
    33   23   24 ar
    34   23   41 1
    35   24   25 ar
    36   24   45 1
    37   25   26 ar
    38   25   32 ar
    39   26   27 2
    40   26   28 ar
    41   28   29 ar
    42   28   42 1
    43   29   30 1
    44   29   31 ar
    45   30   43 1
    46   30   44 1
    47   31   32 ar
@<TRIPOS>SUBSTRUCTURE
     1 GTP         1 GROUP 0 A     ****
@<TRIPOS>MOLECULE
[[[5-(2-amino-6-oxo-7,8-dihydro-1~{H}-purin-8-ylium-9-yl)-3,4-dihydroxy-tetrahydrofuran-2-yl]methoxy-oxido-phosphoryl]oxy-oxido-phosphoryl] phosphate
   45    47     1     0     0
SMALL
USER_CHARGES

@<TRIPOS>ATOM
      1 PG          2.0302   -1.7360   -7.3622 P.3       1 GTP        -1.1921
      2 O1G         2.8583   -1.9079   -6.0931 O.co2     1 GTP         0.3195
      3 O2G         1.3219   -3.0038   -7.8275 O.co2     1 GTP         0.3195
      4 O3G         2.7403   -0.9715   -8.4744 O.co2     1 GTP         0.3195
      5 O3B         0.8043   -0.7286   -6.9127 O.3       1 GTP         0.4672
      6 PB          0.8587    0.7924   -6.3189 P.3       1 GTP        -1.1062
      7 O1B         1.6610    1.6565   -7.2661 O.co2     1 GTP         0.3195
      8 O2B        -0.5253    1.1947   -5.8606 O.co2     1 GTP         0.3195
      9 O3A         1.7299    0.5134   -4.9666 O.3       1 GTP         0.4672
     10 PA          2.2228    1.5519   -3.8055 P.3       1 GTP        -1.1062
     11 O1A         3.2202    2.5111   -4.4175 O.co2     1 GTP         0.3195
     12 O2A         1.0138    2.0587   -3.0494 O.co2     1 GTP         0.3195
     13 O5'         3.0213    0.5153   -2.8245 O.3       1 GTP         0.1618
     14 C5'         2.2816   -0.2918   -1.9206 C.3       1 GTP         0.1504
     15 C4'         2.7248    0.0226   -0.4980 C.3       1 GTP         0.1111
     16 O4'         2.4697    1.4219   -0.2462 O.3       1 GTP        -0.1436
     17 C3'         1.9404   -0.7419    0.5596 C.3       1 GTP         0.1111
     18 O3'         2.7418   -0.8086    1.7389 O.3       1 GTP        -0.2728
     19 C2'         0.7477    0.1630    0.7858 C.3       1 GTP         0.1111
     20 O2'         0.1373   -0.0577    2.0407 O.3       1 GTP        -0.2728
     21 C1'         1.3733    1.5427    0.6747 C.3       1 GTP         0.2693
     22 N9          0.4520    2.5240    0.1767 N.pl3     1 GTP        -0.3222
     23 C8         -0.8613    2.5511    0.3730 C.ar      1 GTP         0.1640
     24 N7         -1.4346    3.5939   -0.2188 N.pl3     1 GTP        -0.3688
     25 C5         -0.4099    4.2657   -0.8276 C.ar      1 GTP         0.0648
     26 C6         -0.4554    5.4854   -1.6209 C.ar      1 GTP         0.3597
     27 O6         -1.4907    6.0944   -1.8508 O.2       1 GTP        -0.2755
     28 N1          0.8205    5.8357   -2.0593 N.pl3     1 GTP        -0.1604
     29 C2          1.9890    5.1091   -1.7730 C.ar      1 GTP         0.4468
     30 N2          3.1452    5.6230   -2.2997 N.pl3     1 GTP        -0.5618
     31 N3          1.9765    4.0139   -1.0514 N.2       1 GTP        -0.4283
     32 C4          0.7480    3.6324   -0.6003 C.ar      1 GTP         0.2226
     33 H5'         1.2163   -0.0770   -2.0471 H         1 GTP        -0.0393
     34 H5''        2.4655   -1.3443   -2.1563 H         1 GTP        -0.0393
     35 H4'         3.8044   -0.1397   -0.4040 H         1 GTP        -0.0393
     36 H3'         1.6764   -1.7639    0.2728 H         1 GTP        -0.0393
     37 HO3'        3.5554   -1.2733    1.4914 H         1 GTP         0.2010
     38 H2'        -0.0011    0.0027    0.0003 H         1 GTP        -0.0393
     39 HO2'        0.8082    0.1199    2.7232 H         1 GTP         0.2010
     40 H1'         1.7826    1.9024    1.6451 H         1 GTP        -0.0393
     41 H8         -1.4050    1.8187    0.9438 H         1 GTP         0.0000
     42 HN1         0.9121    6.6744   -2.6251 H         1 GTP         0.0865
     43 HN21        3.9971    5.1427   -2.1235 H         1 GTP         0.2048
     44 HN22        3.0881    6.4564   -2.8380 H         1 GTP         0.2048
     45 H45        -2.4173    3.8294   -0.2127 H         1 GTP         0.2048
@<TRIPOS>BOND
     1    1    2 2
     2    1    3 1
     3    1    4 1
     4    1    5 1
     5    5    6 1
     6    6    7 2
     7    6    8 1
     8    6    9 1
     9    9   10 1
    10   10   11 2
    11   10   12 1
    12   10   13 1
    13   13   14 1
    14   14   15 1
    15   14   33 1
    16   14   34 1
    17   15   16 1
    18   15   17 1
    19   15   35 1
    20   16   21 1
    21   17   18 1
    22   17   19 1
    23   17   36 1
    24   18   37 1
    25   19   20 1
    26   19   21 1
    27   19   38 1
    28   20   39 1
    29   21   22 1
    30   21   40 1
    31   22   23 ar
    32   22   32 ar
    33   23   24 ar
    34   23   41 1
    35   24   25 ar
    36   24   45 1
    37   25   26 ar
    38   25   32 ar
    39   26   27 2
    40   26   28 ar
    41   28   29 ar
    42   28   42 1
    43   29   30 1
    44   29   31 ar
    45   30   43 1
    46   30   44 1
    47   31   32 ar
@<TRIPOS>SUBSTRUCTURE
     1 GTP         1 GROUP 0 A     ****
@<TRIPOS>MOLECULE
[[[5-(2-amino-6-oxo-7,8-dihydro-1~{H}-purin-8-ylium-9-yl)-3,4-dihydroxy-tetrahydrofuran-2-yl]methoxy-oxido-phosphoryl]oxy-oxido-phosphoryl] phosphate
   45    47     1     0     0
SMALL
USER_CHARGES

@<TRIPOS>ATOM
      1 PG         -1.4807    1.2312   -4.4599 P.3       1 GTP        -1.1921
      2 O1G        -2.0421    2.3865   -3.6376 O.co2     1 GTP         0.3195
      3 O2G        -2.4730    0.6178   -5.4420 O.co2     1 GTP         0.3195
      4 O3G        -0.6913    0.2100   -3.6476 O.co2     1 GTP         0.3195
      5 O3B        -0.3409    1.9350   -5.4219 O.3       1 GTP         0.4672
      6 PB          1.0058    2.7672   -5.0184 P.3       1 GTP        -1.1062
      7 O1B         1.7816    3.0789   -6.2788 O.co2     1 GTP         0.3195
      8 O2B         0.6408    3.8486   -4.0260 O.co2     1 GTP         0.3195
      9 O3A         1.7849    1.6083   -4.1726 O.3       1 GTP         0.4672
     10 PA          3.2351    1.6560   -3.4214 P.3       1 GTP        -1.1062
     11 O1A         4.3114    1.8064   -4.4743 O.co2     1 GTP         0.3195
     12 O2A         3.1526    2.6065   -2.2467 O.co2     1 GTP         0.3195
     13 O5'         3.2903    0.1346   -2.8241 O.3       1 GTP         0.1618
     14 C5'         2.2816   -0.2918   -1.9206 C.3       1 GTP         0.1504
     15 C4'         2.7248    0.0226   -0.4980 C.3       1 GTP         0.1111
     16 O4'         2.4697    1.4219   -0.2462 O.3       1 GTP        -0.1436
     17 C3'         1.9404   -0.7419    0.5596 C.3       1 GTP         0.1111
     18 O3'         2.7418   -0.8086    1.7389 O.3       1 GTP        -0.2728
     19 C2'         0.7477    0.1630    0.7858 C.3       1 GTP         0.1111
     20 O2'         0.1373   -0.0577    2.0407 O.3       1 GTP        -0.2728
     21 C1'         1.3733    1.5427    0.6747 C.3       1 GTP         0.2693
     22 N9          0.4520    2.5240    0.1767 N.pl3     1 GTP        -0.3222
     23 C8          0.2203    2.8205   -1.0970 C.ar      1 GTP         0.1640
     24 N7         -0.6947    3.7752   -1.2304 N.pl3     1 GTP        -0.3688
     25 C5         -1.0607    4.0987    0.0476 C.ar      1 GTP         0.0648
     26 C6         -2.0310    5.0839    0.5029 C.ar      1 GTP         0.3597
     27 O6         -2.6779    5.7867   -0.2609 O.2       1 GTP        -0.2755
     28 N1         -2.1030    5.0975    1.8948 N.pl3     1 GTP        -0.1604
     29 C2         -1.3422    4.2721    2.7403 C.ar      1 GTP         0.4468
     30 N2         -1.5624    4.4419    4.0823 N.pl3     1 GTP        -0.5618
     31 N3         -0.4796    3.3981    2.2792 N.2       1 GTP        -0.4283
     32 C4         -0.3754    3.3496    0.9208 C.ar      1 GTP         0.2226
     33 H5'         1.3514    0.2330   -2.1577 H         1 GTP        -0.0393
     34 H5''        2.1280   -1.3678   -2.0460 H         1 GTP        -0.0393
     35 H4'         3.8044   -0.1397   -0.4040 H         1 GTP        -0.0393
     36 H3'         1.6764   -1.7639    0.2728 H         1 GTP        -0.0393
     37 HO3'        3.5554   -1.2733    1.4914 H         1 GTP         0.2010
     38 H2'        -0.0011    0.0027    0.0003 H         1 GTP        -0.0393
     39 HO2'       -0.6141    0.5574    2.1082 H         1 GTP         0.2010
     40 H1'         1.7826    1.9024    1.6451 H         1 GTP        -0.0393
     41 H8          0.7110    2.3472   -1.9295 H         1 GTP         0.0000
     42 HN1        -2.7504    5.7495    2.3282 H         1 GTP         0.0865
     43 HN21       -1.0467    3.8796    4.7190 H         1 GTP         0.2048
     44 HN22       -2.2294    5.1209    4.3680 H         1 GTP         0.2048
     45 H45        -1.0382    4.1687   -2.0954 H         1 GTP         0.2048
@<TRIPOS>BOND
     1    1    2 2
     2    1    3 1
     3    1    4 1
     4    1    5 1
     5    5    6 1
     6    6    7 2
     7    6    8 1
     8    6    9 1
     9    9   10 1
    10   10   11 2
    11   10   12 1
    12   10   13 1
    13   13   14 1
    14   14   15 1
    15   14   33 1
    16   14   34 1
    17   15   16 1
    18   15   17 1
    19   15   35 1
    20   16   21 1
    21   17   18 1
    22   17   19 1
    23   17   36 1
    24   18   37 1
    25   19   20 1
    26   19   21 1
    27   19   38 1
    28   20   39 1
    29   21   22 1
    30   21   40 1
    31   22   23 ar
    32   22   32 ar
    33   23   24 ar
    34   23   41 1
    35   24   25 ar
    36   24   45 1
    37   25   26 ar
    38   25   32 ar
    39   26   27 2
    40   26   28 ar
    41   28   29 ar
    42   28   42 1
    43   29   30 1
    44   29   31 ar
    45   30   43 1
    46   30   44 1
    47   31   32 ar
@<TRIPOS>SUBSTRUCTURE
     1 GTP         1 GROUP 0 A     ****
@<TRIPOS>MOLECULE
[[[5-(2-amino-6-oxo-7,8-dihydro-1~{H}-purin-8-ylium-9-yl)-3,4-dihydroxy-tetrahydrofuran-2-yl]methoxy-oxido-phosphoryl]oxy-oxido-phosphoryl] phosphate
   45    47     1     0     0
SMALL
USER_CHARGES

@<TRIPOS>ATOM
      1 PG         -6.0776   -5.8675   -0.7420 P.3       1 GTP        -1.1921
      2 O1G        -7.2025   -5.2487    0.0811 O.co2     1 GTP         0.3195
      3 O2G        -5.6778   -5.0570   -1.9704 O.co2     1 GTP         0.3195
      4 O3G        -6.2416   -7.3610   -1.0037 O.co2     1 GTP         0.3195
      5 O3B        -4.7594   -5.7833    0.2455 O.3       1 GTP         0.4672
      6 PB         -4.5116   -6.4319    1.7244 P.3       1 GTP        -1.1062
      7 O1B        -5.4616   -5.7828    2.7062 O.co2     1 GTP         0.3195
      8 O2B        -4.4125   -7.9355    1.5952 O.co2     1 GTP         0.3195
      9 O3A        -2.9954   -5.8908    1.9957 O.3       1 GTP         0.4672
     10 PA         -1.6222   -6.1552    1.1506 P.3       1 GTP        -1.1062
     11 O1A        -1.2684   -7.6220    1.2647 O.co2     1 GTP         0.3195
     12 O2A        -1.7348   -5.4811   -0.1996 O.co2     1 GTP         0.3195
     13 O5'        -0.5687   -5.2869    2.0510 O.3       1 GTP         0.1618
     14 C5'        -0.7840   -3.8935    2.2172 C.3       1 GTP         0.1504
     15 C4'        -0.0724   -3.1466    1.1027 C.3       1 GTP         0.1111
     16 O4'        -0.8674   -3.1929   -0.0945 O.3       1 GTP        -0.1436
     17 C3'         0.1338   -1.6715    1.4027 C.3       1 GTP         0.1111
     18 O3'         1.2893   -1.4445    2.1808 O.3       1 GTP        -0.2728
     19 C2'         0.2158   -1.0724    0.0128 C.3       1 GTP         0.1111
     20 O2'         1.5141   -1.2448   -0.5513 O.3       1 GTP        -0.2728
     21 C1'        -0.7897   -1.9176   -0.7583 C.3       1 GTP         0.2693
     22 N9         -2.1040   -1.3333   -0.7704 N.pl3     1 GTP        -0.3222
     23 C8         -3.0597   -1.5109    0.1345 C.ar      1 GTP         0.1640
     24 N7         -4.1618   -0.8291   -0.1607 N.pl3     1 GTP        -0.3688
     25 C5         -3.8764   -0.1805   -1.3310 C.ar      1 GTP         0.0648
     26 C6         -4.7187    0.7111   -2.1152 C.ar      1 GTP         0.3597
     27 O6         -5.8617    1.0043   -1.7939 O.2       1 GTP        -0.2755
     28 N1         -4.0405    1.1608   -3.2468 N.pl3     1 GTP        -0.1604
     29 C2         -2.7239    0.8013   -3.5822 C.ar      1 GTP         0.4468
     30 N2         -2.2399    1.3534   -4.7394 N.pl3     1 GTP        -0.5618
     31 N3         -2.0053   -0.0071   -2.8402 N.2       1 GTP        -0.4283
     32 C4         -2.6290   -0.4727   -1.7210 C.ar      1 GTP         0.2226
     33 H5'        -1.8598   -3.6968    2.1850 H         1 GTP        -0.0393
     34 H5''       -0.3933   -3.5903    3.1931 H         1 GTP        -0.0393
     35 H4'         0.8874   -3.6466    0.8805 H         1 GTP        -0.0393
     36 H3'        -0.7376   -1.2333    1.9867 H         1 GTP        -0.0393
     37 HO3'        1.3408   -0.4870    2.3219 H         1 GTP         0.2010
     38 H2'        -0.0384   -0.0310    0.0096 H         1 GTP        -0.0393
     39 HO2'        1.4998   -0.8412   -1.4369 H         1 GTP         0.2010
     40 H1'        -0.4769   -2.1002   -1.8093 H         1 GTP        -0.0393
     41 H8         -2.9610   -2.1316    1.0079 H         1 GTP         0.0000
     42 HN1        -4.5320    1.7923   -3.8726 H         1 GTP         0.0865
     43 HN21       -1.3128    1.1277   -5.0171 H         1 GTP         0.2048
     44 HN22       -2.8342    1.9586   -5.2572 H         1 GTP         0.2048
     45 H45        -5.0195   -0.8034    0.3729 H         1 GTP         0.2048
@<TRIPOS>BOND
     1    1    2 2
     2    1    3 1
     3    1    4 1
     4    1    5 1
     5    5    6 1
     6    6    7 2
     7    6    8 1
     8    6    9 1
     9    9   10 1
    10   10   11 2
    11   10   12 1
    12   10   13 1
    13   13   14 1
    14   14   15 1
    15   14   33 1
    16   14   34 1
    17   15   16 1
    18   15   17 1
    19   15   35 1
    20   16   21 1
    21   17   18 1
    22   17   19 1
    23   17   36 1
    24   18   37 1
    25   19   20 1
    26   19   21 1
    27   19   38 1
    28   20   39 1
    29   21   22 1
    30   21   40 1
    31   22   23 ar
    32   22   32 ar
    33   23   24 ar
    34   23   41 1
    35   24   25 ar
    36   24   45 1
    37   25   26 ar
    38   25   32 ar
    39   26   27 2
    40   26   28 ar
    41   28   29 ar
    42   28   42 1
    43   29   30 1
    44   29   31 ar
    45   30   43 1
    46   30   44 1
    47   31   32 ar
@<TRIPOS>SUBSTRUCTURE
     1 GTP         1 GROUP 0 A     ****
@<TRIPOS>MOLECULE
[[[5-(2-amino-6-oxo-7,8-dihydro-1~{H}-purin-8-ylium-9-yl)-3,4-dihydroxy-tetrahydrofuran-2-yl]methoxy-oxido-phosphoryl]oxy-oxido-phosphoryl] phosphate
   45    47     1     0     0
SMALL
USER_CHARGES

@<TRIPOS>ATOM
      1 PG          6.9648   -2.0018   -0.6079 P.3       1 GTP        -1.1921
      2 O1G         5.9701   -2.8486   -1.3949 O.co2     1 GTP         0.3195
      3 O2G         8.3261   -2.6582   -0.4034 O.co2     1 GTP         0.3195
      4 O3G         6.3846   -1.3595    0.6479 O.co2     1 GTP         0.3195
      5 O3B         7.2775   -0.7199   -1.5972 O.3       1 GTP         0.4672
      6 PB          6.2644    0.4056   -2.2102 P.3       1 GTP        -1.1062
      7 O1B         5.5052    1.0493   -1.0713 O.co2     1 GTP         0.3195
      8 O2B         7.0066    1.2342   -3.2348 O.co2     1 GTP         0.3195
      9 O3A         5.2619   -0.5741   -3.0472 O.3       1 GTP         0.4672
     10 PA          3.9556   -0.2056   -3.9568 P.3       1 GTP        -1.1062
     11 O1A         4.3662    0.8291   -4.9816 O.co2     1 GTP         0.3195
     12 O2A         3.2651   -1.4864   -4.3727 O.co2     1 GTP         0.3195
     13 O5'         3.0213    0.5153   -2.8245 O.3       1 GTP         0.1618
     14 C5'         2.2816   -0.2918   -1.9206 C.3       1 GTP         0.1504
     15 C4'         2.7248    0.0226   -0.4980 C.3       1 GTP         0.1111
     16 O4'         2.4697    1.4219   -0.2462 O.3       1 GTP        -0.1436
     17 C3'         1.9404   -0.7419    0.5596 C.3       1 GTP         0.1111
     18 O3'         2.7418   -0.8086    1.7389 O.3       1 GTP        -0.2728
     19 C2'         0.7477    0.1630    0.7858 C.3       1 GTP         0.1111
     20 O2'         0.1373   -0.0577    2.0407 O.3       1 GTP        -0.2728
     21 C1'         1.3733    1.5427    0.6747 C.3       1 GTP         0.2693
     22 N9          0.4520    2.5240    0.1767 N.pl3     1 GTP        -0.3222
     23 C8          0.5671    3.2221   -0.9473 C.ar      1 GTP         0.1640
     24 N7         -0.4560    4.0508   -1.1290 N.pl3     1 GTP        -0.3688
     25 C5         -1.2671    3.8585   -0.0441 C.ar      1 GTP         0.0648
     26 C6         -2.5318    4.5014    0.2817 C.ar      1 GTP         0.3597
     27 O6         -3.0527    5.3493   -0.4293 O.2       1 GTP        -0.2755
     28 N1         -3.0357    4.0149    1.4868 N.pl3     1 GTP        -0.1604
     29 C2         -2.4069    3.0373    2.2768 C.ar      1 GTP         0.4468
     30 N2         -3.0679    2.6964    3.4278 N.pl3     1 GTP        -0.5618
     31 N3         -1.2653    2.4872    1.9379 N.2       1 GTP        -0.4283
     32 C4         -0.7342    2.9334    0.7643 C.ar      1 GTP         0.2226
     33 H5'         1.2163   -0.0770   -2.0471 H         1 GTP        -0.0393
     34 H5''        2.4655   -1.3443   -2.1563 H         1 GTP        -0.0393
     35 H4'         3.8044   -0.1397   -0.4040 H         1 GTP        -0.0393
     36 H3'         1.6764   -1.7639    0.2728 H         1 GTP        -0.0393
     37 HO3'        2.2232   -1.2979    2.3953 H         1 GTP         0.2010
     38 H2'        -0.0011    0.0027    0.0003 H         1 GTP        -0.0393
     39 HO2'       -0.1563   -0.9855    2.0596 H         1 GTP         0.2010
     40 H1'         1.7826    1.9024    1.6451 H         1 GTP        -0.0393
     41 H8          1.3888    3.1325   -1.6361 H         1 GTP         0.0000
     42 HN1        -3.9188    4.3932    1.8170 H         1 GTP         0.0865
     43 HN21       -2.6609    2.0087    4.0186 H         1 GTP         0.2048
     44 HN22       -3.9293    3.1496    3.6283 H         1 GTP         0.2048
     45 H45        -0.5938    4.6820   -1.9060 H         1 GTP         0.2048
@<TRIPOS>BOND
     1    1    2 2
     2    1    3 1
     3    1    4 1
     4    1    5 1
     5    5    6 1
     6    6    7 2
     7    6    8 1
     8    6    9 1
     9    9   10 1
    10   10   11 2
    11   10   12 1
    12   10   13 1
    13   13   14 1
    14   14   15 1
    15   14   33 1
    16   14   34 1
    17   15   16 1
    18   15   17 1
    19   15   35 1
    20   16   21 1
    21   17   18 1
    22   17   19 1
    23   17   36 1
    24   18   37 1
    25   19   20 1
    26   19   21 1
    27   19   38 1
    28   20   39 1
    29   21   22 1
    30   21   40 1
    31   22   23 ar
    32   22   32 ar
    33   23   24 ar
    34   23   41 1
    35   24   25 ar
    36   24   45 1
    37   25   26 ar
    38   25   32 ar
    39   26   27 2
    40   26   28 ar
    41   28   29 ar
    42   28   42 1
    43   29   30 1
    44   29   31 ar
    45   30   43 1
    46   30   44 1
    47   31   32 ar
@<TRIPOS>SUBSTRUCTURE
     1 GTP         1 GROUP 0 A     ****
@<TRIPOS>MOLECULE
[[[5-(2-amino-6-oxo-7,8-dihydro-1~{H}-purin-8-ylium-9-yl)-3,4-dihydroxy-tetrahydrofuran-2-yl]methoxy-oxido-phosphoryl]oxy-oxido-phosphoryl] phosphate
   45    47     1     0     0
SMALL
USER_CHARGES

@<TRIPOS>ATOM
      1 PG          7.3761   -0.1971   -1.1349 P.3       1 GTP        -1.1921
      2 O1G         6.7349    0.2052    0.1891 O.co2     1 GTP         0.3195
      3 O2G         8.9000   -0.1397   -1.1389 O.co2     1 GTP         0.3195
      4 O3G         6.7229    0.4288   -2.3627 O.co2     1 GTP         0.3195
      5 O3B         7.0307   -1.8031   -1.2809 O.3       1 GTP         0.4672
      6 PB          5.5873   -2.5658   -1.3424 P.3       1 GTP        -1.1062
      7 O1B         5.8235   -4.0333   -1.6220 O.co2     1 GTP         0.3195
      8 O2B         4.7359   -2.1089   -0.1790 O.co2     1 GTP         0.3195
      9 O3A         4.9710   -1.8506   -2.6744 O.3       1 GTP         0.4672
     10 PA          3.5298   -2.0738   -3.4112 P.3       1 GTP        -1.1062
     11 O1A         3.3966   -1.0484   -4.5160 O.co2     1 GTP         0.3195
     12 O2A         3.3387   -3.5494   -3.6873 O.co2     1 GTP         0.3195
     13 O5'         2.5245   -1.6648   -2.1878 O.3       1 GTP         0.1618
     14 C5'         2.2816   -0.2918   -1.9206 C.3       1 GTP         0.1504
     15 C4'         2.7248    0.0226   -0.4980 C.3       1 GTP         0.1111
     16 O4'         2.4697    1.4219   -0.2462 O.3       1 GTP        -0.1436
     17 C3'         1.9404   -0.7419    0.5596 C.3       1 GTP         0.1111
     18 O3'         2.7418   -0.8086    1.7389 O.3       1 GTP        -0.2728
     19 C2'         0.7477    0.1630    0.7858 C.3       1 GTP         0.1111
     20 O2'         0.1373   -0.0577    2.0407 O.3       1 GTP        -0.2728
     21 C1'         1.3733    1.5427    0.6747 C.3       1 GTP         0.2693
     22 N9          0.4520    2.5240    0.1767 N.pl3     1 GTP        -0.3222
     23 C8         -0.2009    2.4849   -0.9792 C.ar      1 GTP         0.1640
     24 N7         -0.9840    3.5454   -1.1481 N.pl3     1 GTP        -0.3688
     25 C5         -0.8090    4.3005   -0.0206 C.ar      1 GTP         0.0648
     26 C6         -1.4206    5.5724    0.3362 C.ar      1 GTP         0.3597
     27 O6         -2.2199    6.1544   -0.3836 O.2       1 GTP        -0.2755
     28 N1         -0.9680    6.0043    1.5817 N.pl3     1 GTP        -0.1604
     29 C2         -0.0474    5.3055    2.3814 C.ar      1 GTP         0.4468
     30 N2          0.2680    5.9024    3.5740 N.pl3     1 GTP        -0.5618
     31 N3          0.4755    4.1601    2.0138 N.2       1 GTP        -0.4283
     32 C4          0.0611    3.6981    0.8001 C.ar      1 GTP         0.2226
     33 H5'         2.8432    0.3119   -2.6398 H         1 GTP        -0.0393
     34 H5''        1.2128   -0.0927   -2.0428 H         1 GTP        -0.0393
     35 H4'         3.8044   -0.1397   -0.4040 H         1 GTP        -0.0393
     36 H3'         1.6764   -1.7639    0.2728 H         1 GTP        -0.0393
     37 HO3'        2.2232   -1.2979    2.3953 H         1 GTP         0.2010
     38 H2'        -0.0011    0.0027    0.0003 H         1 GTP        -0.0393
     39 HO2'       -0.1563   -0.9855    2.0596 H         1 GTP         0.2010
     40 H1'         1.7826    1.9024    1.6451 H         1 GTP        -0.0393
     41 H8         -0.1126    1.6906   -1.6997 H         1 GTP         0.0000
     42 HN1        -1.3285    6.8855    1.9361 H         1 GTP         0.0865
     43 HN21        0.9153    5.4446    4.1732 H         1 GTP         0.2048
     44 HN22       -0.1624    6.7706    3.7948 H         1 GTP         0.2048
     45 H45        -1.5768    3.7405   -1.9429 H         1 GTP         0.2048
@<TRIPOS>BOND
     1    1    2 2
     2    1    3 1
     3    1    4 1
     4    1    5 1
     5    5    6 1
     6    6    7 2
     7    6    8 1
     8    6    9 1
     9    9   10 1
    10   10   11 2
    11   10   12 1
    12   10   13 1
    13   13   14 1
    14   14   15 1
    15   14   33 1
    16   14   34 1
    17   15   16 1
    18   15   17 1
    19   15   35 1
    20   16   21 1
    21   17   18 1
    22   17   19 1
    23   17   36 1
    24   18   37 1
    25   19   20 1
    26   19   21 1
    27   19   38 1
    28   20   39 1
    29   21   22 1
    30   21   40 1
    31   22   23 ar
    32   22   32 ar
    33   23   24 ar
    34   23   41 1
    35   24   25 ar
    36   24   45 1
    37   25   26 ar
    38   25   32 ar
    39   26   27 2
    40   26   28 ar
    41   28   29 ar
    42   28   42 1
    43   29   30 1
    44   29   31 ar
    45   30   43 1
    46   30   44 1
    47   31   32 ar
@<TRIPOS>SUBSTRUCTURE
     1 GTP         1 GROUP 0 A     ****
@<TRIPOS>MOLECULE
[[[5-(2-amino-6-oxo-7,8-dihydro-1~{H}-purin-8-ylium-9-yl)-3,4-dihydroxy-tetrahydrofuran-2-yl]methoxy-oxido-phosphoryl]oxy-oxido-phosphoryl] phosphate
   45    47     1     0     0
SMALL
USER_CHARGES

@<TRIPOS>ATOM
      1 PG         -5.2759   -9.3063    1.6362 P.3       1 GTP        -1.1921
      2 O1G        -5.8399   -9.1412    0.2289 O.co2     1 GTP         0.3195
      3 O2G        -4.3995  -10.5404    1.8218 O.co2     1 GTP         0.3195
      4 O3G        -6.2961   -9.0898    2.7490 O.co2     1 GTP         0.3195
      5 O3B        -4.2334   -8.0397    1.8060 O.3       1 GTP         0.4672
      6 PB         -4.5116   -6.4319    1.7244 P.3       1 GTP        -1.1062
      7 O1B        -4.9272   -6.0807    0.3132 O.co2     1 GTP         0.3195
      8 O2B        -5.3363   -6.0109    2.9202 O.co2     1 GTP         0.3195
      9 O3A        -2.9954   -5.8908    1.9957 O.3       1 GTP         0.4672
     10 PA         -1.6222   -6.1552    1.1506 P.3       1 GTP        -1.1062
     11 O1A        -1.2684   -7.6220    1.2647 O.co2     1 GTP         0.3195
     12 O2A        -1.7348   -5.4811   -0.1996 O.co2     1 GTP         0.3195
     13 O5'        -0.5687   -5.2869    2.0510 O.3       1 GTP         0.1618
     14 C5'        -0.7840   -3.8935    2.2172 C.3       1 GTP         0.1504
     15 C4'        -0.0724   -3.1466    1.1027 C.3       1 GTP         0.1111
     16 O4'        -0.8674   -3.1929   -0.0945 O.3       1 GTP        -0.1436
     17 C3'         0.1338   -1.6715    1.4027 C.3       1 GTP         0.1111
     18 O3'         1.2893   -1.4445    2.1808 O.3       1 GTP        -0.2728
     19 C2'         0.2158   -1.0724    0.0128 C.3       1 GTP         0.1111
     20 O2'         1.5141   -1.2448   -0.5513 O.3       1 GTP        -0.2728
     21 C1'        -0.7897   -1.9176   -0.7583 C.3       1 GTP         0.2693
     22 N9         -2.1040   -1.3333   -0.7704 N.pl3     1 GTP        -0.3222
     23 C8         -3.0597   -1.5109    0.1345 C.ar      1 GTP         0.1640
     24 N7         -4.1618   -0.8291   -0.1607 N.pl3     1 GTP        -0.3688
     25 C5         -3.8764   -0.1805   -1.3310 C.ar      1 GTP         0.0648
     26 C6         -4.7187    0.7111   -2.1152 C.ar      1 GTP         0.3597
     27 O6         -5.8617    1.0043   -1.7939 O.2       1 GTP        -0.2755
     28 N1         -4.0405    1.1608   -3.2468 N.pl3     1 GTP        -0.1604
     29 C2         -2.7239    0.8013   -3.5822 C.ar      1 GTP         0.4468
     30 N2         -2.2399    1.3534   -4.7394 N.pl3     1 GTP        -0.5618
     31 N3         -2.0053   -0.0071   -2.8402 N.2       1 GTP        -0.4283
     32 C4         -2.6290   -0.4727   -1.7210 C.ar      1 GTP         0.2226
     33 H5'        -1.8598   -3.6968    2.1850 H         1 GTP        -0.0393
     34 H5''       -0.3933   -3.5903    3.1931 H         1 GTP        -0.0393
     35 H4'         0.8874   -3.6466    0.8805 H         1 GTP        -0.0393
     36 H3'        -0.7376   -1.2333    1.9867 H         1 GTP        -0.0393
     37 HO3'        1.1626   -1.9325    3.0084 H         1 GTP         0.2010
     38 H2'        -0.0384   -0.0310    0.0096 H         1 GTP        -0.0393
     39 HO2'        1.4998   -0.8412   -1.4369 H         1 GTP         0.2010
     40 H1'        -0.4769   -2.1002   -1.8093 H         1 GTP        -0.0393
     41 H8         -2.9610   -2.1316    1.0079 H         1 GTP         0.0000
     42 HN1        -4.5320    1.7923   -3.8726 H         1 GTP         0.0865
     43 HN21       -1.3128    1.1277   -5.0171 H         1 GTP         0.2048
     44 HN22       -2.8342    1.9586   -5.2572 H         1 GTP         0.2048
     45 H45        -5.0195   -0.8034    0.3729 H         1 GTP         0.2048
@<TRIPOS>BOND
     1    1    2 2
     2    1    3 1
     3    1    4 1
     4    1    5 1
     5    5    6 1
     6    6    7 2
     7    6    8 1
     8    6    9 1
     9    9   10 1
    10   10   11 2
    11   10   12 1
    12   10   13 1
    13   13   14 1
    14   14   15 1
    15   14   33 1
    16   14   34 1
    17   15   16 1
    18   15   17 1
    19   15   35 1
    20   16   21 1
    21   17   18 1
    22   17   19 1
    23   17   36 1
    24   18   37 1
    25   19   20 1
    26   19   21 1
    27   19   38 1
    28   20   39 1
    29   21   22 1
    30   21   40 1
    31   22   23 ar
    32   22   32 ar
    33   23   24 ar
    34   23   41 1
    35   24   25 ar
    36   24   45 1
    37   25   26 ar
    38   25   32 ar
    39   26   27 2
    40   26   28 ar
    41   28   29 ar
    42   28   42 1
    43   29   30 1
    44   29   31 ar
    45   30   43 1
    46   30   44 1
    47   31   32 ar
@<TRIPOS>SUBSTRUCTURE
     1 GTP         1 GROUP 0 A     ****
@<TRIPOS>MOLECULE
[[[5-(2-amino-6-oxo-7,8-dihydro-1~{H}-purin-8-ylium-9-yl)-3,4-dihydroxy-tetrahydrofuran-2-yl]methoxy-oxido-phosphoryl]oxy-oxido-phosphoryl] phosphate
   45    47     1     0     0
SMALL
USER_CHARGES

@<TRIPOS>ATOM
      1 PG          0.2232    5.2343   -4.5768 P.3       1 GTP        -1.1921
      2 O1G         0.9443    5.7458   -5.8194 O.co2     1 GTP         0.3195
      3 O2G        -1.0816    4.4993   -4.8646 O.co2     1 GTP         0.3195
      4 O3G         0.1326    6.2500   -3.4428 O.co2     1 GTP         0.3195
      5 O3B         1.2231    4.0664   -3.9802 O.3       1 GTP         0.4672
      6 PB          2.7722    4.1691   -3.4713 P.3       1 GTP        -1.1062
      7 O1B         3.6511    4.5131   -4.6531 O.co2     1 GTP         0.3195
      8 O2B         2.8201    4.9705   -2.1895 O.co2     1 GTP         0.3195
      9 O3A         3.0122    2.6101   -3.0502 O.3       1 GTP         0.4672
     10 PA          2.9240    1.2545   -3.9582 P.3       1 GTP        -1.1062
     11 O1A         1.4857    1.0623   -4.3872 O.co2     1 GTP         0.3195
     12 O2A         4.0474    1.2642   -4.9720 O.co2     1 GTP         0.3195
     13 O5'         3.2903    0.1346   -2.8241 O.3       1 GTP         0.1618
     14 C5'         2.2816   -0.2918   -1.9206 C.3       1 GTP         0.1504
     15 C4'         2.7248    0.0226   -0.4980 C.3       1 GTP         0.1111
     16 O4'         2.4697    1.4219   -0.2462 O.3       1 GTP        -0.1436
     17 C3'         1.9404   -0.7419    0.5596 C.3       1 GTP         0.1111
     18 O3'         2.7418   -0.8086    1.7389 O.3       1 GTP        -0.2728
     19 C2'         0.7477    0.1630    0.7858 C.3       1 GTP         0.1111
     20 O2'         0.1373   -0.0577    2.0407 O.3       1 GTP        -0.2728
     21 C1'         1.3733    1.5427    0.6747 C.3       1 GTP         0.2693
     22 N9          0.4520    2.5240    0.1767 N.pl3     1 GTP        -0.3222
     23 C8          0.5671    3.2221   -0.9473 C.ar      1 GTP         0.1640
     24 N7         -0.4560    4.0508   -1.1290 N.pl3     1 GTP        -0.3688
     25 C5         -1.2671    3.8585   -0.0441 C.ar      1 GTP         0.0648
     26 C6         -2.5318    4.5014    0.2817 C.ar      1 GTP         0.3597
     27 O6         -3.0527    5.3493   -0.4293 O.2       1 GTP        -0.2755
     28 N1         -3.0357    4.0149    1.4868 N.pl3     1 GTP        -0.1604
     29 C2         -2.4069    3.0373    2.2768 C.ar      1 GTP         0.4468
     30 N2         -3.0679    2.6964    3.4278 N.pl3     1 GTP        -0.5618
     31 N3         -1.2653    2.4872    1.9379 N.2       1 GTP        -0.4283
     32 C4         -0.7342    2.9334    0.7643 C.ar      1 GTP         0.2226
     33 H5'         1.3514    0.2330   -2.1577 H         1 GTP        -0.0393
     34 H5''        2.1280   -1.3678   -2.0460 H         1 GTP        -0.0393
     35 H4'         3.8044   -0.1397   -0.4040 H         1 GTP        -0.0393
     36 H3'         1.6764   -1.7639    0.2728 H         1 GTP        -0.0393
     37 HO3'        3.5554   -1.2733    1.4914 H         1 GTP         0.2010
     38 H2'        -0.0011    0.0027    0.0003 H         1 GTP        -0.0393
     39 HO2'       -0.1563   -0.9855    2.0596 H         1 GTP         0.2010
     40 H1'         1.7826    1.9024    1.6451 H         1 GTP        -0.0393
     41 H8          1.3888    3.1325   -1.6361 H         1 GTP         0.0000
     42 HN1        -3.9188    4.3932    1.8170 H         1 GTP         0.0865
     43 HN21       -2.6609    2.0087    4.0186 H         1 GTP         0.2048
     44 HN22       -3.9293    3.1496    3.6283 H         1 GTP         0.2048
     45 H45        -0.5938    4.6820   -1.9060 H         1 GTP         0.2048
@<TRIPOS>BOND
     1    1    2 2
     2    1    3 1
     3    1    4 1
     4    1    5 1
     5    5    6 1
     6    6    7 2
     7    6    8 1
     8    6    9 1
     9    9   10 1
    10   10   11 2
    11   10   12 1
    12   10   13 1
    13   13   14 1
    14   14   15 1
    15   14   33 1
    16   14   34 1
    17   15   16 1
    18   15   17 1
    19   15   35 1
    20   16   21 1
    21   17   18 1
    22   17   19 1
    23   17   36 1
    24   18   37 1
    25   19   20 1
    26   19   21 1
    27   19   38 1
    28   20   39 1
    29   21   22 1
    30   21   40 1
    31   22   23 ar
    32   22   32 ar
    33   23   24 ar
    34   23   41 1
    35   24   25 ar
    36   24   45 1
    37   25   26 ar
    38   25   32 ar
    39   26   27 2
    40   26   28 ar
    41   28   29 ar
    42   28   42 1
    43   29   30 1
    44   29   31 ar
    45   30   43 1
    46   30   44 1
    47   31   32 ar
@<TRIPOS>SUBSTRUCTURE
     1 GTP         1 GROUP 0 A     ****
@<TRIPOS>MOLECULE
[[[5-(2-amino-6-oxo-7,8-dihydro-1~{H}-purin-8-ylium-9-yl)-3,4-dihydroxy-tetrahydrofuran-2-yl]methoxy-oxido-phosphoryl]oxy-oxido-phosphoryl] phosphate
   45    47     1     0     0
SMALL
USER_CHARGES

@<TRIPOS>ATOM
      1 PG         -0.0620    0.3024   -7.9002 P.3       1 GTP        -1.1921
      2 O1G        -0.2083   -1.1954   -7.6533 O.co2     1 GTP         0.3195
      3 O2G        -1.3823    1.0643   -7.9459 O.co2     1 GTP         0.3195
      4 O3G         0.9065    0.6603   -9.0227 O.co2     1 GTP         0.3195
      5 O3B         0.6843    0.8659   -6.5418 O.3       1 GTP         0.4672
      6 PB          2.1336    0.4716   -5.8991 P.3       1 GTP        -1.1062
      7 O1B         2.0885   -0.9701   -5.4440 O.co2     1 GTP         0.3195
      8 O2B         3.2321    0.9816   -6.8049 O.co2     1 GTP         0.3195
      9 O3A         2.1168    1.4543   -4.5954 O.3       1 GTP         0.4672
     10 PA          3.2351    1.6560   -3.4214 P.3       1 GTP        -1.1062
     11 O1A         4.5617    1.9713   -4.0773 O.co2     1 GTP         0.3195
     12 O2A         2.6642    2.5510   -2.3429 O.co2     1 GTP         0.3195
     13 O5'         3.2903    0.1346   -2.8241 O.3       1 GTP         0.1618
     14 C5'         2.2816   -0.2918   -1.9206 C.3       1 GTP         0.1504
     15 C4'         2.7248    0.0226   -0.4980 C.3       1 GTP         0.1111
     16 O4'         2.4697    1.4219   -0.2462 O.3       1 GTP        -0.1436
     17 C3'         1.9404   -0.7419    0.5596 C.3       1 GTP         0.1111
     18 O3'         2.7418   -0.8086    1.7389 O.3       1 GTP        -0.2728
     19 C2'         0.7477    0.1630    0.7858 C.3       1 GTP         0.1111
     20 O2'         0.1373   -0.0577    2.0407 O.3       1 GTP        -0.2728
     21 C1'         1.3733    1.5427    0.6747 C.3       1 GTP         0.2693
     22 N9          0.4520    2.5240    0.1767 N.pl3     1 GTP        -0.3222
     23 C8         -0.2009    2.4849   -0.9792 C.ar      1 GTP         0.1640
     24 N7         -0.9840    3.5454   -1.1481 N.pl3     1 GTP        -0.3688
     25 C5         -0.8090    4.3005   -0.0206 C.ar      1 GTP         0.0648
     26 C6         -1.4206    5.5724    0.3362 C.ar      1 GTP         0.3597
     27 O6         -2.2199    6.1544   -0.3836 O.2       1 GTP        -0.2755
     28 N1         -0.9680    6.0043    1.5817 N.pl3     1 GTP        -0.1604
     29 C2         -0.0474    5.3055    2.3814 C.ar      1 GTP         0.4468
     30 N2          0.2680    5.9024    3.5740 N.pl3     1 GTP        -0.5618
     31 N3          0.4755    4.1601    2.0138 N.2       1 GTP        -0.4283
     32 C4          0.0611    3.6981    0.8001 C.ar      1 GTP         0.2226
     33 H5'         1.3514    0.2330   -2.1577 H         1 GTP        -0.0393
     34 H5''        2.1280   -1.3678   -2.0460 H         1 GTP        -0.0393
     35 H4'         3.8044   -0.1397   -0.4040 H         1 GTP        -0.0393
     36 H3'         1.6764   -1.7639    0.2728 H         1 GTP        -0.0393
     37 HO3'        2.2232   -1.2979    2.3953 H         1 GTP         0.2010
     38 H2'        -0.0011    0.0027    0.0003 H         1 GTP        -0.0393
     39 HO2'       -0.6141    0.5574    2.1082 H         1 GTP         0.2010
     40 H1'         1.7826    1.9024    1.6451 H         1 GTP        -0.0393
     41 H8         -0.1126    1.6906   -1.6997 H         1 GTP         0.0000
     42 HN1        -1.3285    6.8855    1.9361 H         1 GTP         0.0865
     43 HN21        0.9153    5.4446    4.1732 H         1 GTP         0.2048
     44 HN22       -0.1624    6.7706    3.7948 H         1 GTP         0.2048
     45 H45        -1.5768    3.7405   -1.9429 H         1 GTP         0.2048
@<TRIPOS>BOND
     1    1    2 2
     2    1    3 1
     3    1    4 1
     4    1    5 1
     5    5    6 1
     6    6    7 2
     7    6    8 1
     8    6    9 1
     9    9   10 1
    10   10   11 2
    11   10   12 1
    12   10   13 1
    13   13   14 1
    14   14   15 1
    15   14   33 1
    16   14   34 1
    17   15   16 1
    18   15   17 1
    19   15   35 1
    20   16   21 1
    21   17   18 1
    22   17   19 1
    23   17   36 1
    24   18   37 1
    25   19   20 1
    26   19   21 1
    27   19   38 1
    28   20   39 1
    29   21   22 1
    30   21   40 1
    31   22   23 ar
    32   22   32 ar
    33   23   24 ar
    34   23   41 1
    35   24   25 ar
    36   24   45 1
    37   25   26 ar
    38   25   32 ar
    39   26   27 2
    40   26   28 ar
    41   28   29 ar
    42   28   42 1
    43   29   30 1
    44   29   31 ar
    45   30   43 1
    46   30   44 1
    47   31   32 ar
@<TRIPOS>SUBSTRUCTURE
     1 GTP         1 GROUP 0 A     ****
@<TRIPOS>MOLECULE
[[[5-(2-amino-6-oxo-7,8-dihydro-1~{H}-purin-8-ylium-9-yl)-3,4-dihydroxy-tetrahydrofuran-2-yl]methoxy-oxido-phosphoryl]oxy-oxido-phosphoryl] phosphate
   45    47     1     0     0
SMALL
USER_CHARGES

@<TRIPOS>ATOM
      1 PG         -6.2071   -6.1010    2.7232 P.3       1 GTP        -1.1921
      2 O1G        -6.4003   -7.5805    3.0391 O.co2     1 GTP         0.3195
      3 O2G        -7.3162   -5.1956    3.2483 O.co2     1 GTP         0.3195
      4 O3G        -5.7967   -5.8169    1.2821 O.co2     1 GTP         0.3195
      5 O3B        -4.8807   -5.6688    3.6028 O.3       1 GTP         0.4672
      6 PB         -3.3521   -6.2430    3.5495 P.3       1 GTP        -1.1062
      7 O1B        -2.4863   -5.4086    4.4669 O.co2     1 GTP         0.3195
      8 O2B        -3.3862   -7.7517    3.6491 O.co2     1 GTP         0.3195
      9 O3A        -2.9954   -5.8908    1.9957 O.3       1 GTP         0.4672
     10 PA         -1.6222   -6.1552    1.1506 P.3       1 GTP        -1.1062
     11 O1A        -1.2684   -7.6220    1.2647 O.co2     1 GTP         0.3195
     12 O2A        -1.7348   -5.4811   -0.1996 O.co2     1 GTP         0.3195
     13 O5'        -0.5687   -5.2869    2.0510 O.3       1 GTP         0.1618
     14 C5'        -0.7840   -3.8935    2.2172 C.3       1 GTP         0.1504
     15 C4'        -0.0724   -3.1466    1.1027 C.3       1 GTP         0.1111
     16 O4'        -0.8674   -3.1929   -0.0945 O.3       1 GTP        -0.1436
     17 C3'         0.1338   -1.6715    1.4027 C.3       1 GTP         0.1111
     18 O3'         1.2893   -1.4445    2.1808 O.3       1 GTP        -0.2728
     19 C2'         0.2158   -1.0724    0.0128 C.3       1 GTP         0.1111
     20 O2'         1.5141   -1.2448   -0.5513 O.3       1 GTP        -0.2728
     21 C1'        -0.7897   -1.9176   -0.7583 C.3       1 GTP         0.2693
     22 N9         -2.1040   -1.3333   -0.7704 N.pl3     1 GTP        -0.3222
     23 C8         -3.0597   -1.5109    0.1345 C.ar      1 GTP         0.1640
     24 N7         -4.1618   -0.8291   -0.1607 N.pl3     1 GTP        -0.3688
     25 C5         -3.8764   -0.1805   -1.3310 C.ar      1 GTP         0.0648
     26 C6         -4.7187    0.7111   -2.1152 C.ar      1 GTP         0.3597
     27 O6         -5.8617    1.0043   -1.7939 O.2       1 GTP        -0.2755
     28 N1         -4.0405    1.1608   -3.2468 N.pl3     1 GTP        -0.1604
     29 C2         -2.7239    0.8013   -3.5822 C.ar      1 GTP         0.4468
     30 N2         -2.2399    1.3534   -4.7394 N.pl3     1 GTP        -0.5618
     31 N3         -2.0053   -0.0071   -2.8402 N.2       1 GTP        -0.4283
     32 C4         -2.6290   -0.4727   -1.7210 C.ar      1 GTP         0.2226
     33 H5'        -1.8598   -3.6968    2.1850 H         1 GTP        -0.0393
     34 H5''       -0.3933   -3.5903    3.1931 H         1 GTP        -0.0393
     35 H4'         0.8874   -3.6466    0.8805 H         1 GTP        -0.0393
     36 H3'        -0.7376   -1.2333    1.9867 H         1 GTP        -0.0393
     37 HO3'        1.3408   -0.4870    2.3219 H         1 GTP         0.2010
     38 H2'        -0.0384   -0.0310    0.0096 H         1 GTP        -0.0393
     39 HO2'        2.1463   -0.7958    0.0370 H         1 GTP         0.2010
     40 H1'        -0.4769   -2.1002   -1.8093 H         1 GTP        -0.0393
     41 H8         -2.9610   -2.1316    1.0079 H         1 GTP         0.0000
     42 HN1        -4.5320    1.7923   -3.8726 H         1 GTP         0.0865
     43 HN21       -1.3128    1.1277   -5.0171 H         1 GTP         0.2048
     44 HN22       -2.8342    1.9586   -5.2572 H         1 GTP         0.2048
     45 H45        -5.0195   -0.8034    0.3729 H         1 GTP         0.2048
@<TRIPOS>BOND
     1    1    2 2
     2    1    3 1
     3    1    4 1
     4    1    5 1
     5    5    6 1
     6    6    7 2
     7    6    8 1
     8    6    9 1
     9    9   10 1
    10   10   11 2
    11   10   12 1
    12   10   13 1
    13   13   14 1
    14   14   15 1
    15   14   33 1
    16   14   34 1
    17   15   16 1
    18   15   17 1
    19   15   35 1
    20   16   21 1
    21   17   18 1
    22   17   19 1
    23   17   36 1
    24   18   37 1
    25   19   20 1
    26   19   21 1
    27   19   38 1
    28   20   39 1
    29   21   22 1
    30   21   40 1
    31   22   23 ar
    32   22   32 ar
    33   23   24 ar
    34   23   41 1
    35   24   25 ar
    36   24   45 1
    37   25   26 ar
    38   25   32 ar
    39   26   27 2
    40   26   28 ar
    41   28   29 ar
    42   28   42 1
    43   29   30 1
    44   29   31 ar
    45   30   43 1
    46   30   44 1
    47   31   32 ar
@<TRIPOS>SUBSTRUCTURE
     1 GTP         1 GROUP 0 A     ****
@<TRIPOS>MOLECULE
[[[5-(2-amino-6-oxo-7,8-dihydro-1~{H}-purin-8-ylium-9-yl)-3,4-dihydroxy-tetrahydrofuran-2-yl]methoxy-oxido-phosphoryl]oxy-oxido-phosphoryl] phosphate
   45    47     1     0     0
SMALL
USER_CHARGES

@<TRIPOS>ATOM
      1 PG          4.3949    4.8637   -1.0758 P.3       1 GTP        -1.1921
      2 O1G         5.4751    5.4859   -1.9543 O.co2     1 GTP         0.3195
      3 O2G         4.0087    5.7042    0.1366 O.co2     1 GTP         0.3195
      4 O3G         4.6117    3.3855   -0.7693 O.co2     1 GTP         0.3195
      5 O3B         3.0454    4.8754   -2.0236 O.3       1 GTP         0.4672
      6 PB          2.7722    4.1691   -3.4713 P.3       1 GTP        -1.1062
      7 O1B         1.3210    4.3722   -3.8460 O.co2     1 GTP         0.3195
      8 O2B         3.8928    4.5335   -4.4192 O.co2     1 GTP         0.3195
      9 O3A         3.0122    2.6101   -3.0502 O.3       1 GTP         0.4672
     10 PA          2.9240    1.2545   -3.9582 P.3       1 GTP        -1.1062
     11 O1A         1.4857    1.0623   -4.3872 O.co2     1 GTP         0.3195
     12 O2A         4.0474    1.2642   -4.9720 O.co2     1 GTP         0.3195
     13 O5'         3.2903    0.1346   -2.8241 O.3       1 GTP         0.1618
     14 C5'         2.2816   -0.2918   -1.9206 C.3       1 GTP         0.1504
     15 C4'         2.7248    0.0226   -0.4980 C.3       1 GTP         0.1111
     16 O4'         2.4697    1.4219   -0.2462 O.3       1 GTP        -0.1436
     17 C3'         1.9404   -0.7419    0.5596 C.3       1 GTP         0.1111
     18 O3'         2.7418   -0.8086    1.7389 O.3       1 GTP        -0.2728
     19 C2'         0.7477    0.1630    0.7858 C.3       1 GTP         0.1111
     20 O2'         0.1373   -0.0577    2.0407 O.3       1 GTP        -0.2728
     21 C1'         1.3733    1.5427    0.6747 C.3       1 GTP         0.2693
     22 N9          0.4520    2.5240    0.1767 N.pl3     1 GTP        -0.3222
     23 C8          0.5671    3.2221   -0.9473 C.ar      1 GTP         0.1640
     24 N7         -0.4560    4.0508   -1.1290 N.pl3     1 GTP        -0.3688
     25 C5         -1.2671    3.8585   -0.0441 C.ar      1 GTP         0.0648
     26 C6         -2.5318    4.5014    0.2817 C.ar      1 GTP         0.3597
     27 O6         -3.0527    5.3493   -0.4293 O.2       1 GTP        -0.2755
     28 N1         -3.0357    4.0149    1.4868 N.pl3     1 GTP        -0.1604
     29 C2         -2.4069    3.0373    2.2768 C.ar      1 GTP         0.4468
     30 N2         -3.0679    2.6964    3.4278 N.pl3     1 GTP        -0.5618
     31 N3         -1.2653    2.4872    1.9379 N.2       1 GTP        -0.4283
     32 C4         -0.7342    2.9334    0.7643 C.ar      1 GTP         0.2226
     33 H5'         1.3514    0.2330   -2.1577 H         1 GTP        -0.0393
     34 H5''        2.1280   -1.3678   -2.0460 H         1 GTP        -0.0393
     35 H4'         3.8044   -0.1397   -0.4040 H         1 GTP        -0.0393
     36 H3'         1.6764   -1.7639    0.2728 H         1 GTP        -0.0393
     37 HO3'        3.5554   -1.2733    1.4914 H         1 GTP         0.2010
     38 H2'        -0.0011    0.0027    0.0003 H         1 GTP        -0.0393
     39 HO2'        0.8082    0.1199    2.7232 H         1 GTP         0.2010
     40 H1'         1.7826    1.9024    1.6451 H         1 GTP        -0.0393
     41 H8          1.3888    3.1325   -1.6361 H         1 GTP         0.0000
     42 HN1        -3.9188    4.3932    1.8170 H         1 GTP         0.0865
     43 HN21       -2.6609    2.0087    4.0186 H         1 GTP         0.2048
     44 HN22       -3.9293    3.1496    3.6283 H         1 GTP         0.2048
     45 H45        -0.5938    4.6820   -1.9060 H         1 GTP         0.2048
@<TRIPOS>BOND
     1    1    2 2
     2    1    3 1
     3    1    4 1
     4    1    5 1
     5    5    6 1
     6    6    7 2
     7    6    8 1
     8    6    9 1
     9    9   10 1
    10   10   11 2
    11   10   12 1
    12   10   13 1
    13   13   14 1
    14   14   15 1
    15   14   33 1
    16   14   34 1
    17   15   16 1
    18   15   17 1
    19   15   35 1
    20   16   21 1
    21   17   18 1
    22   17   19 1
    23   17   36 1
    24   18   37 1
    25   19   20 1
    26   19   21 1
    27   19   38 1
    28   20   39 1
    29   21   22 1
    30   21   40 1
    31   22   23 ar
    32   22   32 ar
    33   23   24 ar
    34   23   41 1
    35   24   25 ar
    36   24   45 1
    37   25   26 ar
    38   25   32 ar
    39   26   27 2
    40   26   28 ar
    41   28   29 ar
    42   28   42 1
    43   29   30 1
    44   29   31 ar
    45   30   43 1
    46   30   44 1
    47   31   32 ar
@<TRIPOS>SUBSTRUCTURE
     1 GTP         1 GROUP 0 A     ****
@<TRIPOS>MOLECULE
[[[5-(2-amino-6-oxo-7,8-dihydro-1~{H}-purin-8-ylium-9-yl)-3,4-dihydroxy-tetrahydrofuran-2-yl]methoxy-oxido-phosphoryl]oxy-oxido-phosphoryl] phosphate
   45    47     1     0     0
SMALL
USER_CHARGES

@<TRIPOS>ATOM
      1 PG          0.7711    0.1868   -7.3288 P.3       1 GTP        -1.1921
      2 O1G         1.4082   -0.7646   -6.3214 O.co2     1 GTP         0.3195
      3 O2G        -0.6042   -0.2491   -7.8230 O.co2     1 GTP         0.3195
      4 O3G         1.7143    0.6529   -8.4329 O.co2     1 GTP         0.3195
      5 O3B         0.4742    1.5570   -6.4603 O.3       1 GTP         0.4672
      6 PB          1.5061    2.5352   -5.6558 P.3       1 GTP        -1.1062
      7 O1B         2.5958    2.9801   -6.6058 O.co2     1 GTP         0.3195
      8 O2B         0.7110    3.5310   -4.8414 O.co2     1 GTP         0.3195
      9 O3A         2.1168    1.4543   -4.5954 O.3       1 GTP         0.4672
     10 PA          3.2351    1.6560   -3.4214 P.3       1 GTP        -1.1062
     11 O1A         4.5617    1.9713   -4.0773 O.co2     1 GTP         0.3195
     12 O2A         2.6642    2.5510   -2.3429 O.co2     1 GTP         0.3195
     13 O5'         3.2903    0.1346   -2.8241 O.3       1 GTP         0.1618
     14 C5'         2.2816   -0.2918   -1.9206 C.3       1 GTP         0.1504
     15 C4'         2.7248    0.0226   -0.4980 C.3       1 GTP         0.1111
     16 O4'         2.4697    1.4219   -0.2462 O.3       1 GTP        -0.1436
     17 C3'         1.9404   -0.7419    0.5596 C.3       1 GTP         0.1111
     18 O3'         2.7418   -0.8086    1.7389 O.3       1 GTP        -0.2728
     19 C2'         0.7477    0.1630    0.7858 C.3       1 GTP         0.1111
     20 O2'         0.1373   -0.0577    2.0407 O.3       1 GTP        -0.2728
     21 C1'         1.3733    1.5427    0.6747 C.3       1 GTP         0.2693
     22 N9          0.4520    2.5240    0.1767 N.pl3     1 GTP        -0.3222
     23 C8         -0.2009    2.4849   -0.9792 C.ar      1 GTP         0.1640
     24 N7         -0.9840    3.5454   -1.1481 N.pl3     1 GTP        -0.3688
     25 C5         -0.8090    4.3005   -0.0206 C.ar      1 GTP         0.0648
     26 C6         -1.4206    5.5724    0.3362 C.ar      1 GTP         0.3597
     27 O6         -2.2199    6.1544   -0.3836 O.2       1 GTP        -0.2755
     28 N1         -0.9680    6.0043    1.5817 N.pl3     1 GTP        -0.1604
     29 C2         -0.0474    5.3055    2.3814 C.ar      1 GTP         0.4468
     30 N2          0.2680    5.9024    3.5740 N.pl3     1 GTP        -0.5618
     31 N3          0.4755    4.1601    2.0138 N.2       1 GTP        -0.4283
     32 C4          0.0611    3.6981    0.8001 C.ar      1 GTP         0.2226
     33 H5'         1.3514    0.2330   -2.1577 H         1 GTP        -0.0393
     34 H5''        2.1280   -1.3678   -2.0460 H         1 GTP        -0.0393
     35 H4'         3.8044   -0.1397   -0.4040 H         1 GTP        -0.0393
     36 H3'         1.6764   -1.7639    0.2728 H         1 GTP        -0.0393
     37 HO3'        3.5554   -1.2733    1.4914 H         1 GTP         0.2010
     38 H2'        -0.0011    0.0027    0.0003 H         1 GTP        -0.0393
     39 HO2'       -0.1563   -0.9855    2.0596 H         1 GTP         0.2010
     40 H1'         1.7826    1.9024    1.6451 H         1 GTP        -0.0393
     41 H8         -0.1126    1.6906   -1.6997 H         1 GTP         0.0000
     42 HN1        -1.3285    6.8855    1.9361 H         1 GTP         0.0865
     43 HN21        0.9153    5.4446    4.1732 H         1 GTP         0.2048
     44 HN22       -0.1624    6.7706    3.7948 H         1 GTP         0.2048
     45 H45        -1.5768    3.7405   -1.9429 H         1 GTP         0.2048
@<TRIPOS>BOND
     1    1    2 2
     2    1    3 1
     3    1    4 1
     4    1    5 1
     5    5    6 1
     6    6    7 2
     7    6    8 1
     8    6    9 1
     9    9   10 1
    10   10   11 2
    11   10   12 1
    12   10   13 1
    13   13   14 1
    14   14   15 1
    15   14   33 1
    16   14   34 1
    17   15   16 1
    18   15   17 1
    19   15   35 1
    20   16   21 1
    21   17   18 1
    22   17   19 1
    23   17   36 1
    24   18   37 1
    25   19   20 1
    26   19   21 1
    27   19   38 1
    28   20   39 1
    29   21   22 1
    30   21   40 1
    31   22   23 ar
    32   22   32 ar
    33   23   24 ar
    34   23   41 1
    35   24   25 ar
    36   24   45 1
    37   25   26 ar
    38   25   32 ar
    39   26   27 2
    40   26   28 ar
    41   28   29 ar
    42   28   42 1
    43   29   30 1
    44   29   31 ar
    45   30   43 1
    46   30   44 1
    47   31   32 ar
@<TRIPOS>SUBSTRUCTURE
     1 GTP         1 GROUP 0 A     ****
@<TRIPOS>MOLECULE
[[[5-(2-amino-6-oxo-7,8-dihydro-1~{H}-purin-8-ylium-9-yl)-3,4-dihydroxy-tetrahydrofuran-2-yl]methoxy-oxido-phosphoryl]oxy-oxido-phosphoryl] phosphate
   45    47     1     0     0
SMALL
USER_CHARGES

@<TRIPOS>ATOM
      1 PG          4.6888   -6.4244   -0.0727 P.3       1 GTP        -1.1921
      2 O1G         4.3933   -5.3355   -1.0988 O.co2     1 GTP         0.3195
      3 O2G         5.8923   -6.1383    0.8191 O.co2     1 GTP         0.3195
      4 O3G         4.6489   -7.8417   -0.6346 O.co2     1 GTP         0.3195
      5 O3B         3.4007   -6.3722    0.9558 O.3       1 GTP         0.4672
      6 PB          1.8093   -6.5911    0.6583 P.3       1 GTP        -1.1062
      7 O1B         1.3214   -5.4694   -0.2313 O.co2     1 GTP         0.3195
      8 O2B         1.5662   -8.0421    0.3076 O.co2     1 GTP         0.3195
      9 O3A         1.2297   -6.3781    2.1696 O.3       1 GTP         0.4672
     10 PA         -0.3075   -6.4382    2.7200 P.3       1 GTP        -1.1062
     11 O1A        -0.9121   -7.7598    2.2989 O.co2     1 GTP         0.3195
     12 O2A        -0.3330   -5.9924    4.1659 O.co2     1 GTP         0.3195
     13 O5'        -0.9724   -5.2440    1.8220 O.3       1 GTP         0.1618
     14 C5'        -0.7840   -3.8935    2.2172 C.3       1 GTP         0.1504
     15 C4'        -0.0724   -3.1466    1.1027 C.3       1 GTP         0.1111
     16 O4'        -0.8674   -3.1929   -0.0945 O.3       1 GTP        -0.1436
     17 C3'         0.1338   -1.6715    1.4027 C.3       1 GTP         0.1111
     18 O3'         1.2893   -1.4445    2.1808 O.3       1 GTP        -0.2728
     19 C2'         0.2158   -1.0724    0.0128 C.3       1 GTP         0.1111
     20 O2'         1.5141   -1.2448   -0.5513 O.3       1 GTP        -0.2728
     21 C1'        -0.7897   -1.9176   -0.7583 C.3       1 GTP         0.2693
     22 N9         -2.1040   -1.3333   -0.7704 N.pl3     1 GTP        -0.3222
     23 C8         -3.0597   -1.5109    0.1345 C.ar      1 GTP         0.1640
     24 N7         -4.1618   -0.8291   -0.1607 N.pl3     1 GTP        -0.3688
     25 C5         -3.8764   -0.1805   -1.3310 C.ar      1 GTP         0.0648
     26 C6         -4.7187    0.7111   -2.1152 C.ar      1 GTP         0.3597
     27 O6         -5.8617    1.0043   -1.7939 O.2       1 GTP        -0.2755
     28 N1         -4.0405    1.1608   -3.2468 N.pl3     1 GTP        -0.1604
     29 C2         -2.7239    0.8013   -3.5822 C.ar      1 GTP         0.4468
     30 N2         -2.2399    1.3534   -4.7394 N.pl3     1 GTP        -0.5618
     31 N3         -2.0053   -0.0071   -2.8402 N.2       1 GTP        -0.4283
     32 C4         -2.6290   -0.4727   -1.7210 C.ar      1 GTP         0.2226
     33 H5'        -1.7618   -3.4448    2.4164 H         1 GTP        -0.0393
     34 H5''       -0.1874   -3.8744    3.1341 H         1 GTP        -0.0393
     35 H4'         0.8874   -3.6466    0.8805 H         1 GTP        -0.0393
     36 H3'        -0.7376   -1.2333    1.9867 H         1 GTP        -0.0393
     37 HO3'        1.3408   -0.4870    2.3219 H         1 GTP         0.2010
     38 H2'        -0.0384   -0.0310    0.0096 H         1 GTP        -0.0393
     39 HO2'        2.1463   -0.7958    0.0370 H         1 GTP         0.2010
     40 H1'        -0.4769   -2.1002   -1.8093 H         1 GTP        -0.0393
     41 H8         -2.9610   -2.1316    1.0079 H         1 GTP         0.0000
     42 HN1        -4.5320    1.7923   -3.8726 H         1 GTP         0.0865
     43 HN21       -1.3128    1.1277   -5.0171 H         1 GTP         0.2048
     44 HN22       -2.8342    1.9586   -5.2572 H         1 GTP         0.2048
     45 H45        -5.0195   -0.8034    0.3729 H         1 GTP         0.2048
@<TRIPOS>BOND
     1    1    2 2
     2    1    3 1
     3    1    4 1
     4    1    5 1
     5    5    6 1
     6    6    7 2
     7    6    8 1
     8    6    9 1
     9    9   10 1
    10   10   11 2
    11   10   12 1
    12   10   13 1
    13   13   14 1
    14   14   15 1
    15   14   33 1
    16   14   34 1
    17   15   16 1
    18   15   17 1
    19   15   35 1
    20   16   21 1
    21   17   18 1
    22   17   19 1
    23   17   36 1
    24   18   37 1
    25   19   20 1
    26   19   21 1
    27   19   38 1
    28   20   39 1
    29   21   22 1
    30   21   40 1
    31   22   23 ar
    32   22   32 ar
    33   23   24 ar
    34   23   41 1
    35   24   25 ar
    36   24   45 1
    37   25   26 ar
    38   25   32 ar
    39   26   27 2
    40   26   28 ar
    41   28   29 ar
    42   28   42 1
    43   29   30 1
    44   29   31 ar
    45   30   43 1
    46   30   44 1
    47   31   32 ar
@<TRIPOS>SUBSTRUCTURE
     1 GTP         1 GROUP 0 A     ****
@<TRIPOS>MOLECULE
[[[5-(2-amino-6-oxo-7,8-dihydro-1~{H}-purin-8-ylium-9-yl)-3,4-dihydroxy-tetrahydrofuran-2-yl]methoxy-oxido-phosphoryl]oxy-oxido-phosphoryl] phosphate
   45    47     1     0     0
SMALL
USER_CHARGES

@<TRIPOS>ATOM
      1 PG         -3.3335   -8.9898    4.6934 P.3       1 GTP        -1.1921
      2 O1G        -4.7876   -8.8469    5.1305 O.co2     1 GTP         0.3195
      3 O2G        -3.0094  -10.3139    4.0099 O.co2     1 GTP         0.3195
      4 O3G        -2.3178   -8.5650    5.7488 O.co2     1 GTP         0.3195
      5 O3B        -3.1565   -7.8642    3.5011 O.3       1 GTP         0.4672
      6 PB         -3.3521   -6.2430    3.5495 P.3       1 GTP        -1.1062
      7 O1B        -4.8093   -5.9360    3.8141 O.co2     1 GTP         0.3195
      8 O2B        -2.2503   -5.6362    4.3893 O.co2     1 GTP         0.3195
      9 O3A        -2.9954   -5.8908    1.9957 O.3       1 GTP         0.4672
     10 PA         -1.6222   -6.1552    1.1506 P.3       1 GTP        -1.1062
     11 O1A        -1.2684   -7.6220    1.2647 O.co2     1 GTP         0.3195
     12 O2A        -1.7348   -5.4811   -0.1996 O.co2     1 GTP         0.3195
     13 O5'        -0.5687   -5.2869    2.0510 O.3       1 GTP         0.1618
     14 C5'        -0.7840   -3.8935    2.2172 C.3       1 GTP         0.1504
     15 C4'        -0.0724   -3.1466    1.1027 C.3       1 GTP         0.1111
     16 O4'        -0.8674   -3.1929   -0.0945 O.3       1 GTP        -0.1436
     17 C3'         0.1338   -1.6715    1.4027 C.3       1 GTP         0.1111
     18 O3'         1.2893   -1.4445    2.1808 O.3       1 GTP        -0.2728
     19 C2'         0.2158   -1.0724    0.0128 C.3       1 GTP         0.1111
     20 O2'         1.5141   -1.2448   -0.5513 O.3       1 GTP        -0.2728
     21 C1'        -0.7897   -1.9176   -0.7583 C.3       1 GTP         0.2693
     22 N9         -2.1040   -1.3333   -0.7704 N.pl3     1 GTP        -0.3222
     23 C8         -3.0597   -1.5109    0.1345 C.ar      1 GTP         0.1640
     24 N7         -4.1618   -0.8291   -0.1607 N.pl3     1 GTP        -0.3688
     25 C5         -3.8764   -0.1805   -1.3310 C.ar      1 GTP         0.0648
     26 C6         -4.7187    0.7111   -2.1152 C.ar      1 GTP         0.3597
     27 O6         -5.8617    1.0043   -1.7939 O.2       1 GTP        -0.2755
     28 N1         -4.0405    1.1608   -3.2468 N.pl3     1 GTP        -0.1604
     29 C2         -2.7239    0.8013   -3.5822 C.ar      1 GTP         0.4468
     30 N2         -2.2399    1.3534   -4.7394 N.pl3     1 GTP        -0.5618
     31 N3         -2.0053   -0.0071   -2.8402 N.2       1 GTP        -0.4283
     32 C4         -2.6290   -0.4727   -1.7210 C.ar      1 GTP         0.2226
     33 H5'        -1.8598   -3.6968    2.1850 H         1 GTP        -0.0393
     34 H5''       -0.3933   -3.5903    3.1931 H         1 GTP        -0.0393
     35 H4'         0.8874   -3.6466    0.8805 H         1 GTP        -0.0393
     36 H3'        -0.7376   -1.2333    1.9867 H         1 GTP        -0.0393
     37 HO3'        1.1626   -1.9325    3.0084 H         1 GTP         0.2010
     38 H2'        -0.0384   -0.0310    0.0096 H         1 GTP        -0.0393
     39 HO2'        2.1463   -0.7958    0.0370 H         1 GTP         0.2010
     40 H1'        -0.4769   -2.1002   -1.8093 H         1 GTP        -0.0393
     41 H8         -2.9610   -2.1316    1.0079 H         1 GTP         0.0000
     42 HN1        -4.5320    1.7923   -3.8726 H         1 GTP         0.0865
     43 HN21       -1.3128    1.1277   -5.0171 H         1 GTP         0.2048
     44 HN22       -2.8342    1.9586   -5.2572 H         1 GTP         0.2048
     45 H45        -5.0195   -0.8034    0.3729 H         1 GTP         0.2048
@<TRIPOS>BOND
     1    1    2 2
     2    1    3 1
     3    1    4 1
     4    1    5 1
     5    5    6 1
     6    6    7 2
     7    6    8 1
     8    6    9 1
     9    9   10 1
    10   10   11 2
    11   10   12 1
    12   10   13 1
    13   13   14 1
    14   14   15 1
    15   14   33 1
    16   14   34 1
    17   15   16 1
    18   15   17 1
    19   15   35 1
    20   16   21 1
    21   17   18 1
    22   17   19 1
    23   17   36 1
    24   18   37 1
    25   19   20 1
    26   19   21 1
    27   19   38 1
    28   20   39 1
    29   21   22 1
    30   21   40 1
    31   22   23 ar
    32   22   32 ar
    33   23   24 ar
    34   23   41 1
    35   24   25 ar
    36   24   45 1
    37   25   26 ar
    38   25   32 ar
    39   26   27 2
    40   26   28 ar
    41   28   29 ar
    42   28   42 1
    43   29   30 1
    44   29   31 ar
    45   30   43 1
    46   30   44 1
    47   31   32 ar
@<TRIPOS>SUBSTRUCTURE
     1 GTP         1 GROUP 0 A     ****
@<TRIPOS>MOLECULE
[[[5-(2-amino-6-oxo-7,8-dihydro-1~{H}-purin-8-ylium-9-yl)-3,4-dihydroxy-tetrahydrofuran-2-yl]methoxy-oxido-phosphoryl]oxy-oxido-phosphoryl] phosphate
   45    47     1     0     0
SMALL
USER_CHARGES

@<TRIPOS>ATOM
      1 PG         -5.1697   -5.4730    4.3828 P.3       1 GTP        -1.1921
      2 O1G        -6.2096   -4.7905    3.5004 O.co2     1 GTP         0.3195
      3 O2G        -5.6932   -5.9145    5.7454 O.co2     1 GTP         0.3195
      4 O3G        -3.8233   -4.7582    4.4311 O.co2     1 GTP         0.3195
      5 O3B        -4.8376   -6.8855    3.5991 O.3       1 GTP         0.4672
      6 PB         -4.2468   -7.1399    2.0973 P.3       1 GTP        -1.1062
      7 O1B        -3.9963   -8.6206    1.9170 O.co2     1 GTP         0.3195
      8 O2B        -5.0665   -6.3490    1.1024 O.co2     1 GTP         0.3195
      9 O3A        -2.8197   -6.3605    2.2431 O.3       1 GTP         0.4672
     10 PA         -1.6222   -6.1552    1.1506 P.3       1 GTP        -1.1062
     11 O1A        -1.0117   -7.5076    0.8542 O.co2     1 GTP         0.3195
     12 O2A        -2.1179   -5.2602    0.0356 O.co2     1 GTP         0.3195
     13 O5'        -0.5687   -5.2869    2.0510 O.3       1 GTP         0.1618
     14 C5'        -0.7840   -3.8935    2.2172 C.3       1 GTP         0.1504
     15 C4'        -0.0724   -3.1466    1.1027 C.3       1 GTP         0.1111
     16 O4'        -0.8674   -3.1929   -0.0945 O.3       1 GTP        -0.1436
     17 C3'         0.1338   -1.6715    1.4027 C.3       1 GTP         0.1111
     18 O3'         1.2893   -1.4445    2.1808 O.3       1 GTP        -0.2728
     19 C2'         0.2158   -1.0724    0.0128 C.3       1 GTP         0.1111
     20 O2'         1.5141   -1.2448   -0.5513 O.3       1 GTP        -0.2728
     21 C1'        -0.7897   -1.9176   -0.7583 C.3       1 GTP         0.2693
     22 N9         -2.1040   -1.3333   -0.7704 N.pl3     1 GTP        -0.3222
     23 C8         -3.0597   -1.5109    0.1345 C.ar      1 GTP         0.1640
     24 N7         -4.1618   -0.8291   -0.1607 N.pl3     1 GTP        -0.3688
     25 C5         -3.8764   -0.1805   -1.3310 C.ar      1 GTP         0.0648
     26 C6         -4.7187    0.7111   -2.1152 C.ar      1 GTP         0.3597
     27 O6         -5.8617    1.0043   -1.7939 O.2       1 GTP        -0.2755
     28 N1         -4.0405    1.1608   -3.2468 N.pl3     1 GTP        -0.1604
     29 C2         -2.7239    0.8013   -3.5822 C.ar      1 GTP         0.4468
     30 N2         -2.2399    1.3534   -4.7394 N.pl3     1 GTP        -0.5618
     31 N3         -2.0053   -0.0071   -2.8402 N.2       1 GTP        -0.4283
     32 C4         -2.6290   -0.4727   -1.7210 C.ar      1 GTP         0.2226
     33 H5'        -1.8598   -3.6968    2.1850 H         1 GTP        -0.0393
     34 H5''       -0.3933   -3.5903    3.1931 H         1 GTP        -0.0393
     35 H4'         0.8874   -3.6466    0.8805 H         1 GTP        -0.0393
     36 H3'        -0.7376   -1.2333    1.9867 H         1 GTP        -0.0393
     37 HO3'        1.1626   -1.9325    3.0084 H         1 GTP         0.2010
     38 H2'        -0.0384   -0.0310    0.0096 H         1 GTP        -0.0393
     39 HO2'        1.4998   -0.8412   -1.4369 H         1 GTP         0.2010
     40 H1'        -0.4769   -2.1002   -1.8093 H         1 GTP        -0.0393
     41 H8         -2.9610   -2.1316    1.0079 H         1 GTP         0.0000
     42 HN1        -4.5320    1.7923   -3.8726 H         1 GTP         0.0865
     43 HN21       -1.3128    1.1277   -5.0171 H         1 GTP         0.2048
     44 HN22       -2.8342    1.9586   -5.2572 H         1 GTP         0.2048
     45 H45        -5.0195   -0.8034    0.3729 H         1 GTP         0.2048
@<TRIPOS>BOND
     1    1    2 2
     2    1    3 1
     3    1    4 1
     4    1    5 1
     5    5    6 1
     6    6    7 2
     7    6    8 1
     8    6    9 1
     9    9   10 1
    10   10   11 2
    11   10   12 1
    12   10   13 1
    13   13   14 1
    14   14   15 1
    15   14   33 1
    16   14   34 1
    17   15   16 1
    18   15   17 1
    19   15   35 1
    20   16   21 1
    21   17   18 1
    22   17   19 1
    23   17   36 1
    24   18   37 1
    25   19   20 1
    26   19   21 1
    27   19   38 1
    28   20   39 1
    29   21   22 1
    30   21   40 1
    31   22   23 ar
    32   22   32 ar
    33   23   24 ar
    34   23   41 1
    35   24   25 ar
    36   24   45 1
    37   25   26 ar
    38   25   32 ar
    39   26   27 2
    40   26   28 ar
    41   28   29 ar
    42   28   42 1
    43   29   30 1
    44   29   31 ar
    45   30   43 1
    46   30   44 1
    47   31   32 ar
@<TRIPOS>SUBSTRUCTURE
     1 GTP         1 GROUP 0 A     ****
@<TRIPOS>MOLECULE
[[[5-(2-amino-6-oxo-7,8-dihydro-1~{H}-purin-8-ylium-9-yl)-3,4-dihydroxy-tetrahydrofuran-2-yl]methoxy-oxido-phosphoryl]oxy-oxido-phosphoryl] phosphate
   45    47     1     0     0
SMALL
USER_CHARGES

@<TRIPOS>ATOM
      1 PG         -3.4191   -3.3242   -1.5505 P.3       1 GTP        -1.1921
      2 O1G        -3.8940   -3.2011   -0.1065 O.co2     1 GTP         0.3195
      3 O2G        -3.9494   -2.2393   -2.4818 O.co2     1 GTP         0.3195
      4 O3G        -3.5069   -4.7362   -2.1202 O.co2     1 GTP         0.3195
      5 O3B        -1.7979   -3.0323   -1.4700 O.3       1 GTP         0.4672
      6 PB         -0.6281   -3.8208   -0.6460 P.3       1 GTP        -1.1062
      7 O1B        -0.8739   -3.6454    0.8361 O.co2     1 GTP         0.3195
      8 O2B        -0.4275   -5.1890   -1.2585 O.co2     1 GTP         0.3195
      9 O3A         0.6583   -2.9211   -1.0944 O.3       1 GTP         0.4672
     10 PA          1.2687   -2.6351   -2.5828 P.3       1 GTP        -1.1062
     11 O1A         1.8112   -3.9363   -3.1324 O.co2     1 GTP         0.3195
     12 O2A         0.2793   -1.8054   -3.3720 O.co2     1 GTP         0.3195
     13 O5'         2.5245   -1.6648   -2.1878 O.3       1 GTP         0.1618
     14 C5'         2.2816   -0.2918   -1.9206 C.3       1 GTP         0.1504
     15 C4'         2.7248    0.0226   -0.4980 C.3       1 GTP         0.1111
     16 O4'         2.4697    1.4219   -0.2462 O.3       1 GTP        -0.1436
     17 C3'         1.9404   -0.7419    0.5596 C.3       1 GTP         0.1111
     18 O3'         2.7418   -0.8086    1.7389 O.3       1 GTP        -0.2728
     19 C2'         0.7477    0.1630    0.7858 C.3       1 GTP         0.1111
     20 O2'         0.1373   -0.0577    2.0407 O.3       1 GTP        -0.2728
     21 C1'         1.3733    1.5427    0.6747 C.3       1 GTP         0.2693
     22 N9          0.4520    2.5240    0.1767 N.pl3     1 GTP        -0.3222
     23 C8          0.5671    3.2221   -0.9473 C.ar      1 GTP         0.1640
     24 N7         -0.4560    4.0508   -1.1290 N.pl3     1 GTP        -0.3688
     25 C5         -1.2671    3.8585   -0.0441 C.ar      1 GTP         0.0648
     26 C6         -2.5318    4.5014    0.2817 C.ar      1 GTP         0.3597
     27 O6         -3.0527    5.3493   -0.4293 O.2       1 GTP        -0.2755
     28 N1         -3.0357    4.0149    1.4868 N.pl3     1 GTP        -0.1604
     29 C2         -2.4069    3.0373    2.2768 C.ar      1 GTP         0.4468
     30 N2         -3.0679    2.6964    3.4278 N.pl3     1 GTP        -0.5618
     31 N3         -1.2653    2.4872    1.9379 N.2       1 GTP        -0.4283
     32 C4         -0.7342    2.9334    0.7643 C.ar      1 GTP         0.2226
     33 H5'         2.8432    0.3119   -2.6398 H         1 GTP        -0.0393
     34 H5''        1.2128   -0.0927   -2.0428 H         1 GTP        -0.0393
     35 H4'         3.8044   -0.1397   -0.4040 H         1 GTP        -0.0393
     36 H3'         1.6764   -1.7639    0.2728 H         1 GTP        -0.0393
     37 HO3'        2.2232   -1.2979    2.3953 H         1 GTP         0.2010
     38 H2'        -0.0011    0.0027    0.0003 H         1 GTP        -0.0393
     39 HO2'       -0.1563   -0.9855    2.0596 H         1 GTP         0.2010
     40 H1'         1.7826    1.9024    1.6451 H         1 GTP        -0.0393
     41 H8          1.3888    3.1325   -1.6361 H         1 GTP         0.0000
     42 HN1        -3.9188    4.3932    1.8170 H         1 GTP         0.0865
     43 HN21       -2.6609    2.0087    4.0186 H         1 GTP         0.2048
     44 HN22       -3.9293    3.1496    3.6283 H         1 GTP         0.2048
     45 H45        -0.5938    4.6820   -1.9060 H         1 GTP         0.2048
@<TRIPOS>BOND
     1    1    2 2
     2    1    3 1
     3    1    4 1
     4    1    5 1
     5    5    6 1
     6    6    7 2
     7    6    8 1
     8    6    9 1
     9    9   10 1
    10   10   11 2
    11   10   12 1
    12   10   13 1
    13   13   14 1
    14   14   15 1
    15   14   33 1
    16   14   34 1
    17   15   16 1
    18   15   17 1
    19   15   35 1
    20   16   21 1
    21   17   18 1
    22   17   19 1
    23   17   36 1
    24   18   37 1
    25   19   20 1
    26   19   21 1
    27   19   38 1
    28   20   39 1
    29   21   22 1
    30   21   40 1
    31   22   23 ar
    32   22   32 ar
    33   23   24 ar
    34   23   41 1
    35   24   25 ar
    36   24   45 1
    37   25   26 ar
    38   25   32 ar
    39   26   27 2
    40   26   28 ar
    41   28   29 ar
    42   28   42 1
    43   29   30 1
    44   29   31 ar
    45   30   43 1
    46   30   44 1
    47   31   32 ar
@<TRIPOS>SUBSTRUCTURE
     1 GTP         1 GROUP 0 A     ****
@<TRIPOS>MOLECULE
[[[5-(2-amino-6-oxo-7,8-dihydro-1~{H}-purin-8-ylium-9-yl)-3,4-dihydroxy-tetrahydrofuran-2-yl]methoxy-oxido-phosphoryl]oxy-oxido-phosphoryl] phosphate
   45    47     1     0     0
SMALL
USER_CHARGES

@<TRIPOS>ATOM
      1 PG          7.9231    2.7565   -2.8501 P.3       1 GTP        -1.1921
      2 O1G         8.3885    1.3550   -2.4690 O.co2     1 GTP         0.3195
      3 O2G         8.1787    3.1298   -4.3065 O.co2     1 GTP         0.3195
      4 O3G         8.3118    3.8392   -1.8488 O.co2     1 GTP         0.3195
      5 O3B         6.2797    2.6835   -2.7329 O.3       1 GTP         0.4672
      6 PB          5.3326    2.3350   -1.4481 P.3       1 GTP        -1.1062
      7 O1B         5.5638    0.8945   -1.0492 O.co2     1 GTP         0.3195
      8 O2B         5.4296    3.4601   -0.4420 O.co2     1 GTP         0.3195
      9 O3A         3.8689    2.4750   -2.1576 O.3       1 GTP         0.4672
     10 PA          3.2351    1.6560   -3.4214 P.3       1 GTP        -1.1062
     11 O1A         1.7871    2.0671   -3.5765 O.co2     1 GTP         0.3195
     12 O2A         4.1965    1.7253   -4.5880 O.co2     1 GTP         0.3195
     13 O5'         3.2903    0.1346   -2.8241 O.3       1 GTP         0.1618
     14 C5'         2.2816   -0.2918   -1.9206 C.3       1 GTP         0.1504
     15 C4'         2.7248    0.0226   -0.4980 C.3       1 GTP         0.1111
     16 O4'         2.4697    1.4219   -0.2462 O.3       1 GTP        -0.1436
     17 C3'         1.9404   -0.7419    0.5596 C.3       1 GTP         0.1111
     18 O3'         2.7418   -0.8086    1.7389 O.3       1 GTP        -0.2728
     19 C2'         0.7477    0.1630    0.7858 C.3       1 GTP         0.1111
     20 O2'         0.1373   -0.0577    2.0407 O.3       1 GTP        -0.2728
     21 C1'         1.3733    1.5427    0.6747 C.3       1 GTP         0.2693
     22 N9          0.4520    2.5240    0.1767 N.pl3     1 GTP        -0.3222
     23 C8         -0.2009    2.4849   -0.9792 C.ar      1 GTP         0.1640
     24 N7         -0.9840    3.5454   -1.1481 N.pl3     1 GTP        -0.3688
     25 C5         -0.8090    4.3005   -0.0206 C.ar      1 GTP         0.0648
     26 C6         -1.4206    5.5724    0.3362 C.ar      1 GTP         0.3597
     27 O6         -2.2199    6.1544   -0.3836 O.2       1 GTP        -0.2755
     28 N1         -0.9680    6.0043    1.5817 N.pl3     1 GTP        -0.1604
     29 C2         -0.0474    5.3055    2.3814 C.ar      1 GTP         0.4468
     30 N2          0.2680    5.9024    3.5740 N.pl3     1 GTP        -0.5618
     31 N3          0.4755    4.1601    2.0138 N.2       1 GTP        -0.4283
     32 C4          0.0611    3.6981    0.8001 C.ar      1 GTP         0.2226
     33 H5'         1.3514    0.2330   -2.1577 H         1 GTP        -0.0393
     34 H5''        2.1280   -1.3678   -2.0460 H         1 GTP        -0.0393
     35 H4'         3.8044   -0.1397   -0.4040 H         1 GTP        -0.0393
     36 H3'         1.6764   -1.7639    0.2728 H         1 GTP        -0.0393
     37 HO3'        2.2232   -1.2979    2.3953 H         1 GTP         0.2010
     38 H2'        -0.0011    0.0027    0.0003 H         1 GTP        -0.0393
     39 HO2'       -0.6141    0.5574    2.1082 H         1 GTP         0.2010
     40 H1'         1.7826    1.9024    1.6451 H         1 GTP        -0.0393
     41 H8         -0.1126    1.6906   -1.6997 H         1 GTP         0.0000
     42 HN1        -1.3285    6.8855    1.9361 H         1 GTP         0.0865
     43 HN21        0.9153    5.4446    4.1732 H         1 GTP         0.2048
     44 HN22       -0.1624    6.7706    3.7948 H         1 GTP         0.2048
     45 H45        -1.5768    3.7405   -1.9429 H         1 GTP         0.2048
@<TRIPOS>BOND
     1    1    2 2
     2    1    3 1
     3    1    4 1
     4    1    5 1
     5    5    6 1
     6    6    7 2
     7    6    8 1
     8    6    9 1
     9    9   10 1
    10   10   11 2
    11   10   12 1
    12   10   13 1
    13   13   14 1
    14   14   15 1
    15   14   33 1
    16   14   34 1
    17   15   16 1
    18   15   17 1
    19   15   35 1
    20   16   21 1
    21   17   18 1
    22   17   19 1
    23   17   36 1
    24   18   37 1
    25   19   20 1
    26   19   21 1
    27   19   38 1
    28   20   39 1
    29   21   22 1
    30   21   40 1
    31   22   23 ar
    32   22   32 ar
    33   23   24 ar
    34   23   41 1
    35   24   25 ar
    36   24   45 1
    37   25   26 ar
    38   25   32 ar
    39   26   27 2
    40   26   28 ar
    41   28   29 ar
    42   28   42 1
    43   29   30 1
    44   29   31 ar
    45   30   43 1
    46   30   44 1
    47   31   32 ar
@<TRIPOS>SUBSTRUCTURE
     1 GTP         1 GROUP 0 A     ****
@<TRIPOS>MOLECULE
[[[5-(2-amino-6-oxo-7,8-dihydro-1~{H}-purin-8-ylium-9-yl)-3,4-dihydroxy-tetrahydrofuran-2-yl]methoxy-oxido-phosphoryl]oxy-oxido-phosphoryl] phosphate
   45    47     1     0     0
SMALL
USER_CHARGES

@<TRIPOS>ATOM
      1 PG          1.6291   -8.7108   -1.3818 P.3       1 GTP        -1.1921
      2 O1G         2.8546   -8.2774   -0.5842 O.co2     1 GTP         0.3195
      3 O2G         1.0847  -10.0838   -1.0020 O.co2     1 GTP         0.3195
      4 O3G         1.7453   -8.4772   -2.8844 O.co2     1 GTP         0.3195
      5 O3B         0.4472   -7.6617   -0.9105 O.3       1 GTP         0.4672
      6 PB          0.3824   -6.0330   -1.0223 P.3       1 GTP        -1.1062
      7 O1B         1.4547   -5.4410   -0.1350 O.co2     1 GTP         0.3195
      8 O2B         0.2541   -5.6415   -2.4775 O.co2     1 GTP         0.3195
      9 O3A        -1.0824   -5.7833   -0.3461 O.3       1 GTP         0.4672
     10 PA         -1.6222   -6.1552    1.1506 P.3       1 GTP        -1.1062
     11 O1A        -3.0065   -5.5671    1.3167 O.co2     1 GTP         0.3195
     12 O2A        -1.3577   -7.6202    1.4220 O.co2     1 GTP         0.3195
     13 O5'        -0.5687   -5.2869    2.0510 O.3       1 GTP         0.1618
     14 C5'        -0.7840   -3.8935    2.2172 C.3       1 GTP         0.1504
     15 C4'        -0.0724   -3.1466    1.1027 C.3       1 GTP         0.1111
     16 O4'        -0.8674   -3.1929   -0.0945 O.3       1 GTP        -0.1436
     17 C3'         0.1338   -1.6715    1.4027 C.3       1 GTP         0.1111
     18 O3'         1.2893   -1.4445    2.1808 O.3       1 GTP        -0.2728
     19 C2'         0.2158   -1.0724    0.0128 C.3       1 GTP         0.1111
     20 O2'         1.5141   -1.2448   -0.5513 O.3       1 GTP        -0.2728
     21 C1'        -0.7897   -1.9176   -0.7583 C.3       1 GTP         0.2693
     22 N9         -2.1040   -1.3333   -0.7704 N.pl3     1 GTP        -0.3222
     23 C8         -3.0597   -1.5109    0.1345 C.ar      1 GTP         0.1640
     24 N7         -4.1618   -0.8291   -0.1607 N.pl3     1 GTP        -0.3688
     25 C5         -3.8764   -0.1805   -1.3310 C.ar      1 GTP         0.0648
     26 C6         -4.7187    0.7111   -2.1152 C.ar      1 GTP         0.3597
     27 O6         -5.8617    1.0043   -1.7939 O.2       1 GTP        -0.2755
     28 N1         -4.0405    1.1608   -3.2468 N.pl3     1 GTP        -0.1604
     29 C2         -2.7239    0.8013   -3.5822 C.ar      1 GTP         0.4468
     30 N2         -2.2399    1.3534   -4.7394 N.pl3     1 GTP        -0.5618
     31 N3         -2.0053   -0.0071   -2.8402 N.2       1 GTP        -0.4283
     32 C4         -2.6290   -0.4727   -1.7210 C.ar      1 GTP         0.2226
     33 H5'        -1.8598   -3.6968    2.1850 H         1 GTP        -0.0393
     34 H5''       -0.3933   -3.5903    3.1931 H         1 GTP        -0.0393
     35 H4'         0.8874   -3.6466    0.8805 H         1 GTP        -0.0393
     36 H3'        -0.7376   -1.2333    1.9867 H         1 GTP        -0.0393
     37 HO3'        1.3408   -0.4870    2.3219 H         1 GTP         0.2010
     38 H2'        -0.0384   -0.0310    0.0096 H         1 GTP        -0.0393
     39 HO2'        2.1463   -0.7958    0.0370 H         1 GTP         0.2010
     40 H1'        -0.4769   -2.1002   -1.8093 H         1 GTP        -0.0393
     41 H8         -2.9610   -2.1316    1.0079 H         1 GTP         0.0000
     42 HN1        -4.5320    1.7923   -3.8726 H         1 GTP         0.0865
     43 HN21       -1.3128    1.1277   -5.0171 H         1 GTP         0.2048
     44 HN22       -2.8342    1.9586   -5.2572 H         1 GTP         0.2048
     45 H45        -5.0195   -0.8034    0.3729 H         1 GTP         0.2048
@<TRIPOS>BOND
     1    1    2 2
     2    1    3 1
     3    1    4 1
     4    1    5 1
     5    5    6 1
     6    6    7 2
     7    6    8 1
     8    6    9 1
     9    9   10 1
    10   10   11 2
    11   10   12 1
    12   10   13 1
    13   13   14 1
    14   14   15 1
    15   14   33 1
    16   14   34 1
    17   15   16 1
    18   15   17 1
    19   15   35 1
    20   16   21 1
    21   17   18 1
    22   17   19 1
    23   17   36 1
    24   18   37 1
    25   19   20 1
    26   19   21 1
    27   19   38 1
    28   20   39 1
    29   21   22 1
    30   21   40 1
    31   22   23 ar
    32   22   32 ar
    33   23   24 ar
    34   23   41 1
    35   24   25 ar
    36   24   45 1
    37   25   26 ar
    38   25   32 ar
    39   26   27 2
    40   26   28 ar
    41   28   29 ar
    42   28   42 1
    43   29   30 1
    44   29   31 ar
    45   30   43 1
    46   30   44 1
    47   31   32 ar
@<TRIPOS>SUBSTRUCTURE
     1 GTP         1 GROUP 0 A     ****
@<TRIPOS>MOLECULE
[[[5-(2-amino-6-oxo-7,8-dihydro-1~{H}-purin-8-ylium-9-yl)-3,4-dihydroxy-tetrahydrofuran-2-yl]methoxy-oxido-phosphoryl]oxy-oxido-phosphoryl] phosphate
   45    47     1     0     0
SMALL
USER_CHARGES

@<TRIPOS>ATOM
      1 PG         -1.2554   -0.7301   -7.3282 P.3       1 GTP        -1.1921
      2 O1G        -0.5450   -0.6464   -8.6751 O.co2     1 GTP         0.3195
      3 O2G        -1.7350   -2.1290   -6.9559 O.co2     1 GTP         0.3195
      4 O3G        -2.2876    0.3682   -7.0954 O.co2     1 GTP         0.3195
      5 O3B        -0.0740   -0.4000   -6.2259 O.3       1 GTP         0.4672
      6 PB          0.8574    0.9308   -6.0508 P.3       1 GTP        -1.1062
      7 O1B         1.7570    1.0580   -7.2600 O.co2     1 GTP         0.3195
      8 O2B        -0.0057    2.0809   -5.5821 O.co2     1 GTP         0.3195
      9 O3A         1.7421    0.4621   -4.7613 O.3       1 GTP         0.4672
     10 PA          2.9240    1.2545   -3.9582 P.3       1 GTP        -1.1062
     11 O1A         4.1072    1.4127   -4.8880 O.co2     1 GTP         0.3195
     12 O2A         2.3242    2.4478   -3.2466 O.co2     1 GTP         0.3195
     13 O5'         3.2903    0.1346   -2.8241 O.3       1 GTP         0.1618
     14 C5'         2.2816   -0.2918   -1.9206 C.3       1 GTP         0.1504
     15 C4'         2.7248    0.0226   -0.4980 C.3       1 GTP         0.1111
     16 O4'         2.4697    1.4219   -0.2462 O.3       1 GTP        -0.1436
     17 C3'         1.9404   -0.7419    0.5596 C.3       1 GTP         0.1111
     18 O3'         2.7418   -0.8086    1.7389 O.3       1 GTP        -0.2728
     19 C2'         0.7477    0.1630    0.7858 C.3       1 GTP         0.1111
     20 O2'         0.1373   -0.0577    2.0407 O.3       1 GTP        -0.2728
     21 C1'         1.3733    1.5427    0.6747 C.3       1 GTP         0.2693
     22 N9          0.4520    2.5240    0.1767 N.pl3     1 GTP        -0.3222
     23 C8          0.5671    3.2221   -0.9473 C.ar      1 GTP         0.1640
     24 N7         -0.4560    4.0508   -1.1290 N.pl3     1 GTP        -0.3688
     25 C5         -1.2671    3.8585   -0.0441 C.ar      1 GTP         0.0648
     26 C6         -2.5318    4.5014    0.2817 C.ar      1 GTP         0.3597
     27 O6         -3.0527    5.3493   -0.4293 O.2       1 GTP        -0.2755
     28 N1         -3.0357    4.0149    1.4868 N.pl3     1 GTP        -0.1604
     29 C2         -2.4069    3.0373    2.2768 C.ar      1 GTP         0.4468
     30 N2         -3.0679    2.6964    3.4278 N.pl3     1 GTP        -0.5618
     31 N3         -1.2653    2.4872    1.9379 N.2       1 GTP        -0.4283
     32 C4         -0.7342    2.9334    0.7643 C.ar      1 GTP         0.2226
     33 H5'         1.3514    0.2330   -2.1577 H         1 GTP        -0.0393
     34 H5''        2.1280   -1.3678   -2.0460 H         1 GTP        -0.0393
     35 H4'         3.8044   -0.1397   -0.4040 H         1 GTP        -0.0393
     36 H3'         1.6764   -1.7639    0.2728 H         1 GTP        -0.0393
     37 HO3'        3.5554   -1.2733    1.4914 H         1 GTP         0.2010
     38 H2'        -0.0011    0.0027    0.0003 H         1 GTP        -0.0393
     39 HO2'       -0.1563   -0.9855    2.0596 H         1 GTP         0.2010
     40 H1'         1.7826    1.9024    1.6451 H         1 GTP        -0.0393
     41 H8          1.3888    3.1325   -1.6361 H         1 GTP         0.0000
     42 HN1        -3.9188    4.3932    1.8170 H         1 GTP         0.0865
     43 HN21       -2.6609    2.0087    4.0186 H         1 GTP         0.2048
     44 HN22       -3.9293    3.1496    3.6283 H         1 GTP         0.2048
     45 H45        -0.5938    4.6820   -1.9060 H         1 GTP         0.2048
@<TRIPOS>BOND
     1    1    2 2
     2    1    3 1
     3    1    4 1
     4    1    5 1
     5    5    6 1
     6    6    7 2
     7    6    8 1
     8    6    9 1
     9    9   10 1
    10   10   11 2
    11   10   12 1
    12   10   13 1
    13   13   14 1
    14   14   15 1
    15   14   33 1
    16   14   34 1
    17   15   16 1
    18   15   17 1
    19   15   35 1
    20   16   21 1
    21   17   18 1
    22   17   19 1
    23   17   36 1
    24   18   37 1
    25   19   20 1
    26   19   21 1
    27   19   38 1
    28   20   39 1
    29   21   22 1
    30   21   40 1
    31   22   23 ar
    32   22   32 ar
    33   23   24 ar
    34   23   41 1
    35   24   25 ar
    36   24   45 1
    37   25   26 ar
    38   25   32 ar
    39   26   27 2
    40   26   28 ar
    41   28   29 ar
    42   28   42 1
    43   29   30 1
    44   29   31 ar
    45   30   43 1
    46   30   44 1
    47   31   32 ar
@<TRIPOS>SUBSTRUCTURE
     1 GTP         1 GROUP 0 A     ****
@<TRIPOS>MOLECULE
[[[5-(2-amino-6-oxo-7,8-dihydro-1~{H}-purin-8-ylium-9-yl)-3,4-dihydroxy-tetrahydrofuran-2-yl]methoxy-oxido-phosphoryl]oxy-oxido-phosphoryl] phosphate
   45    47     1     0     0
SMALL
USER_CHARGES

@<TRIPOS>ATOM
      1 PG          6.2911   -0.9462    1.2536 P.3       1 GTP        -1.1921
      2 O1G         5.5305   -2.1151    0.6363 O.co2     1 GTP         0.3195
      3 O2G         7.5007   -1.3533    2.0883 O.co2     1 GTP         0.3195
      4 O3G         5.4007    0.1025    1.9119 O.co2     1 GTP         0.3195
      5 O3B         6.9393   -0.1559   -0.0407 O.3       1 GTP         0.4672
      6 PB          6.2037    0.5401   -1.3227 P.3       1 GTP        -1.1062
      7 O1B         5.1765    1.5285   -0.8172 O.co2     1 GTP         0.3195
      8 O2B         7.2511    0.9372   -2.3389 O.co2     1 GTP         0.3195
      9 O3A         5.4441   -0.7709   -1.9308 O.3       1 GTP         0.4672
     10 PA          4.4792   -0.9077   -3.2423 P.3       1 GTP        -1.1062
     11 O1A         5.2197   -0.3491   -4.4379 O.co2     1 GTP         0.3195
     12 O2A         3.8805   -2.2971   -3.2731 O.co2     1 GTP         0.3195
     13 O5'         3.2903    0.1346   -2.8241 O.3       1 GTP         0.1618
     14 C5'         2.2816   -0.2918   -1.9206 C.3       1 GTP         0.1504
     15 C4'         2.7248    0.0226   -0.4980 C.3       1 GTP         0.1111
     16 O4'         2.4697    1.4219   -0.2462 O.3       1 GTP        -0.1436
     17 C3'         1.9404   -0.7419    0.5596 C.3       1 GTP         0.1111
     18 O3'         2.7418   -0.8086    1.7389 O.3       1 GTP        -0.2728
     19 C2'         0.7477    0.1630    0.7858 C.3       1 GTP         0.1111
     20 O2'         0.1373   -0.0577    2.0407 O.3       1 GTP        -0.2728
     21 C1'         1.3733    1.5427    0.6747 C.3       1 GTP         0.2693
     22 N9          0.4520    2.5240    0.1767 N.pl3     1 GTP        -0.3222
     23 C8          0.2203    2.8205   -1.0970 C.ar      1 GTP         0.1640
     24 N7         -0.6947    3.7752   -1.2304 N.pl3     1 GTP        -0.3688
     25 C5         -1.0607    4.0987    0.0476 C.ar      1 GTP         0.0648
     26 C6         -2.0310    5.0839    0.5029 C.ar      1 GTP         0.3597
     27 O6         -2.6779    5.7867   -0.2609 O.2       1 GTP        -0.2755
     28 N1         -2.1030    5.0975    1.8948 N.pl3     1 GTP        -0.1604
     29 C2         -1.3422    4.2721    2.7403 C.ar      1 GTP         0.4468
     30 N2         -1.5624    4.4419    4.0823 N.pl3     1 GTP        -0.5618
     31 N3         -0.4796    3.3981    2.2792 N.2       1 GTP        -0.4283
     32 C4         -0.3754    3.3496    0.9208 C.ar      1 GTP         0.2226
     33 H5'         1.3514    0.2330   -2.1577 H         1 GTP        -0.0393
     34 H5''        2.1280   -1.3678   -2.0460 H         1 GTP        -0.0393
     35 H4'         3.8044   -0.1397   -0.4040 H         1 GTP        -0.0393
     36 H3'         1.6764   -1.7639    0.2728 H         1 GTP        -0.0393
     37 HO3'        3.5554   -1.2733    1.4914 H         1 GTP         0.2010
     38 H2'        -0.0011    0.0027    0.0003 H         1 GTP        -0.0393
     39 HO2'        0.8082    0.1199    2.7232 H         1 GTP         0.2010
     40 H1'         1.7826    1.9024    1.6451 H         1 GTP        -0.0393
     41 H8          0.7110    2.3472   -1.9295 H         1 GTP         0.0000
     42 HN1        -2.7504    5.7495    2.3282 H         1 GTP         0.0865
     43 HN21       -1.0467    3.8796    4.7190 H         1 GTP         0.2048
     44 HN22       -2.2294    5.1209    4.3680 H         1 GTP         0.2048
     45 H45        -1.0382    4.1687   -2.0954 H         1 GTP         0.2048
@<TRIPOS>BOND
     1    1    2 2
     2    1    3 1
     3    1    4 1
     4    1    5 1
     5    5    6 1
     6    6    7 2
     7    6    8 1
     8    6    9 1
     9    9   10 1
    10   10   11 2
    11   10   12 1
    12   10   13 1
    13   13   14 1
    14   14   15 1
    15   14   33 1
    16   14   34 1
    17   15   16 1
    18   15   17 1
    19   15   35 1
    20   16   21 1
    21   17   18 1
    22   17   19 1
    23   17   36 1
    24   18   37 1
    25   19   20 1
    26   19   21 1
    27   19   38 1
    28   20   39 1
    29   21   22 1
    30   21   40 1
    31   22   23 ar
    32   22   32 ar
    33   23   24 ar
    34   23   41 1
    35   24   25 ar
    36   24   45 1
    37   25   26 ar
    38   25   32 ar
    39   26   27 2
    40   26   28 ar
    41   28   29 ar
    42   28   42 1
    43   29   30 1
    44   29   31 ar
    45   30   43 1
    46   30   44 1
    47   31   32 ar
@<TRIPOS>SUBSTRUCTURE
     1 GTP         1 GROUP 0 A     ****
@<TRIPOS>MOLECULE
[[[5-(2-amino-6-oxo-7,8-dihydro-1~{H}-purin-8-ylium-9-yl)-3,4-dihydroxy-tetrahydrofuran-2-yl]methoxy-oxido-phosphoryl]oxy-oxido-phosphoryl] phosphate
   45    47     1     0     0
SMALL
USER_CHARGES

@<TRIPOS>ATOM
      1 PG          7.9231    2.7565   -2.8501 P.3       1 GTP        -1.1921
      2 O1G         8.3885    1.3550   -2.4690 O.co2     1 GTP         0.3195
      3 O2G         8.1787    3.1298   -4.3065 O.co2     1 GTP         0.3195
      4 O3G         8.3118    3.8392   -1.8488 O.co2     1 GTP         0.3195
      5 O3B         6.2797    2.6835   -2.7329 O.3       1 GTP         0.4672
      6 PB          5.3326    2.3350   -1.4481 P.3       1 GTP        -1.1062
      7 O1B         5.5638    0.8945   -1.0492 O.co2     1 GTP         0.3195
      8 O2B         5.4296    3.4601   -0.4420 O.co2     1 GTP         0.3195
      9 O3A         3.8689    2.4750   -2.1576 O.3       1 GTP         0.4672
     10 PA          3.2351    1.6560   -3.4214 P.3       1 GTP        -1.1062
     11 O1A         1.7871    2.0671   -3.5765 O.co2     1 GTP         0.3195
     12 O2A         4.1965    1.7253   -4.5880 O.co2     1 GTP         0.3195
     13 O5'         3.2903    0.1346   -2.8241 O.3       1 GTP         0.1618
     14 C5'         2.2816   -0.2918   -1.9206 C.3       1 GTP         0.1504
     15 C4'         2.7248    0.0226   -0.4980 C.3       1 GTP         0.1111
     16 O4'         2.4697    1.4219   -0.2462 O.3       1 GTP        -0.1436
     17 C3'         1.9404   -0.7419    0.5596 C.3       1 GTP         0.1111
     18 O3'         2.7418   -0.8086    1.7389 O.3       1 GTP        -0.2728
     19 C2'         0.7477    0.1630    0.7858 C.3       1 GTP         0.1111
     20 O2'         0.1373   -0.0577    2.0407 O.3       1 GTP        -0.2728
     21 C1'         1.3733    1.5427    0.6747 C.3       1 GTP         0.2693
     22 N9          0.4520    2.5240    0.1767 N.pl3     1 GTP        -0.3222
     23 C8         -0.8613    2.5511    0.3730 C.ar      1 GTP         0.1640
     24 N7         -1.4346    3.5939   -0.2188 N.pl3     1 GTP        -0.3688
     25 C5         -0.4099    4.2657   -0.8276 C.ar      1 GTP         0.0648
     26 C6         -0.4554    5.4854   -1.6209 C.ar      1 GTP         0.3597
     27 O6         -1.4907    6.0944   -1.8508 O.2       1 GTP        -0.2755
     28 N1          0.8205    5.8357   -2.0593 N.pl3     1 GTP        -0.1604
     29 C2          1.9890    5.1091   -1.7730 C.ar      1 GTP         0.4468
     30 N2          3.1452    5.6230   -2.2997 N.pl3     1 GTP        -0.5618
     31 N3          1.9765    4.0139   -1.0514 N.2       1 GTP        -0.4283
     32 C4          0.7480    3.6324   -0.6003 C.ar      1 GTP         0.2226
     33 H5'         1.3514    0.2330   -2.1577 H         1 GTP        -0.0393
     34 H5''        2.1280   -1.3678   -2.0460 H         1 GTP        -0.0393
     35 H4'         3.8044   -0.1397   -0.4040 H         1 GTP        -0.0393
     36 H3'         1.6764   -1.7639    0.2728 H         1 GTP        -0.0393
     37 HO3'        2.2232   -1.2979    2.3953 H         1 GTP         0.2010
     38 H2'        -0.0011    0.0027    0.0003 H         1 GTP        -0.0393
     39 HO2'       -0.1563   -0.9855    2.0596 H         1 GTP         0.2010
     40 H1'         1.7826    1.9024    1.6451 H         1 GTP        -0.0393
     41 H8         -1.4050    1.8187    0.9438 H         1 GTP         0.0000
     42 HN1         0.9121    6.6744   -2.6251 H         1 GTP         0.0865
     43 HN21        3.9971    5.1427   -2.1235 H         1 GTP         0.2048
     44 HN22        3.0881    6.4564   -2.8380 H         1 GTP         0.2048
     45 H45        -2.4173    3.8294   -0.2127 H         1 GTP         0.2048
@<TRIPOS>BOND
     1    1    2 2
     2    1    3 1
     3    1    4 1
     4    1    5 1
     5    5    6 1
     6    6    7 2
     7    6    8 1
     8    6    9 1
     9    9   10 1
    10   10   11 2
    11   10   12 1
    12   10   13 1
    13   13   14 1
    14   14   15 1
    15   14   33 1
    16   14   34 1
    17   15   16 1
    18   15   17 1
    19   15   35 1
    20   16   21 1
    21   17   18 1
    22   17   19 1
    23   17   36 1
    24   18   37 1
    25   19   20 1
    26   19   21 1
    27   19   38 1
    28   20   39 1
    29   21   22 1
    30   21   40 1
    31   22   23 ar
    32   22   32 ar
    33   23   24 ar
    34   23   41 1
    35   24   25 ar
    36   24   45 1
    37   25   26 ar
    38   25   32 ar
    39   26   27 2
    40   26   28 ar
    41   28   29 ar
    42   28   42 1
    43   29   30 1
    44   29   31 ar
    45   30   43 1
    46   30   44 1
    47   31   32 ar
@<TRIPOS>SUBSTRUCTURE
     1 GTP         1 GROUP 0 A     ****
@<TRIPOS>MOLECULE
[[[5-(2-amino-6-oxo-7,8-dihydro-1~{H}-purin-8-ylium-9-yl)-3,4-dihydroxy-tetrahydrofuran-2-yl]methoxy-oxido-phosphoryl]oxy-oxido-phosphoryl] phosphate
   45    47     1     0     0
SMALL
USER_CHARGES

@<TRIPOS>ATOM
      1 PG          7.9201    0.5067    1.1078 P.3       1 GTP        -1.1921
      2 O1G         7.0562    1.5775    1.7657 O.co2     1 GTP         0.3195
      3 O2G         8.2739   -0.6637    2.0191 O.co2     1 GTP         0.3195
      4 O3G         9.0972    1.0558    0.3084 O.co2     1 GTP         0.3195
      5 O3B         6.9393   -0.1559   -0.0407 O.3       1 GTP         0.4672
      6 PB          6.2037    0.5401   -1.3227 P.3       1 GTP        -1.1062
      7 O1B         5.1765    1.5285   -0.8172 O.co2     1 GTP         0.3195
      8 O2B         7.2511    0.9372   -2.3389 O.co2     1 GTP         0.3195
      9 O3A         5.4441   -0.7709   -1.9308 O.3       1 GTP         0.4672
     10 PA          4.4792   -0.9077   -3.2423 P.3       1 GTP        -1.1062
     11 O1A         5.2197   -0.3491   -4.4379 O.co2     1 GTP         0.3195
     12 O2A         3.8805   -2.2971   -3.2731 O.co2     1 GTP         0.3195
     13 O5'         3.2903    0.1346   -2.8241 O.3       1 GTP         0.1618
     14 C5'         2.2816   -0.2918   -1.9206 C.3       1 GTP         0.1504
     15 C4'         2.7248    0.0226   -0.4980 C.3       1 GTP         0.1111
     16 O4'         2.4697    1.4219   -0.2462 O.3       1 GTP        -0.1436
     17 C3'         1.9404   -0.7419    0.5596 C.3       1 GTP         0.1111
     18 O3'         2.7418   -0.8086    1.7389 O.3       1 GTP        -0.2728
     19 C2'         0.7477    0.1630    0.7858 C.3       1 GTP         0.1111
     20 O2'         0.1373   -0.0577    2.0407 O.3       1 GTP        -0.2728
     21 C1'         1.3733    1.5427    0.6747 C.3       1 GTP         0.2693
     22 N9          0.4520    2.5240    0.1767 N.pl3     1 GTP        -0.3222
     23 C8         -0.2009    2.4849   -0.9792 C.ar      1 GTP         0.1640
     24 N7         -0.9840    3.5454   -1.1481 N.pl3     1 GTP        -0.3688
     25 C5         -0.8090    4.3005   -0.0206 C.ar      1 GTP         0.0648
     26 C6         -1.4206    5.5724    0.3362 C.ar      1 GTP         0.3597
     27 O6         -2.2199    6.1544   -0.3836 O.2       1 GTP        -0.2755
     28 N1         -0.9680    6.0043    1.5817 N.pl3     1 GTP        -0.1604
     29 C2         -0.0474    5.3055    2.3814 C.ar      1 GTP         0.4468
     30 N2          0.2680    5.9024    3.5740 N.pl3     1 GTP        -0.5618
     31 N3          0.4755    4.1601    2.0138 N.2       1 GTP        -0.4283
     32 C4          0.0611    3.6981    0.8001 C.ar      1 GTP         0.2226
     33 H5'         1.3514    0.2330   -2.1577 H         1 GTP        -0.0393
     34 H5''        2.1280   -1.3678   -2.0460 H         1 GTP        -0.0393
     35 H4'         3.8044   -0.1397   -0.4040 H         1 GTP        -0.0393
     36 H3'         1.6764   -1.7639    0.2728 H         1 GTP        -0.0393
     37 HO3'        2.2232   -1.2979    2.3953 H         1 GTP         0.2010
     38 H2'        -0.0011    0.0027    0.0003 H         1 GTP        -0.0393
     39 HO2'       -0.1563   -0.9855    2.0596 H         1 GTP         0.2010
     40 H1'         1.7826    1.9024    1.6451 H         1 GTP        -0.0393
     41 H8         -0.1126    1.6906   -1.6997 H         1 GTP         0.0000
     42 HN1        -1.3285    6.8855    1.9361 H         1 GTP         0.0865
     43 HN21        0.9153    5.4446    4.1732 H         1 GTP         0.2048
     44 HN22       -0.1624    6.7706    3.7948 H         1 GTP         0.2048
     45 H45        -1.5768    3.7405   -1.9429 H         1 GTP         0.2048
@<TRIPOS>BOND
     1    1    2 2
     2    1    3 1
     3    1    4 1
     4    1    5 1
     5    5    6 1
     6    6    7 2
     7    6    8 1
     8    6    9 1
     9    9   10 1
    10   10   11 2
    11   10   12 1
    12   10   13 1
    13   13   14 1
    14   14   15 1
    15   14   33 1
    16   14   34 1
    17   15   16 1
    18   15   17 1
    19   15   35 1
    20   16   21 1
    21   17   18 1
    22   17   19 1
    23   17   36 1
    24   18   37 1
    25   19   20 1
    26   19   21 1
    27   19   38 1
    28   20   39 1
    29   21   22 1
    30   21   40 1
    31   22   23 ar
    32   22   32 ar
    33   23   24 ar
    34   23   41 1
    35   24   25 ar
    36   24   45 1
    37   25   26 ar
    38   25   32 ar
    39   26   27 2
    40   26   28 ar
    41   28   29 ar
    42   28   42 1
    43   29   30 1
    44   29   31 ar
    45   30   43 1
    46   30   44 1
    47   31   32 ar
@<TRIPOS>SUBSTRUCTURE
     1 GTP         1 GROUP 0 A     ****
@<TRIPOS>MOLECULE
[[[5-(2-amino-6-oxo-7,8-dihydro-1~{H}-purin-8-ylium-9-yl)-3,4-dihydroxy-tetrahydrofuran-2-yl]methoxy-oxido-phosphoryl]oxy-oxido-phosphoryl] phosphate
   45    47     1     0     0
SMALL
USER_CHARGES

@<TRIPOS>ATOM
      1 PG          5.7910   -2.9529    1.5953 P.3       1 GTP        -1.1921
      2 O1G         6.1725   -4.4226    1.4527 O.co2     1 GTP         0.3195
      3 O2G         6.3432   -2.2782    2.8465 O.co2     1 GTP         0.3195
      4 O3G         4.3194   -2.6588    1.3232 O.co2     1 GTP         0.3195
      5 O3B         6.5778   -2.2077    0.3522 O.3       1 GTP         0.4672
      6 PB          6.4604   -2.4473   -1.2595 P.3       1 GTP        -1.1062
      7 O1B         7.2958   -1.4051   -1.9690 O.co2     1 GTP         0.3195
      8 O2B         6.6183   -3.9225   -1.5535 O.co2     1 GTP         0.3195
      9 O3A         4.8769   -2.1037   -1.4595 O.3       1 GTP         0.4672
     10 PA          3.9665   -2.1124   -2.8163 P.3       1 GTP        -1.1062
     11 O1A         4.4633   -1.0128   -3.7294 O.co2     1 GTP         0.3195
     12 O2A         3.8288   -3.5360   -3.3105 O.co2     1 GTP         0.3195
     13 O5'         2.5245   -1.6648   -2.1878 O.3       1 GTP         0.1618
     14 C5'         2.2816   -0.2918   -1.9206 C.3       1 GTP         0.1504
     15 C4'         2.7248    0.0226   -0.4980 C.3       1 GTP         0.1111
     16 O4'         2.4697    1.4219   -0.2462 O.3       1 GTP        -0.1436
     17 C3'         1.9404   -0.7419    0.5596 C.3       1 GTP         0.1111
     18 O3'         2.7418   -0.8086    1.7389 O.3       1 GTP        -0.2728
     19 C2'         0.7477    0.1630    0.7858 C.3       1 GTP         0.1111
     20 O2'         0.1373   -0.0577    2.0407 O.3       1 GTP        -0.2728
     21 C1'         1.3733    1.5427    0.6747 C.3       1 GTP         0.2693
     22 N9          0.4520    2.5240    0.1767 N.pl3     1 GTP        -0.3222
     23 C8          0.5671    3.2221   -0.9473 C.ar      1 GTP         0.1640
     24 N7         -0.4560    4.0508   -1.1290 N.pl3     1 GTP        -0.3688
     25 C5         -1.2671    3.8585   -0.0441 C.ar      1 GTP         0.0648
     26 C6         -2.5318    4.5014    0.2817 C.ar      1 GTP         0.3597
     27 O6         -3.0527    5.3493   -0.4293 O.2       1 GTP        -0.2755
     28 N1         -3.0357    4.0149    1.4868 N.pl3     1 GTP        -0.1604
     29 C2         -2.4069    3.0373    2.2768 C.ar      1 GTP         0.4468
     30 N2         -3.0679    2.6964    3.4278 N.pl3     1 GTP        -0.5618
     31 N3         -1.2653    2.4872    1.9379 N.2       1 GTP        -0.4283
     32 C4         -0.7342    2.9334    0.7643 C.ar      1 GTP         0.2226
     33 H5'         2.8432    0.3119   -2.6398 H         1 GTP        -0.0393
     34 H5''        1.2128   -0.0927   -2.0428 H         1 GTP        -0.0393
     35 H4'         3.8044   -0.1397   -0.4040 H         1 GTP        -0.0393
     36 H3'         1.6764   -1.7639    0.2728 H         1 GTP        -0.0393
     37 HO3'        3.5554   -1.2733    1.4914 H         1 GTP         0.2010
     38 H2'        -0.0011    0.0027    0.0003 H         1 GTP        -0.0393
     39 HO2'        0.8082    0.1199    2.7232 H         1 GTP         0.2010
     40 H1'         1.7826    1.9024    1.6451 H         1 GTP        -0.0393
     41 H8          1.3888    3.1325   -1.6361 H         1 GTP         0.0000
     42 HN1        -3.9188    4.3932    1.8170 H         1 GTP         0.0865
     43 HN21       -2.6609    2.0087    4.0186 H         1 GTP         0.2048
     44 HN22       -3.9293    3.1496    3.6283 H         1 GTP         0.2048
     45 H45        -0.5938    4.6820   -1.9060 H         1 GTP         0.2048
@<TRIPOS>BOND
     1    1    2 2
     2    1    3 1
     3    1    4 1
     4    1    5 1
     5    5    6 1
     6    6    7 2
     7    6    8 1
     8    6    9 1
     9    9   10 1
    10   10   11 2
    11   10   12 1
    12   10   13 1
    13   13   14 1
    14   14   15 1
    15   14   33 1
    16   14   34 1
    17   15   16 1
    18   15   17 1
    19   15   35 1
    20   16   21 1
    21   17   18 1
    22   17   19 1
    23   17   36 1
    24   18   37 1
    25   19   20 1
    26   19   21 1
    27   19   38 1
    28   20   39 1
    29   21   22 1
    30   21   40 1
    31   22   23 ar
    32   22   32 ar
    33   23   24 ar
    34   23   41 1
    35   24   25 ar
    36   24   45 1
    37   25   26 ar
    38   25   32 ar
    39   26   27 2
    40   26   28 ar
    41   28   29 ar
    42   28   42 1
    43   29   30 1
    44   29   31 ar
    45   30   43 1
    46   30   44 1
    47   31   32 ar
@<TRIPOS>SUBSTRUCTURE
     1 GTP         1 GROUP 0 A     ****
@<TRIPOS>MOLECULE
[[[5-(2-amino-6-oxo-7,8-dihydro-1~{H}-purin-8-ylium-9-yl)-3,4-dihydroxy-tetrahydrofuran-2-yl]methoxy-oxido-phosphoryl]oxy-oxido-phosphoryl] phosphate
   45    47     1     0     0
SMALL
USER_CHARGES

@<TRIPOS>ATOM
      1 PG          4.1536    5.7431   -0.6260 P.3       1 GTP        -1.1921
      2 O1G         5.3089    6.3342   -1.4271 O.co2     1 GTP         0.3195
      3 O2G         2.9807    6.6952   -0.4174 O.co2     1 GTP         0.3195
      4 O3G         4.5824    4.9932    0.6310 O.co2     1 GTP         0.3195
      5 O3B         3.5469    4.5604   -1.6022 O.3       1 GTP         0.4672
      6 PB          4.2699    3.2287   -2.2128 P.3       1 GTP        -1.1062
      7 O1B         5.3529    3.6609   -3.1761 O.co2     1 GTP         0.3195
      8 O2B         4.5527    2.2589   -1.0873 O.co2     1 GTP         0.3195
      9 O3A         3.0122    2.6101   -3.0502 O.3       1 GTP         0.4672
     10 PA          2.9240    1.2545   -3.9582 P.3       1 GTP        -1.1062
     11 O1A         1.4857    1.0623   -4.3872 O.co2     1 GTP         0.3195
     12 O2A         4.0474    1.2642   -4.9720 O.co2     1 GTP         0.3195
     13 O5'         3.2903    0.1346   -2.8241 O.3       1 GTP         0.1618
     14 C5'         2.2816   -0.2918   -1.9206 C.3       1 GTP         0.1504
     15 C4'         2.7248    0.0226   -0.4980 C.3       1 GTP         0.1111
     16 O4'         2.4697    1.4219   -0.2462 O.3       1 GTP        -0.1436
     17 C3'         1.9404   -0.7419    0.5596 C.3       1 GTP         0.1111
     18 O3'         2.7418   -0.8086    1.7389 O.3       1 GTP        -0.2728
     19 C2'         0.7477    0.1630    0.7858 C.3       1 GTP         0.1111
     20 O2'         0.1373   -0.0577    2.0407 O.3       1 GTP        -0.2728
     21 C1'         1.3733    1.5427    0.6747 C.3       1 GTP         0.2693
     22 N9          0.4520    2.5240    0.1767 N.pl3     1 GTP        -0.3222
     23 C8          0.5671    3.2221   -0.9473 C.ar      1 GTP         0.1640
     24 N7         -0.4560    4.0508   -1.1290 N.pl3     1 GTP        -0.3688
     25 C5         -1.2671    3.8585   -0.0441 C.ar      1 GTP         0.0648
     26 C6         -2.5318    4.5014    0.2817 C.ar      1 GTP         0.3597
     27 O6         -3.0527    5.3493   -0.4293 O.2       1 GTP        -0.2755
     28 N1         -3.0357    4.0149    1.4868 N.pl3     1 GTP        -0.1604
     29 C2         -2.4069    3.0373    2.2768 C.ar      1 GTP         0.4468
     30 N2         -3.0679    2.6964    3.4278 N.pl3     1 GTP        -0.5618
     31 N3         -1.2653    2.4872    1.9379 N.2       1 GTP        -0.4283
     32 C4         -0.7342    2.9334    0.7643 C.ar      1 GTP         0.2226
     33 H5'         1.3514    0.2330   -2.1577 H         1 GTP        -0.0393
     34 H5''        2.1280   -1.3678   -2.0460 H         1 GTP        -0.0393
     35 H4'         3.8044   -0.1397   -0.4040 H         1 GTP        -0.0393
     36 H3'         1.6764   -1.7639    0.2728 H         1 GTP        -0.0393
     37 HO3'        3.5554   -1.2733    1.4914 H         1 GTP         0.2010
     38 H2'        -0.0011    0.0027    0.0003 H         1 GTP        -0.0393
     39 HO2'       -0.1563   -0.9855    2.0596 H         1 GTP         0.2010
     40 H1'         1.7826    1.9024    1.6451 H         1 GTP        -0.0393
     41 H8          1.3888    3.1325   -1.6361 H         1 GTP         0.0000
     42 HN1        -3.9188    4.3932    1.8170 H         1 GTP         0.0865
     43 HN21       -2.6609    2.0087    4.0186 H         1 GTP         0.2048
     44 HN22       -3.9293    3.1496    3.6283 H         1 GTP         0.2048
     45 H45        -0.5938    4.6820   -1.9060 H         1 GTP         0.2048
@<TRIPOS>BOND
     1    1    2 2
     2    1    3 1
     3    1    4 1
     4    1    5 1
     5    5    6 1
     6    6    7 2
     7    6    8 1
     8    6    9 1
     9    9   10 1
    10   10   11 2
    11   10   12 1
    12   10   13 1
    13   13   14 1
    14   14   15 1
    15   14   33 1
    16   14   34 1
    17   15   16 1
    18   15   17 1
    19   15   35 1
    20   16   21 1
    21   17   18 1
    22   17   19 1
    23   17   36 1
    24   18   37 1
    25   19   20 1
    26   19   21 1
    27   19   38 1
    28   20   39 1
    29   21   22 1
    30   21   40 1
    31   22   23 ar
    32   22   32 ar
    33   23   24 ar
    34   23   41 1
    35   24   25 ar
    36   24   45 1
    37   25   26 ar
    38   25   32 ar
    39   26   27 2
    40   26   28 ar
    41   28   29 ar
    42   28   42 1
    43   29   30 1
    44   29   31 ar
    45   30   43 1
    46   30   44 1
    47   31   32 ar
@<TRIPOS>SUBSTRUCTURE
     1 GTP         1 GROUP 0 A     ****
@<TRIPOS>MOLECULE
[[[5-(2-amino-6-oxo-7,8-dihydro-1~{H}-purin-8-ylium-9-yl)-3,4-dihydroxy-tetrahydrofuran-2-yl]methoxy-oxido-phosphoryl]oxy-oxido-phosphoryl] phosphate
   45    47     1     0     0
SMALL
USER_CHARGES

@<TRIPOS>ATOM
      1 PG          7.9231    2.7565   -2.8501 P.3       1 GTP        -1.1921
      2 O1G         8.3885    1.3550   -2.4690 O.co2     1 GTP         0.3195
      3 O2G         8.1787    3.1298   -4.3065 O.co2     1 GTP         0.3195
      4 O3G         8.3118    3.8392   -1.8488 O.co2     1 GTP         0.3195
      5 O3B         6.2797    2.6835   -2.7329 O.3       1 GTP         0.4672
      6 PB          5.3326    2.3350   -1.4481 P.3       1 GTP        -1.1062
      7 O1B         5.5638    0.8945   -1.0492 O.co2     1 GTP         0.3195
      8 O2B         5.4296    3.4601   -0.4420 O.co2     1 GTP         0.3195
      9 O3A         3.8689    2.4750   -2.1576 O.3       1 GTP         0.4672
     10 PA          3.2351    1.6560   -3.4214 P.3       1 GTP        -1.1062
     11 O1A         1.7871    2.0671   -3.5765 O.co2     1 GTP         0.3195
     12 O2A         4.1965    1.7253   -4.5880 O.co2     1 GTP         0.3195
     13 O5'         3.2903    0.1346   -2.8241 O.3       1 GTP         0.1618
     14 C5'         2.2816   -0.2918   -1.9206 C.3       1 GTP         0.1504
     15 C4'         2.7248    0.0226   -0.4980 C.3       1 GTP         0.1111
     16 O4'         2.4697    1.4219   -0.2462 O.3       1 GTP        -0.1436
     17 C3'         1.9404   -0.7419    0.5596 C.3       1 GTP         0.1111
     18 O3'         2.7418   -0.8086    1.7389 O.3       1 GTP        -0.2728
     19 C2'         0.7477    0.1630    0.7858 C.3       1 GTP         0.1111
     20 O2'         0.1373   -0.0577    2.0407 O.3       1 GTP        -0.2728
     21 C1'         1.3733    1.5427    0.6747 C.3       1 GTP         0.2693
     22 N9          0.4520    2.5240    0.1767 N.pl3     1 GTP        -0.3222
     23 C8          0.5671    3.2221   -0.9473 C.ar      1 GTP         0.1640
     24 N7         -0.4560    4.0508   -1.1290 N.pl3     1 GTP        -0.3688
     25 C5         -1.2671    3.8585   -0.0441 C.ar      1 GTP         0.0648
     26 C6         -2.5318    4.5014    0.2817 C.ar      1 GTP         0.3597
     27 O6         -3.0527    5.3493   -0.4293 O.2       1 GTP        -0.2755
     28 N1         -3.0357    4.0149    1.4868 N.pl3     1 GTP        -0.1604
     29 C2         -2.4069    3.0373    2.2768 C.ar      1 GTP         0.4468
     30 N2         -3.0679    2.6964    3.4278 N.pl3     1 GTP        -0.5618
     31 N3         -1.2653    2.4872    1.9379 N.2       1 GTP        -0.4283
     32 C4         -0.7342    2.9334    0.7643 C.ar      1 GTP         0.2226
     33 H5'         1.3514    0.2330   -2.1577 H         1 GTP        -0.0393
     34 H5''        2.1280   -1.3678   -2.0460 H         1 GTP        -0.0393
     35 H4'         3.8044   -0.1397   -0.4040 H         1 GTP        -0.0393
     36 H3'         1.6764   -1.7639    0.2728 H         1 GTP        -0.0393
     37 HO3'        2.2232   -1.2979    2.3953 H         1 GTP         0.2010
     38 H2'        -0.0011    0.0027    0.0003 H         1 GTP        -0.0393
     39 HO2'       -0.1563   -0.9855    2.0596 H         1 GTP         0.2010
     40 H1'         1.7826    1.9024    1.6451 H         1 GTP        -0.0393
     41 H8          1.3888    3.1325   -1.6361 H         1 GTP         0.0000
     42 HN1        -3.9188    4.3932    1.8170 H         1 GTP         0.0865
     43 HN21       -2.6609    2.0087    4.0186 H         1 GTP         0.2048
     44 HN22       -3.9293    3.1496    3.6283 H         1 GTP         0.2048
     45 H45        -0.5938    4.6820   -1.9060 H         1 GTP         0.2048
@<TRIPOS>BOND
     1    1    2 2
     2    1    3 1
     3    1    4 1
     4    1    5 1
     5    5    6 1
     6    6    7 2
     7    6    8 1
     8    6    9 1
     9    9   10 1
    10   10   11 2
    11   10   12 1
    12   10   13 1
    13   13   14 1
    14   14   15 1
    15   14   33 1
    16   14   34 1
    17   15   16 1
    18   15   17 1
    19   15   35 1
    20   16   21 1
    21   17   18 1
    22   17   19 1
    23   17   36 1
    24   18   37 1
    25   19   20 1
    26   19   21 1
    27   19   38 1
    28   20   39 1
    29   21   22 1
    30   21   40 1
    31   22   23 ar
    32   22   32 ar
    33   23   24 ar
    34   23   41 1
    35   24   25 ar
    36   24   45 1
    37   25   26 ar
    38   25   32 ar
    39   26   27 2
    40   26   28 ar
    41   28   29 ar
    42   28   42 1
    43   29   30 1
    44   29   31 ar
    45   30   43 1
    46   30   44 1
    47   31   32 ar
@<TRIPOS>SUBSTRUCTURE
     1 GTP         1 GROUP 0 A     ****
@<TRIPOS>MOLECULE
[[[5-(2-amino-6-oxo-7,8-dihydro-1~{H}-purin-8-ylium-9-yl)-3,4-dihydroxy-tetrahydrofuran-2-yl]methoxy-oxido-phosphoryl]oxy-oxido-phosphoryl] phosphate
   45    47     1     0     0
SMALL
USER_CHARGES

@<TRIPOS>ATOM
      1 PG          3.3718   -0.5274   -8.0329 P.3       1 GTP        -1.1921
      2 O1G         2.2764   -1.1827   -8.8675 O.co2     1 GTP         0.3195
      3 O2G         3.9825    0.7194   -8.6640 O.co2     1 GTP         0.3195
      4 O3G         4.3939   -1.5051   -7.4627 O.co2     1 GTP         0.3195
      5 O3B         2.5820    0.0383   -6.7003 O.3       1 GTP         0.4672
      6 PB          1.7139   -0.7654   -5.5735 P.3       1 GTP        -1.1062
      7 O1B         0.4802   -1.3434   -6.2304 O.co2     1 GTP         0.3195
      8 O2B         2.6471   -1.6235   -4.7488 O.co2     1 GTP         0.3195
      9 O3A         1.2866    0.4939   -4.6264 O.3       1 GTP         0.4672
     10 PA          2.2228    1.5519   -3.8055 P.3       1 GTP        -1.1062
     11 O1A         3.2098    2.1650   -4.7747 O.co2     1 GTP         0.3195
     12 O2A         1.3410    2.4199   -2.9341 O.co2     1 GTP         0.3195
     13 O5'         3.0213    0.5153   -2.8245 O.3       1 GTP         0.1618
     14 C5'         2.2816   -0.2918   -1.9206 C.3       1 GTP         0.1504
     15 C4'         2.7248    0.0226   -0.4980 C.3       1 GTP         0.1111
     16 O4'         2.4697    1.4219   -0.2462 O.3       1 GTP        -0.1436
     17 C3'         1.9404   -0.7419    0.5596 C.3       1 GTP         0.1111
     18 O3'         2.7418   -0.8086    1.7389 O.3       1 GTP        -0.2728
     19 C2'         0.7477    0.1630    0.7858 C.3       1 GTP         0.1111
     20 O2'         0.1373   -0.0577    2.0407 O.3       1 GTP        -0.2728
     21 C1'         1.3733    1.5427    0.6747 C.3       1 GTP         0.2693
     22 N9          0.4520    2.5240    0.1767 N.pl3     1 GTP        -0.3222
     23 C8         -0.8613    2.5511    0.3730 C.ar      1 GTP         0.1640
     24 N7         -1.4346    3.5939   -0.2188 N.pl3     1 GTP        -0.3688
     25 C5         -0.4099    4.2657   -0.8276 C.ar      1 GTP         0.0648
     26 C6         -0.4554    5.4854   -1.6209 C.ar      1 GTP         0.3597
     27 O6         -1.4907    6.0944   -1.8508 O.2       1 GTP        -0.2755
     28 N1          0.8205    5.8357   -2.0593 N.pl3     1 GTP        -0.1604
     29 C2          1.9890    5.1091   -1.7730 C.ar      1 GTP         0.4468
     30 N2          3.1452    5.6230   -2.2997 N.pl3     1 GTP        -0.5618
     31 N3          1.9765    4.0139   -1.0514 N.2       1 GTP        -0.4283
     32 C4          0.7480    3.6324   -0.6003 C.ar      1 GTP         0.2226
     33 H5'         1.2163   -0.0770   -2.0471 H         1 GTP        -0.0393
     34 H5''        2.4655   -1.3443   -2.1563 H         1 GTP        -0.0393
     35 H4'         3.8044   -0.1397   -0.4040 H         1 GTP        -0.0393
     36 H3'         1.6764   -1.7639    0.2728 H         1 GTP        -0.0393
     37 HO3'        3.5554   -1.2733    1.4914 H         1 GTP         0.2010
     38 H2'        -0.0011    0.0027    0.0003 H         1 GTP        -0.0393
     39 HO2'        0.8082    0.1199    2.7232 H         1 GTP         0.2010
     40 H1'         1.7826    1.9024    1.6451 H         1 GTP        -0.0393
     41 H8         -1.4050    1.8187    0.9438 H         1 GTP         0.0000
     42 HN1         0.9121    6.6744   -2.6251 H         1 GTP         0.0865
     43 HN21        3.9971    5.1427   -2.1235 H         1 GTP         0.2048
     44 HN22        3.0881    6.4564   -2.8380 H         1 GTP         0.2048
     45 H45        -2.4173    3.8294   -0.2127 H         1 GTP         0.2048
@<TRIPOS>BOND
     1    1    2 2
     2    1    3 1
     3    1    4 1
     4    1    5 1
     5    5    6 1
     6    6    7 2
     7    6    8 1
     8    6    9 1
     9    9   10 1
    10   10   11 2
    11   10   12 1
    12   10   13 1
    13   13   14 1
    14   14   15 1
    15   14   33 1
    16   14   34 1
    17   15   16 1
    18   15   17 1
    19   15   35 1
    20   16   21 1
    21   17   18 1
    22   17   19 1
    23   17   36 1
    24   18   37 1
    25   19   20 1
    26   19   21 1
    27   19   38 1
    28   20   39 1
    29   21   22 1
    30   21   40 1
    31   22   23 ar
    32   22   32 ar
    33   23   24 ar
    34   23   41 1
    35   24   25 ar
    36   24   45 1
    37   25   26 ar
    38   25   32 ar
    39   26   27 2
    40   26   28 ar
    41   28   29 ar
    42   28   42 1
    43   29   30 1
    44   29   31 ar
    45   30   43 1
    46   30   44 1
    47   31   32 ar
@<TRIPOS>SUBSTRUCTURE
     1 GTP         1 GROUP 0 A     ****
@<TRIPOS>MOLECULE
[[[5-(2-amino-6-oxo-7,8-dihydro-1~{H}-purin-8-ylium-9-yl)-3,4-dihydroxy-tetrahydrofuran-2-yl]methoxy-oxido-phosphoryl]oxy-oxido-phosphoryl] phosphate
   45    47     1     0     0
SMALL
USER_CHARGES

@<TRIPOS>ATOM
      1 PG          6.5685   -0.4965    1.1124 P.3       1 GTP        -1.1921
      2 O1G         5.4271    0.3938    0.6326 O.co2     1 GTP         0.3195
      3 O2G         6.4620   -0.9237    2.5725 O.co2     1 GTP         0.3195
      4 O3G         7.9552   -0.0129    0.7012 O.co2     1 GTP         0.3195
      5 O3B         6.3730   -1.8978    0.2650 O.3       1 GTP         0.4672
      6 PB          6.3763   -2.1593   -1.3477 P.3       1 GTP        -1.1062
      7 O1B         7.6565   -1.6018   -1.9288 O.co2     1 GTP         0.3195
      8 O2B         5.9368   -3.5807   -1.6196 O.co2     1 GTP         0.3195
      9 O3A         5.1243   -1.2003   -1.7699 O.3       1 GTP         0.4672
     10 PA          4.4792   -0.9077   -3.2423 P.3       1 GTP        -1.1062
     11 O1A         5.5058   -0.1691   -4.0730 O.co2     1 GTP         0.3195
     12 O2A         3.8219   -2.1709   -3.7543 O.co2     1 GTP         0.3195
     13 O5'         3.2903    0.1346   -2.8241 O.3       1 GTP         0.1618
     14 C5'         2.2816   -0.2918   -1.9206 C.3       1 GTP         0.1504
     15 C4'         2.7248    0.0226   -0.4980 C.3       1 GTP         0.1111
     16 O4'         2.4697    1.4219   -0.2462 O.3       1 GTP        -0.1436
     17 C3'         1.9404   -0.7419    0.5596 C.3       1 GTP         0.1111
     18 O3'         2.7418   -0.8086    1.7389 O.3       1 GTP        -0.2728
     19 C2'         0.7477    0.1630    0.7858 C.3       1 GTP         0.1111
     20 O2'         0.1373   -0.0577    2.0407 O.3       1 GTP        -0.2728
     21 C1'         1.3733    1.5427    0.6747 C.3       1 GTP         0.2693
     22 N9          0.4520    2.5240    0.1767 N.pl3     1 GTP        -0.3222
     23 C8          0.5671    3.2221   -0.9473 C.ar      1 GTP         0.1640
     24 N7         -0.4560    4.0508   -1.1290 N.pl3     1 GTP        -0.3688
     25 C5         -1.2671    3.8585   -0.0441 C.ar      1 GTP         0.0648
     26 C6         -2.5318    4.5014    0.2817 C.ar      1 GTP         0.3597
     27 O6         -3.0527    5.3493   -0.4293 O.2       1 GTP        -0.2755
     28 N1         -3.0357    4.0149    1.4868 N.pl3     1 GTP        -0.1604
     29 C2         -2.4069    3.0373    2.2768 C.ar      1 GTP         0.4468
     30 N2         -3.0679    2.6964    3.4278 N.pl3     1 GTP        -0.5618
     31 N3         -1.2653    2.4872    1.9379 N.2       1 GTP        -0.4283
     32 C4         -0.7342    2.9334    0.7643 C.ar      1 GTP         0.2226
     33 H5'         1.3514    0.2330   -2.1577 H         1 GTP        -0.0393
     34 H5''        2.1280   -1.3678   -2.0460 H         1 GTP        -0.0393
     35 H4'         3.8044   -0.1397   -0.4040 H         1 GTP        -0.0393
     36 H3'         1.6764   -1.7639    0.2728 H         1 GTP        -0.0393
     37 HO3'        3.5554   -1.2733    1.4914 H         1 GTP         0.2010
     38 H2'        -0.0011    0.0027    0.0003 H         1 GTP        -0.0393
     39 HO2'       -0.1563   -0.9855    2.0596 H         1 GTP         0.2010
     40 H1'         1.7826    1.9024    1.6451 H         1 GTP        -0.0393
     41 H8          1.3888    3.1325   -1.6361 H         1 GTP         0.0000
     42 HN1        -3.9188    4.3932    1.8170 H         1 GTP         0.0865
     43 HN21       -2.6609    2.0087    4.0186 H         1 GTP         0.2048
     44 HN22       -3.9293    3.1496    3.6283 H         1 GTP         0.2048
     45 H45        -0.5938    4.6820   -1.9060 H         1 GTP         0.2048
@<TRIPOS>BOND
     1    1    2 2
     2    1    3 1
     3    1    4 1
     4    1    5 1
     5    5    6 1
     6    6    7 2
     7    6    8 1
     8    6    9 1
     9    9   10 1
    10   10   11 2
    11   10   12 1
    12   10   13 1
    13   13   14 1
    14   14   15 1
    15   14   33 1
    16   14   34 1
    17   15   16 1
    18   15   17 1
    19   15   35 1
    20   16   21 1
    21   17   18 1
    22   17   19 1
    23   17   36 1
    24   18   37 1
    25   19   20 1
    26   19   21 1
    27   19   38 1
    28   20   39 1
    29   21   22 1
    30   21   40 1
    31   22   23 ar
    32   22   32 ar
    33   23   24 ar
    34   23   41 1
    35   24   25 ar
    36   24   45 1
    37   25   26 ar
    38   25   32 ar
    39   26   27 2
    40   26   28 ar
    41   28   29 ar
    42   28   42 1
    43   29   30 1
    44   29   31 ar
    45   30   43 1
    46   30   44 1
    47   31   32 ar
@<TRIPOS>SUBSTRUCTURE
     1 GTP         1 GROUP 0 A     ****
@<TRIPOS>MOLECULE
[[[5-(2-amino-6-oxo-7,8-dihydro-1~{H}-purin-8-ylium-9-yl)-3,4-dihydroxy-tetrahydrofuran-2-yl]methoxy-oxido-phosphoryl]oxy-oxido-phosphoryl] phosphate
   45    47     1     0     0
SMALL
USER_CHARGES

@<TRIPOS>ATOM
      1 PG          6.5527    0.1082    0.9391 P.3       1 GTP        -1.1921
      2 O1G         6.1496   -1.1848    0.2379 O.co2     1 GTP         0.3195
      3 O2G         7.8968    0.0420    1.6565 O.co2     1 GTP         0.3195
      4 O3G         5.4374    0.7507    1.7571 O.co2     1 GTP         0.3195
      5 O3B         6.8029    1.1760   -0.2926 O.3       1 GTP         0.4672
      6 PB          5.7765    1.7069   -1.4475 P.3       1 GTP        -1.1062
      7 O1B         4.5377    2.2618   -0.7803 O.co2     1 GTP         0.3195
      8 O2B         6.5521    2.5088   -2.4685 O.co2     1 GTP         0.3195
      9 O3A         5.4200    0.2796   -2.1555 O.3       1 GTP         0.4672
     10 PA          4.4374   -0.0458   -3.4198 P.3       1 GTP        -1.1062
     11 O1A         4.8565    0.8248   -4.5842 O.co2     1 GTP         0.3195
     12 O2A         4.3080   -1.5458   -3.5723 O.co2     1 GTP         0.3195
     13 O5'         3.0213    0.5153   -2.8245 O.3       1 GTP         0.1618
     14 C5'         2.2816   -0.2918   -1.9206 C.3       1 GTP         0.1504
     15 C4'         2.7248    0.0226   -0.4980 C.3       1 GTP         0.1111
     16 O4'         2.4697    1.4219   -0.2462 O.3       1 GTP        -0.1436
     17 C3'         1.9404   -0.7419    0.5596 C.3       1 GTP         0.1111
     18 O3'         2.7418   -0.8086    1.7389 O.3       1 GTP        -0.2728
     19 C2'         0.7477    0.1630    0.7858 C.3       1 GTP         0.1111
     20 O2'         0.1373   -0.0577    2.0407 O.3       1 GTP        -0.2728
     21 C1'         1.3733    1.5427    0.6747 C.3       1 GTP         0.2693
     22 N9          0.4520    2.5240    0.1767 N.pl3     1 GTP        -0.3222
     23 C8         -0.6818    2.9109    0.7501 C.ar      1 GTP         0.1640
     24 N7         -1.3103    3.8415    0.0391 N.pl3     1 GTP        -0.3688
     25 C5         -0.5155    4.0512   -1.0547 C.ar      1 GTP         0.0648
     26 C6         -0.7125    4.9651   -2.1705 C.ar      1 GTP         0.3597
     27 O6         -1.6819    5.7047   -2.2651 O.2       1 GTP        -0.2755
     28 N1          0.3401    4.8672   -3.0790 N.pl3     1 GTP        -0.1604
     29 C2          1.4396    4.0039   -2.9348 C.ar      1 GTP         0.4468
     30 N2          2.3679    4.0602   -3.9414 N.pl3     1 GTP        -0.5618
     31 N3          1.5708    3.1983   -1.9080 N.2       1 GTP        -0.4283
     32 C4          0.5630    3.2599   -0.9921 C.ar      1 GTP         0.2226
     33 H5'         1.2163   -0.0770   -2.0471 H         1 GTP        -0.0393
     34 H5''        2.4655   -1.3443   -2.1563 H         1 GTP        -0.0393
     35 H4'         3.8044   -0.1397   -0.4040 H         1 GTP        -0.0393
     36 H3'         1.6764   -1.7639    0.2728 H         1 GTP        -0.0393
     37 HO3'        2.2232   -1.2979    2.3953 H         1 GTP         0.2010
     38 H2'        -0.0011    0.0027    0.0003 H         1 GTP        -0.0393
     39 HO2'       -0.1563   -0.9855    2.0596 H         1 GTP         0.2010
     40 H1'         1.7826    1.9024    1.6451 H         1 GTP        -0.0393
     41 H8         -1.0545    2.5222    1.6816 H         1 GTP         0.0000
     42 HN1         0.3104    5.4612   -3.9026 H         1 GTP         0.0865
     43 HN21        3.1632    3.4672   -3.8824 H         1 GTP         0.2048
     44 HN22        2.2108    4.6918   -4.6924 H         1 GTP         0.2048
     45 H45        -2.1863    4.2902    0.2681 H         1 GTP         0.2048
@<TRIPOS>BOND
     1    1    2 2
     2    1    3 1
     3    1    4 1
     4    1    5 1
     5    5    6 1
     6    6    7 2
     7    6    8 1
     8    6    9 1
     9    9   10 1
    10   10   11 2
    11   10   12 1
    12   10   13 1
    13   13   14 1
    14   14   15 1
    15   14   33 1
    16   14   34 1
    17   15   16 1
    18   15   17 1
    19   15   35 1
    20   16   21 1
    21   17   18 1
    22   17   19 1
    23   17   36 1
    24   18   37 1
    25   19   20 1
    26   19   21 1
    27   19   38 1
    28   20   39 1
    29   21   22 1
    30   21   40 1
    31   22   23 ar
    32   22   32 ar
    33   23   24 ar
    34   23   41 1
    35   24   25 ar
    36   24   45 1
    37   25   26 ar
    38   25   32 ar
    39   26   27 2
    40   26   28 ar
    41   28   29 ar
    42   28   42 1
    43   29   30 1
    44   29   31 ar
    45   30   43 1
    46   30   44 1
    47   31   32 ar
@<TRIPOS>SUBSTRUCTURE
     1 GTP         1 GROUP 0 A     ****
@<TRIPOS>MOLECULE
[[[5-(2-amino-6-oxo-7,8-dihydro-1~{H}-purin-8-ylium-9-yl)-3,4-dihydroxy-tetrahydrofuran-2-yl]methoxy-oxido-phosphoryl]oxy-oxido-phosphoryl] phosphate
   45    47     1     0     0
SMALL
USER_CHARGES

@<TRIPOS>ATOM
      1 PG          6.2382    3.9723    0.8657 P.3       1 GTP        -1.1921
      2 O1G         7.4500    4.4619    0.0797 O.co2     1 GTP         0.3195
      3 O2G         5.4920    5.0686    1.6186 O.co2     1 GTP         0.3195
      4 O3G         6.4911    2.7109    1.6848 O.co2     1 GTP         0.3195
      5 O3B         5.1742    3.4813   -0.2947 O.3       1 GTP         0.4672
      6 PB          5.3326    2.3350   -1.4481 P.3       1 GTP        -1.1062
      7 O1B         6.4074    2.7678   -2.4203 O.co2     1 GTP         0.3195
      8 O2B         5.3612    0.9729   -0.7916 O.co2     1 GTP         0.3195
      9 O3A         3.8689    2.4750   -2.1576 O.3       1 GTP         0.4672
     10 PA          3.2351    1.6560   -3.4214 P.3       1 GTP        -1.1062
     11 O1A         1.7871    2.0671   -3.5765 O.co2     1 GTP         0.3195
     12 O2A         4.1965    1.7253   -4.5880 O.co2     1 GTP         0.3195
     13 O5'         3.2903    0.1346   -2.8241 O.3       1 GTP         0.1618
     14 C5'         2.2816   -0.2918   -1.9206 C.3       1 GTP         0.1504
     15 C4'         2.7248    0.0226   -0.4980 C.3       1 GTP         0.1111
     16 O4'         2.4697    1.4219   -0.2462 O.3       1 GTP        -0.1436
     17 C3'         1.9404   -0.7419    0.5596 C.3       1 GTP         0.1111
     18 O3'         2.7418   -0.8086    1.7389 O.3       1 GTP        -0.2728
     19 C2'         0.7477    0.1630    0.7858 C.3       1 GTP         0.1111
     20 O2'         0.1373   -0.0577    2.0407 O.3       1 GTP        -0.2728
     21 C1'         1.3733    1.5427    0.6747 C.3       1 GTP         0.2693
     22 N9          0.4520    2.5240    0.1767 N.pl3     1 GTP        -0.3222
     23 C8         -0.2009    2.4849   -0.9792 C.ar      1 GTP         0.1640
     24 N7         -0.9840    3.5454   -1.1481 N.pl3     1 GTP        -0.3688
     25 C5         -0.8090    4.3005   -0.0206 C.ar      1 GTP         0.0648
     26 C6         -1.4206    5.5724    0.3362 C.ar      1 GTP         0.3597
     27 O6         -2.2199    6.1544   -0.3836 O.2       1 GTP        -0.2755
     28 N1         -0.9680    6.0043    1.5817 N.pl3     1 GTP        -0.1604
     29 C2         -0.0474    5.3055    2.3814 C.ar      1 GTP         0.4468
     30 N2          0.2680    5.9024    3.5740 N.pl3     1 GTP        -0.5618
     31 N3          0.4755    4.1601    2.0138 N.2       1 GTP        -0.4283
     32 C4          0.0611    3.6981    0.8001 C.ar      1 GTP         0.2226
     33 H5'         1.3514    0.2330   -2.1577 H         1 GTP        -0.0393
     34 H5''        2.1280   -1.3678   -2.0460 H         1 GTP        -0.0393
     35 H4'         3.8044   -0.1397   -0.4040 H         1 GTP        -0.0393
     36 H3'         1.6764   -1.7639    0.2728 H         1 GTP        -0.0393
     37 HO3'        2.2232   -1.2979    2.3953 H         1 GTP         0.2010
     38 H2'        -0.0011    0.0027    0.0003 H         1 GTP        -0.0393
     39 HO2'       -0.1563   -0.9855    2.0596 H         1 GTP         0.2010
     40 H1'         1.7826    1.9024    1.6451 H         1 GTP        -0.0393
     41 H8         -0.1126    1.6906   -1.6997 H         1 GTP         0.0000
     42 HN1        -1.3285    6.8855    1.9361 H         1 GTP         0.0865
     43 HN21        0.9153    5.4446    4.1732 H         1 GTP         0.2048
     44 HN22       -0.1624    6.7706    3.7948 H         1 GTP         0.2048
     45 H45        -1.5768    3.7405   -1.9429 H         1 GTP         0.2048
@<TRIPOS>BOND
     1    1    2 2
     2    1    3 1
     3    1    4 1
     4    1    5 1
     5    5    6 1
     6    6    7 2
     7    6    8 1
     8    6    9 1
     9    9   10 1
    10   10   11 2
    11   10   12 1
    12   10   13 1
    13   13   14 1
    14   14   15 1
    15   14   33 1
    16   14   34 1
    17   15   16 1
    18   15   17 1
    19   15   35 1
    20   16   21 1
    21   17   18 1
    22   17   19 1
    23   17   36 1
    24   18   37 1
    25   19   20 1
    26   19   21 1
    27   19   38 1
    28   20   39 1
    29   21   22 1
    30   21   40 1
    31   22   23 ar
    32   22   32 ar
    33   23   24 ar
    34   23   41 1
    35   24   25 ar
    36   24   45 1
    37   25   26 ar
    38   25   32 ar
    39   26   27 2
    40   26   28 ar
    41   28   29 ar
    42   28   42 1
    43   29   30 1
    44   29   31 ar
    45   30   43 1
    46   30   44 1
    47   31   32 ar
@<TRIPOS>SUBSTRUCTURE
     1 GTP         1 GROUP 0 A     ****
@<TRIPOS>MOLECULE
[[[5-(2-amino-6-oxo-7,8-dihydro-1~{H}-purin-8-ylium-9-yl)-3,4-dihydroxy-tetrahydrofuran-2-yl]methoxy-oxido-phosphoryl]oxy-oxido-phosphoryl] phosphate
   45    47     1     0     0
SMALL
USER_CHARGES

@<TRIPOS>ATOM
      1 PG          4.5395    4.2945   -5.9019 P.3       1 GTP        -1.1921
      2 O1G         5.0804    4.7614   -4.5547 O.co2     1 GTP         0.3195
      3 O2G         5.6064    3.7890   -6.8672 O.co2     1 GTP         0.3195
      4 O3G         3.5242    5.2425   -6.5316 O.co2     1 GTP         0.3195
      5 O3B         3.6525    2.9522   -5.5392 O.3       1 GTP         0.4672
      6 PB          2.3550    2.7833   -4.5609 P.3       1 GTP        -1.1062
      7 O1B         2.7809    3.0569   -3.1357 O.co2     1 GTP         0.3195
      8 O2B         1.1710    3.4896   -5.1825 O.co2     1 GTP         0.3195
      9 O3A         2.0908    1.1835   -4.7522 O.3       1 GTP         0.4672
     10 PA          3.0683   -0.0853   -4.4294 P.3       1 GTP        -1.1062
     11 O1A         2.2802   -1.3592   -4.6431 O.co2     1 GTP         0.3195
     12 O2A         4.4021    0.1320   -5.1103 O.co2     1 GTP         0.3195
     13 O5'         3.2903    0.1346   -2.8241 O.3       1 GTP         0.1618
     14 C5'         2.2816   -0.2918   -1.9206 C.3       1 GTP         0.1504
     15 C4'         2.7248    0.0226   -0.4980 C.3       1 GTP         0.1111
     16 O4'         2.4697    1.4219   -0.2462 O.3       1 GTP        -0.1436
     17 C3'         1.9404   -0.7419    0.5596 C.3       1 GTP         0.1111
     18 O3'         2.7418   -0.8086    1.7389 O.3       1 GTP        -0.2728
     19 C2'         0.7477    0.1630    0.7858 C.3       1 GTP         0.1111
     20 O2'         0.1373   -0.0577    2.0407 O.3       1 GTP        -0.2728
     21 C1'         1.3733    1.5427    0.6747 C.3       1 GTP         0.2693
     22 N9          0.4520    2.5240    0.1767 N.pl3     1 GTP        -0.3222
     23 C8         -0.8613    2.5511    0.3730 C.ar      1 GTP         0.1640
     24 N7         -1.4346    3.5939   -0.2188 N.pl3     1 GTP        -0.3688
     25 C5         -0.4099    4.2657   -0.8276 C.ar      1 GTP         0.0648
     26 C6         -0.4554    5.4854   -1.6209 C.ar      1 GTP         0.3597
     27 O6         -1.4907    6.0944   -1.8508 O.2       1 GTP        -0.2755
     28 N1          0.8205    5.8357   -2.0593 N.pl3     1 GTP        -0.1604
     29 C2          1.9890    5.1091   -1.7730 C.ar      1 GTP         0.4468
     30 N2          3.1452    5.6230   -2.2997 N.pl3     1 GTP        -0.5618
     31 N3          1.9765    4.0139   -1.0514 N.2       1 GTP        -0.4283
     32 C4          0.7480    3.6324   -0.6003 C.ar      1 GTP         0.2226
     33 H5'         1.3514    0.2330   -2.1577 H         1 GTP        -0.0393
     34 H5''        2.1280   -1.3678   -2.0460 H         1 GTP        -0.0393
     35 H4'         3.8044   -0.1397   -0.4040 H         1 GTP        -0.0393
     36 H3'         1.6764   -1.7639    0.2728 H         1 GTP        -0.0393
     37 HO3'        2.2232   -1.2979    2.3953 H         1 GTP         0.2010
     38 H2'        -0.0011    0.0027    0.0003 H         1 GTP        -0.0393
     39 HO2'       -0.1563   -0.9855    2.0596 H         1 GTP         0.2010
     40 H1'         1.7826    1.9024    1.6451 H         1 GTP        -0.0393
     41 H8         -1.4050    1.8187    0.9438 H         1 GTP         0.0000
     42 HN1         0.9121    6.6744   -2.6251 H         1 GTP         0.0865
     43 HN21        3.9971    5.1427   -2.1235 H         1 GTP         0.2048
     44 HN22        3.0881    6.4564   -2.8380 H         1 GTP         0.2048
     45 H45        -2.4173    3.8294   -0.2127 H         1 GTP         0.2048
@<TRIPOS>BOND
     1    1    2 2
     2    1    3 1
     3    1    4 1
     4    1    5 1
     5    5    6 1
     6    6    7 2
     7    6    8 1
     8    6    9 1
     9    9   10 1
    10   10   11 2
    11   10   12 1
    12   10   13 1
    13   13   14 1
    14   14   15 1
    15   14   33 1
    16   14   34 1
    17   15   16 1
    18   15   17 1
    19   15   35 1
    20   16   21 1
    21   17   18 1
    22   17   19 1
    23   17   36 1
    24   18   37 1
    25   19   20 1
    26   19   21 1
    27   19   38 1
    28   20   39 1
    29   21   22 1
    30   21   40 1
    31   22   23 ar
    32   22   32 ar
    33   23   24 ar
    34   23   41 1
    35   24   25 ar
    36   24   45 1
    37   25   26 ar
    38   25   32 ar
    39   26   27 2
    40   26   28 ar
    41   28   29 ar
    42   28   42 1
    43   29   30 1
    44   29   31 ar
    45   30   43 1
    46   30   44 1
    47   31   32 ar
@<TRIPOS>SUBSTRUCTURE
     1 GTP         1 GROUP 0 A     ****
@<TRIPOS>MOLECULE
[[[5-(2-amino-6-oxo-7,8-dihydro-1~{H}-purin-8-ylium-9-yl)-3,4-dihydroxy-tetrahydrofuran-2-yl]methoxy-oxido-phosphoryl]oxy-oxido-phosphoryl] phosphate
   45    47     1     0     0
SMALL
USER_CHARGES

@<TRIPOS>ATOM
      1 PG          7.6201    2.0164    0.8675 P.3       1 GTP        -1.1921
      2 O1G         6.5229    2.6883    1.6863 O.co2     1 GTP         0.3195
      3 O2G         8.4034    0.9477    1.6225 O.co2     1 GTP         0.3195
      4 O3G         8.4892    2.9844    0.0715 O.co2     1 GTP         0.3195
      5 O3B         6.8029    1.1760   -0.2926 O.3       1 GTP         0.4672
      6 PB          5.7765    1.7069   -1.4475 P.3       1 GTP        -1.1062
      7 O1B         4.5377    2.2618   -0.7803 O.co2     1 GTP         0.3195
      8 O2B         6.5521    2.5088   -2.4685 O.co2     1 GTP         0.3195
      9 O3A         5.4200    0.2796   -2.1555 O.3       1 GTP         0.4672
     10 PA          4.4374   -0.0458   -3.4198 P.3       1 GTP        -1.1062
     11 O1A         4.8565    0.8248   -4.5842 O.co2     1 GTP         0.3195
     12 O2A         4.3080   -1.5458   -3.5723 O.co2     1 GTP         0.3195
     13 O5'         3.0213    0.5153   -2.8245 O.3       1 GTP         0.1618
     14 C5'         2.2816   -0.2918   -1.9206 C.3       1 GTP         0.1504
     15 C4'         2.7248    0.0226   -0.4980 C.3       1 GTP         0.1111
     16 O4'         2.4697    1.4219   -0.2462 O.3       1 GTP        -0.1436
     17 C3'         1.9404   -0.7419    0.5596 C.3       1 GTP         0.1111
     18 O3'         2.7418   -0.8086    1.7389 O.3       1 GTP        -0.2728
     19 C2'         0.7477    0.1630    0.7858 C.3       1 GTP         0.1111
     20 O2'         0.1373   -0.0577    2.0407 O.3       1 GTP        -0.2728
     21 C1'         1.3733    1.5427    0.6747 C.3       1 GTP         0.2693
     22 N9          0.4520    2.5240    0.1767 N.pl3     1 GTP        -0.3222
     23 C8         -0.8613    2.5511    0.3730 C.ar      1 GTP         0.1640
     24 N7         -1.4346    3.5939   -0.2188 N.pl3     1 GTP        -0.3688
     25 C5         -0.4099    4.2657   -0.8276 C.ar      1 GTP         0.0648
     26 C6         -0.4554    5.4854   -1.6209 C.ar      1 GTP         0.3597
     27 O6         -1.4907    6.0944   -1.8508 O.2       1 GTP        -0.2755
     28 N1          0.8205    5.8357   -2.0593 N.pl3     1 GTP        -0.1604
     29 C2          1.9890    5.1091   -1.7730 C.ar      1 GTP         0.4468
     30 N2          3.1452    5.6230   -2.2997 N.pl3     1 GTP        -0.5618
     31 N3          1.9765    4.0139   -1.0514 N.2       1 GTP        -0.4283
     32 C4          0.7480    3.6324   -0.6003 C.ar      1 GTP         0.2226
     33 H5'         1.2163   -0.0770   -2.0471 H         1 GTP        -0.0393
     34 H5''        2.4655   -1.3443   -2.1563 H         1 GTP        -0.0393
     35 H4'         3.8044   -0.1397   -0.4040 H         1 GTP        -0.0393
     36 H3'         1.6764   -1.7639    0.2728 H         1 GTP        -0.0393
     37 HO3'        2.2232   -1.2979    2.3953 H         1 GTP         0.2010
     38 H2'        -0.0011    0.0027    0.0003 H         1 GTP        -0.0393
     39 HO2'       -0.1563   -0.9855    2.0596 H         1 GTP         0.2010
     40 H1'         1.7826    1.9024    1.6451 H         1 GTP        -0.0393
     41 H8         -1.4050    1.8187    0.9438 H         1 GTP         0.0000
     42 HN1         0.9121    6.6744   -2.6251 H         1 GTP         0.0865
     43 HN21        3.9971    5.1427   -2.1235 H         1 GTP         0.2048
     44 HN22        3.0881    6.4564   -2.8380 H         1 GTP         0.2048
     45 H45        -2.4173    3.8294   -0.2127 H         1 GTP         0.2048
@<TRIPOS>BOND
     1    1    2 2
     2    1    3 1
     3    1    4 1
     4    1    5 1
     5    5    6 1
     6    6    7 2
     7    6    8 1
     8    6    9 1
     9    9   10 1
    10   10   11 2
    11   10   12 1
    12   10   13 1
    13   13   14 1
    14   14   15 1
    15   14   33 1
    16   14   34 1
    17   15   16 1
    18   15   17 1
    19   15   35 1
    20   16   21 1
    21   17   18 1
    22   17   19 1
    23   17   36 1
    24   18   37 1
    25   19   20 1
    26   19   21 1
    27   19   38 1
    28   20   39 1
    29   21   22 1
    30   21   40 1
    31   22   23 ar
    32   22   32 ar
    33   23   24 ar
    34   23   41 1
    35   24   25 ar
    36   24   45 1
    37   25   26 ar
    38   25   32 ar
    39   26   27 2
    40   26   28 ar
    41   28   29 ar
    42   28   42 1
    43   29   30 1
    44   29   31 ar
    45   30   43 1
    46   30   44 1
    47   31   32 ar
@<TRIPOS>SUBSTRUCTURE
     1 GTP         1 GROUP 0 A     ****
@<TRIPOS>MOLECULE
[[[5-(2-amino-6-oxo-7,8-dihydro-1~{H}-purin-8-ylium-9-yl)-3,4-dihydroxy-tetrahydrofuran-2-yl]methoxy-oxido-phosphoryl]oxy-oxido-phosphoryl] phosphate
   45    47     1     0     0
SMALL
USER_CHARGES

@<TRIPOS>ATOM
      1 PG          1.1033   -5.2468   -3.8001 P.3       1 GTP        -1.1921
      2 O1G         1.4864   -6.6841   -4.1365 O.co2     1 GTP         0.3195
      3 O2G         0.2463   -4.5601   -4.8582 O.co2     1 GTP         0.3195
      4 O3G         2.2579   -4.3962   -3.2810 O.co2     1 GTP         0.3195
      5 O3B         0.1022   -5.3887   -2.4972 O.3       1 GTP         0.4672
      6 PB          0.3824   -6.0330   -1.0223 P.3       1 GTP        -1.1062
      7 O1B         0.6194   -7.5188   -1.1770 O.co2     1 GTP         0.3195
      8 O2B         1.3554   -5.1502   -0.2732 O.co2     1 GTP         0.3195
      9 O3A        -1.0824   -5.7833   -0.3461 O.3       1 GTP         0.4672
     10 PA         -1.6222   -6.1552    1.1506 P.3       1 GTP        -1.1062
     11 O1A        -3.0065   -5.5671    1.3167 O.co2     1 GTP         0.3195
     12 O2A        -1.3577   -7.6202    1.4220 O.co2     1 GTP         0.3195
     13 O5'        -0.5687   -5.2869    2.0510 O.3       1 GTP         0.1618
     14 C5'        -0.7840   -3.8935    2.2172 C.3       1 GTP         0.1504
     15 C4'        -0.0724   -3.1466    1.1027 C.3       1 GTP         0.1111
     16 O4'        -0.8674   -3.1929   -0.0945 O.3       1 GTP        -0.1436
     17 C3'         0.1338   -1.6715    1.4027 C.3       1 GTP         0.1111
     18 O3'         1.2893   -1.4445    2.1808 O.3       1 GTP        -0.2728
     19 C2'         0.2158   -1.0724    0.0128 C.3       1 GTP         0.1111
     20 O2'         1.5141   -1.2448   -0.5513 O.3       1 GTP        -0.2728
     21 C1'        -0.7897   -1.9176   -0.7583 C.3       1 GTP         0.2693
     22 N9         -2.1040   -1.3333   -0.7704 N.pl3     1 GTP        -0.3222
     23 C8         -3.0597   -1.5109    0.1345 C.ar      1 GTP         0.1640
     24 N7         -4.1618   -0.8291   -0.1607 N.pl3     1 GTP        -0.3688
     25 C5         -3.8764   -0.1805   -1.3310 C.ar      1 GTP         0.0648
     26 C6         -4.7187    0.7111   -2.1152 C.ar      1 GTP         0.3597
     27 O6         -5.8617    1.0043   -1.7939 O.2       1 GTP        -0.2755
     28 N1         -4.0405    1.1608   -3.2468 N.pl3     1 GTP        -0.1604
     29 C2         -2.7239    0.8013   -3.5822 C.ar      1 GTP         0.4468
     30 N2         -2.2399    1.3534   -4.7394 N.pl3     1 GTP        -0.5618
     31 N3         -2.0053   -0.0071   -2.8402 N.2       1 GTP        -0.4283
     32 C4         -2.6290   -0.4727   -1.7210 C.ar      1 GTP         0.2226
     33 H5'        -1.8598   -3.6968    2.1850 H         1 GTP        -0.0393
     34 H5''       -0.3933   -3.5903    3.1931 H         1 GTP        -0.0393
     35 H4'         0.8874   -3.6466    0.8805 H         1 GTP        -0.0393
     36 H3'        -0.7376   -1.2333    1.9867 H         1 GTP        -0.0393
     37 HO3'        1.1626   -1.9325    3.0084 H         1 GTP         0.2010
     38 H2'        -0.0384   -0.0310    0.0096 H         1 GTP        -0.0393
     39 HO2'        1.4998   -0.8412   -1.4369 H         1 GTP         0.2010
     40 H1'        -0.4769   -2.1002   -1.8093 H         1 GTP        -0.0393
     41 H8         -2.9610   -2.1316    1.0079 H         1 GTP         0.0000
     42 HN1        -4.5320    1.7923   -3.8726 H         1 GTP         0.0865
     43 HN21       -1.3128    1.1277   -5.0171 H         1 GTP         0.2048
     44 HN22       -2.8342    1.9586   -5.2572 H         1 GTP         0.2048
     45 H45        -5.0195   -0.8034    0.3729 H         1 GTP         0.2048
@<TRIPOS>BOND
     1    1    2 2
     2    1    3 1
     3    1    4 1
     4    1    5 1
     5    5    6 1
     6    6    7 2
     7    6    8 1
     8    6    9 1
     9    9   10 1
    10   10   11 2
    11   10   12 1
    12   10   13 1
    13   13   14 1
    14   14   15 1
    15   14   33 1
    16   14   34 1
    17   15   16 1
    18   15   17 1
    19   15   35 1
    20   16   21 1
    21   17   18 1
    22   17   19 1
    23   17   36 1
    24   18   37 1
    25   19   20 1
    26   19   21 1
    27   19   38 1
    28   20   39 1
    29   21   22 1
    30   21   40 1
    31   22   23 ar
    32   22   32 ar
    33   23   24 ar
    34   23   41 1
    35   24   25 ar
    36   24   45 1
    37   25   26 ar
    38   25   32 ar
    39   26   27 2
    40   26   28 ar
    41   28   29 ar
    42   28   42 1
    43   29   30 1
    44   29   31 ar
    45   30   43 1
    46   30   44 1
    47   31   32 ar
@<TRIPOS>SUBSTRUCTURE
     1 GTP         1 GROUP 0 A     ****
@<TRIPOS>MOLECULE
[[[5-(2-amino-6-oxo-7,8-dihydro-1~{H}-purin-8-ylium-9-yl)-3,4-dihydroxy-tetrahydrofuran-2-yl]methoxy-oxido-phosphoryl]oxy-oxido-phosphoryl] phosphate
   45    47     1     0     0
SMALL
USER_CHARGES

@<TRIPOS>ATOM
      1 PG          6.2382    3.9723    0.8657 P.3       1 GTP        -1.1921
      2 O1G         7.4500    4.4619    0.0797 O.co2     1 GTP         0.3195
      3 O2G         5.4920    5.0686    1.6186 O.co2     1 GTP         0.3195
      4 O3G         6.4911    2.7109    1.6848 O.co2     1 GTP         0.3195
      5 O3B         5.1742    3.4813   -0.2947 O.3       1 GTP         0.4672
      6 PB          5.3326    2.3350   -1.4481 P.3       1 GTP        -1.1062
      7 O1B         6.4074    2.7678   -2.4203 O.co2     1 GTP         0.3195
      8 O2B         5.3612    0.9729   -0.7916 O.co2     1 GTP         0.3195
      9 O3A         3.8689    2.4750   -2.1576 O.3       1 GTP         0.4672
     10 PA          3.2351    1.6560   -3.4214 P.3       1 GTP        -1.1062
     11 O1A         1.7871    2.0671   -3.5765 O.co2     1 GTP         0.3195
     12 O2A         4.1965    1.7253   -4.5880 O.co2     1 GTP         0.3195
     13 O5'         3.2903    0.1346   -2.8241 O.3       1 GTP         0.1618
     14 C5'         2.2816   -0.2918   -1.9206 C.3       1 GTP         0.1504
     15 C4'         2.7248    0.0226   -0.4980 C.3       1 GTP         0.1111
     16 O4'         2.4697    1.4219   -0.2462 O.3       1 GTP        -0.1436
     17 C3'         1.9404   -0.7419    0.5596 C.3       1 GTP         0.1111
     18 O3'         2.7418   -0.8086    1.7389 O.3       1 GTP        -0.2728
     19 C2'         0.7477    0.1630    0.7858 C.3       1 GTP         0.1111
     20 O2'         0.1373   -0.0577    2.0407 O.3       1 GTP        -0.2728
     21 C1'         1.3733    1.5427    0.6747 C.3       1 GTP         0.2693
     22 N9          0.4520    2.5240    0.1767 N.pl3     1 GTP        -0.3222
     23 C8         -0.8613    2.5511    0.3730 C.ar      1 GTP         0.1640
     24 N7         -1.4346    3.5939   -0.2188 N.pl3     1 GTP        -0.3688
     25 C5         -0.4099    4.2657   -0.8276 C.ar      1 GTP         0.0648
     26 C6         -0.4554    5.4854   -1.6209 C.ar      1 GTP         0.3597
     27 O6         -1.4907    6.0944   -1.8508 O.2       1 GTP        -0.2755
     28 N1          0.8205    5.8357   -2.0593 N.pl3     1 GTP        -0.1604
     29 C2          1.9890    5.1091   -1.7730 C.ar      1 GTP         0.4468
     30 N2          3.1452    5.6230   -2.2997 N.pl3     1 GTP        -0.5618
     31 N3          1.9765    4.0139   -1.0514 N.2       1 GTP        -0.4283
     32 C4          0.7480    3.6324   -0.6003 C.ar      1 GTP         0.2226
     33 H5'         1.3514    0.2330   -2.1577 H         1 GTP        -0.0393
     34 H5''        2.1280   -1.3678   -2.0460 H         1 GTP        -0.0393
     35 H4'         3.8044   -0.1397   -0.4040 H         1 GTP        -0.0393
     36 H3'         1.6764   -1.7639    0.2728 H         1 GTP        -0.0393
     37 HO3'        2.2232   -1.2979    2.3953 H         1 GTP         0.2010
     38 H2'        -0.0011    0.0027    0.0003 H         1 GTP        -0.0393
     39 HO2'       -0.1563   -0.9855    2.0596 H         1 GTP         0.2010
     40 H1'         1.7826    1.9024    1.6451 H         1 GTP        -0.0393
     41 H8         -1.4050    1.8187    0.9438 H         1 GTP         0.0000
     42 HN1         0.9121    6.6744   -2.6251 H         1 GTP         0.0865
     43 HN21        3.9971    5.1427   -2.1235 H         1 GTP         0.2048
     44 HN22        3.0881    6.4564   -2.8380 H         1 GTP         0.2048
     45 H45        -2.4173    3.8294   -0.2127 H         1 GTP         0.2048
@<TRIPOS>BOND
     1    1    2 2
     2    1    3 1
     3    1    4 1
     4    1    5 1
     5    5    6 1
     6    6    7 2
     7    6    8 1
     8    6    9 1
     9    9   10 1
    10   10   11 2
    11   10   12 1
    12   10   13 1
    13   13   14 1
    14   14   15 1
    15   14   33 1
    16   14   34 1
    17   15   16 1
    18   15   17 1
    19   15   35 1
    20   16   21 1
    21   17   18 1
    22   17   19 1
    23   17   36 1
    24   18   37 1
    25   19   20 1
    26   19   21 1
    27   19   38 1
    28   20   39 1
    29   21   22 1
    30   21   40 1
    31   22   23 ar
    32   22   32 ar
    33   23   24 ar
    34   23   41 1
    35   24   25 ar
    36   24   45 1
    37   25   26 ar
    38   25   32 ar
    39   26   27 2
    40   26   28 ar
    41   28   29 ar
    42   28   42 1
    43   29   30 1
    44   29   31 ar
    45   30   43 1
    46   30   44 1
    47   31   32 ar
@<TRIPOS>SUBSTRUCTURE
     1 GTP         1 GROUP 0 A     ****
@<TRIPOS>MOLECULE
[[[5-(2-amino-6-oxo-7,8-dihydro-1~{H}-purin-8-ylium-9-yl)-3,4-dihydroxy-tetrahydrofuran-2-yl]methoxy-oxido-phosphoryl]oxy-oxido-phosphoryl] phosphate
   45    47     1     0     0
SMALL
USER_CHARGES

@<TRIPOS>ATOM
      1 PG         -2.1601    1.3584   -4.0813 P.3       1 GTP        -1.1921
      2 O1G        -1.6120    0.4602   -2.9774 O.co2     1 GTP         0.3195
      3 O2G        -2.6788    2.7075   -3.5950 O.co2     1 GTP         0.3195
      4 O3G        -3.0860    0.6490   -5.0638 O.co2     1 GTP         0.3195
      5 O3B        -0.8370    1.7367   -4.9902 O.3       1 GTP         0.4672
      6 PB          0.1904    0.7630   -5.8060 P.3       1 GTP        -1.1062
      7 O1B        -0.5224   -0.5295   -6.1360 O.co2     1 GTP         0.3195
      8 O2B         0.8977    1.5710   -6.8709 O.co2     1 GTP         0.3195
      9 O3A         1.2866    0.4939   -4.6264 O.3       1 GTP         0.4672
     10 PA          2.2228    1.5519   -3.8055 P.3       1 GTP        -1.1062
     11 O1A         3.2098    2.1650   -4.7747 O.co2     1 GTP         0.3195
     12 O2A         1.3410    2.4199   -2.9341 O.co2     1 GTP         0.3195
     13 O5'         3.0213    0.5153   -2.8245 O.3       1 GTP         0.1618
     14 C5'         2.2816   -0.2918   -1.9206 C.3       1 GTP         0.1504
     15 C4'         2.7248    0.0226   -0.4980 C.3       1 GTP         0.1111
     16 O4'         2.4697    1.4219   -0.2462 O.3       1 GTP        -0.1436
     17 C3'         1.9404   -0.7419    0.5596 C.3       1 GTP         0.1111
     18 O3'         2.7418   -0.8086    1.7389 O.3       1 GTP        -0.2728
     19 C2'         0.7477    0.1630    0.7858 C.3       1 GTP         0.1111
     20 O2'         0.1373   -0.0577    2.0407 O.3       1 GTP        -0.2728
     21 C1'         1.3733    1.5427    0.6747 C.3       1 GTP         0.2693
     22 N9          0.4520    2.5240    0.1767 N.pl3     1 GTP        -0.3222
     23 C8         -0.2009    2.4849   -0.9792 C.ar      1 GTP         0.1640
     24 N7         -0.9840    3.5454   -1.1481 N.pl3     1 GTP        -0.3688
     25 C5         -0.8090    4.3005   -0.0206 C.ar      1 GTP         0.0648
     26 C6         -1.4206    5.5724    0.3362 C.ar      1 GTP         0.3597
     27 O6         -2.2199    6.1544   -0.3836 O.2       1 GTP        -0.2755
     28 N1         -0.9680    6.0043    1.5817 N.pl3     1 GTP        -0.1604
     29 C2         -0.0474    5.3055    2.3814 C.ar      1 GTP         0.4468
     30 N2          0.2680    5.9024    3.5740 N.pl3     1 GTP        -0.5618
     31 N3          0.4755    4.1601    2.0138 N.2       1 GTP        -0.4283
     32 C4          0.0611    3.6981    0.8001 C.ar      1 GTP         0.2226
     33 H5'         1.2163   -0.0770   -2.0471 H         1 GTP        -0.0393
     34 H5''        2.4655   -1.3443   -2.1563 H         1 GTP        -0.0393
     35 H4'         3.8044   -0.1397   -0.4040 H         1 GTP        -0.0393
     36 H3'         1.6764   -1.7639    0.2728 H         1 GTP        -0.0393
     37 HO3'        2.9083    0.1071    2.0092 H         1 GTP         0.2010
     38 H2'        -0.0011    0.0027    0.0003 H         1 GTP        -0.0393
     39 HO2'       -0.1563   -0.9855    2.0596 H         1 GTP         0.2010
     40 H1'         1.7826    1.9024    1.6451 H         1 GTP        -0.0393
     41 H8         -0.1126    1.6906   -1.6997 H         1 GTP         0.0000
     42 HN1        -1.3285    6.8855    1.9361 H         1 GTP         0.0865
     43 HN21        0.9153    5.4446    4.1732 H         1 GTP         0.2048
     44 HN22       -0.1624    6.7706    3.7948 H         1 GTP         0.2048
     45 H45        -1.5768    3.7405   -1.9429 H         1 GTP         0.2048
@<TRIPOS>BOND
     1    1    2 2
     2    1    3 1
     3    1    4 1
     4    1    5 1
     5    5    6 1
     6    6    7 2
     7    6    8 1
     8    6    9 1
     9    9   10 1
    10   10   11 2
    11   10   12 1
    12   10   13 1
    13   13   14 1
    14   14   15 1
    15   14   33 1
    16   14   34 1
    17   15   16 1
    18   15   17 1
    19   15   35 1
    20   16   21 1
    21   17   18 1
    22   17   19 1
    23   17   36 1
    24   18   37 1
    25   19   20 1
    26   19   21 1
    27   19   38 1
    28   20   39 1
    29   21   22 1
    30   21   40 1
    31   22   23 ar
    32   22   32 ar
    33   23   24 ar
    34   23   41 1
    35   24   25 ar
    36   24   45 1
    37   25   26 ar
    38   25   32 ar
    39   26   27 2
    40   26   28 ar
    41   28   29 ar
    42   28   42 1
    43   29   30 1
    44   29   31 ar
    45   30   43 1
    46   30   44 1
    47   31   32 ar
@<TRIPOS>SUBSTRUCTURE
     1 GTP         1 GROUP 0 A     ****
@<TRIPOS>MOLECULE
[[[5-(2-amino-6-oxo-7,8-dihydro-1~{H}-purin-8-ylium-9-yl)-3,4-dihydroxy-tetrahydrofuran-2-yl]methoxy-oxido-phosphoryl]oxy-oxido-phosphoryl] phosphate
   45    47     1     0     0
SMALL
USER_CHARGES

@<TRIPOS>ATOM
      1 PG          7.4395   -1.6020    1.7236 P.3       1 GTP        -1.1921
      2 O1G         8.1928   -2.9049    1.4767 O.co2     1 GTP         0.3195
      3 O2G         8.3368   -0.3878    1.9385 O.co2     1 GTP         0.3195
      4 O3G         6.2956   -1.7203    2.7252 O.co2     1 GTP         0.3195
      5 O3B         6.6795   -1.2961    0.2923 O.3       1 GTP         0.4672
      6 PB          5.5821   -2.1878   -0.5261 P.3       1 GTP        -1.1062
      7 O1B         6.2429   -3.4663   -0.9910 O.co2     1 GTP         0.3195
      8 O2B         4.2823   -2.2044    0.2468 O.co2     1 GTP         0.3195
      9 O3A         5.3461   -1.2010   -1.8052 O.3       1 GTP         0.4672
     10 PA          4.3707   -1.3841   -3.1032 P.3       1 GTP        -1.1062
     11 O1A         4.4132   -0.1072   -3.9140 O.co2     1 GTP         0.3195
     12 O2A         4.6473   -2.7266   -3.7444 O.co2     1 GTP         0.3195
     13 O5'         2.9216   -1.4836   -2.3516 O.3       1 GTP         0.1618
     14 C5'         2.2816   -0.2918   -1.9206 C.3       1 GTP         0.1504
     15 C4'         2.7248    0.0226   -0.4980 C.3       1 GTP         0.1111
     16 O4'         2.4697    1.4219   -0.2462 O.3       1 GTP        -0.1436
     17 C3'         1.9404   -0.7419    0.5596 C.3       1 GTP         0.1111
     18 O3'         2.7418   -0.8086    1.7389 O.3       1 GTP        -0.2728
     19 C2'         0.7477    0.1630    0.7858 C.3       1 GTP         0.1111
     20 O2'         0.1373   -0.0577    2.0407 O.3       1 GTP        -0.2728
     21 C1'         1.3733    1.5427    0.6747 C.3       1 GTP         0.2693
     22 N9          0.4520    2.5240    0.1767 N.pl3     1 GTP        -0.3222
     23 C8         -0.2009    2.4849   -0.9792 C.ar      1 GTP         0.1640
     24 N7         -0.9840    3.5454   -1.1481 N.pl3     1 GTP        -0.3688
     25 C5         -0.8090    4.3005   -0.0206 C.ar      1 GTP         0.0648
     26 C6         -1.4206    5.5724    0.3362 C.ar      1 GTP         0.3597
     27 O6         -2.2199    6.1544   -0.3836 O.2       1 GTP        -0.2755
     28 N1         -0.9680    6.0043    1.5817 N.pl3     1 GTP        -0.1604
     29 C2         -0.0474    5.3055    2.3814 C.ar      1 GTP         0.4468
     30 N2          0.2680    5.9024    3.5740 N.pl3     1 GTP        -0.5618
     31 N3          0.4755    4.1601    2.0138 N.2       1 GTP        -0.4283
     32 C4          0.0611    3.6981    0.8001 C.ar      1 GTP         0.2226
     33 H5'         2.5589    0.5217   -2.5976 H         1 GTP        -0.0393
     34 H5''        1.1982   -0.4388   -1.9617 H         1 GTP        -0.0393
     35 H4'         3.8044   -0.1397   -0.4040 H         1 GTP        -0.0393
     36 H3'         1.6764   -1.7639    0.2728 H         1 GTP        -0.0393
     37 HO3'        3.5554   -1.2733    1.4914 H         1 GTP         0.2010
     38 H2'        -0.0011    0.0027    0.0003 H         1 GTP        -0.0393
     39 HO2'       -0.6141    0.5574    2.1082 H         1 GTP         0.2010
     40 H1'         1.7826    1.9024    1.6451 H         1 GTP        -0.0393
     41 H8         -0.1126    1.6906   -1.6997 H         1 GTP         0.0000
     42 HN1        -1.3285    6.8855    1.9361 H         1 GTP         0.0865
     43 HN21        0.9153    5.4446    4.1732 H         1 GTP         0.2048
     44 HN22       -0.1624    6.7706    3.7948 H         1 GTP         0.2048
     45 H45        -1.5768    3.7405   -1.9429 H         1 GTP         0.2048
@<TRIPOS>BOND
     1    1    2 2
     2    1    3 1
     3    1    4 1
     4    1    5 1
     5    5    6 1
     6    6    7 2
     7    6    8 1
     8    6    9 1
     9    9   10 1
    10   10   11 2
    11   10   12 1
    12   10   13 1
    13   13   14 1
    14   14   15 1
    15   14   33 1
    16   14   34 1
    17   15   16 1
    18   15   17 1
    19   15   35 1
    20   16   21 1
    21   17   18 1
    22   17   19 1
    23   17   36 1
    24   18   37 1
    25   19   20 1
    26   19   21 1
    27   19   38 1
    28   20   39 1
    29   21   22 1
    30   21   40 1
    31   22   23 ar
    32   22   32 ar
    33   23   24 ar
    34   23   41 1
    35   24   25 ar
    36   24   45 1
    37   25   26 ar
    38   25   32 ar
    39   26   27 2
    40   26   28 ar
    41   28   29 ar
    42   28   42 1
    43   29   30 1
    44   29   31 ar
    45   30   43 1
    46   30   44 1
    47   31   32 ar
@<TRIPOS>SUBSTRUCTURE
     1 GTP         1 GROUP 0 A     ****
@<TRIPOS>MOLECULE
[[[5-(2-amino-6-oxo-7,8-dihydro-1~{H}-purin-8-ylium-9-yl)-3,4-dihydroxy-tetrahydrofuran-2-yl]methoxy-oxido-phosphoryl]oxy-oxido-phosphoryl] phosphate
   45    47     1     0     0
SMALL
USER_CHARGES

@<TRIPOS>ATOM
      1 PG         -0.7745    2.7430   -5.9194 P.3       1 GTP        -1.1921
      2 O1G        -0.1696    3.0171   -7.2923 O.co2     1 GTP         0.3195
      3 O2G        -2.2953    2.6308   -5.9130 O.co2     1 GTP         0.3195
      4 O3G        -0.2060    3.6094   -4.8004 O.co2     1 GTP         0.3195
      5 O3B        -0.2544    1.2237   -5.5436 O.3       1 GTP         0.4672
      6 PB          1.2640    0.6430   -5.3820 P.3       1 GTP        -1.1062
      7 O1B         1.1894   -0.7853   -4.8902 O.co2     1 GTP         0.3195
      8 O2B         2.0702    1.0177   -6.6055 O.co2     1 GTP         0.3195
      9 O3A         1.7849    1.6083   -4.1726 O.3       1 GTP         0.4672
     10 PA          3.2351    1.6560   -3.4214 P.3       1 GTP        -1.1062
     11 O1A         4.3114    1.8064   -4.4743 O.co2     1 GTP         0.3195
     12 O2A         3.1526    2.6065   -2.2467 O.co2     1 GTP         0.3195
     13 O5'         3.2903    0.1346   -2.8241 O.3       1 GTP         0.1618
     14 C5'         2.2816   -0.2918   -1.9206 C.3       1 GTP         0.1504
     15 C4'         2.7248    0.0226   -0.4980 C.3       1 GTP         0.1111
     16 O4'         2.4697    1.4219   -0.2462 O.3       1 GTP        -0.1436
     17 C3'         1.9404   -0.7419    0.5596 C.3       1 GTP         0.1111
     18 O3'         2.7418   -0.8086    1.7389 O.3       1 GTP        -0.2728
     19 C2'         0.7477    0.1630    0.7858 C.3       1 GTP         0.1111
     20 O2'         0.1373   -0.0577    2.0407 O.3       1 GTP        -0.2728
     21 C1'         1.3733    1.5427    0.6747 C.3       1 GTP         0.2693
     22 N9          0.4520    2.5240    0.1767 N.pl3     1 GTP        -0.3222
     23 C8          0.5671    3.2221   -0.9473 C.ar      1 GTP         0.1640
     24 N7         -0.4560    4.0508   -1.1290 N.pl3     1 GTP        -0.3688
     25 C5         -1.2671    3.8585   -0.0441 C.ar      1 GTP         0.0648
     26 C6         -2.5318    4.5014    0.2817 C.ar      1 GTP         0.3597
     27 O6         -3.0527    5.3493   -0.4293 O.2       1 GTP        -0.2755
     28 N1         -3.0357    4.0149    1.4868 N.pl3     1 GTP        -0.1604
     29 C2         -2.4069    3.0373    2.2768 C.ar      1 GTP         0.4468
     30 N2         -3.0679    2.6964    3.4278 N.pl3     1 GTP        -0.5618
     31 N3         -1.2653    2.4872    1.9379 N.2       1 GTP        -0.4283
     32 C4         -0.7342    2.9334    0.7643 C.ar      1 GTP         0.2226
     33 H5'         1.3514    0.2330   -2.1577 H         1 GTP        -0.0393
     34 H5''        2.1280   -1.3678   -2.0460 H         1 GTP        -0.0393
     35 H4'         3.8044   -0.1397   -0.4040 H         1 GTP        -0.0393
     36 H3'         1.6764   -1.7639    0.2728 H         1 GTP        -0.0393
     37 HO3'        2.2232   -1.2979    2.3953 H         1 GTP         0.2010
     38 H2'        -0.0011    0.0027    0.0003 H         1 GTP        -0.0393
     39 HO2'       -0.1563   -0.9855    2.0596 H         1 GTP         0.2010
     40 H1'         1.7826    1.9024    1.6451 H         1 GTP        -0.0393
     41 H8          1.3888    3.1325   -1.6361 H         1 GTP         0.0000
     42 HN1        -3.9188    4.3932    1.8170 H         1 GTP         0.0865
     43 HN21       -2.6609    2.0087    4.0186 H         1 GTP         0.2048
     44 HN22       -3.9293    3.1496    3.6283 H         1 GTP         0.2048
     45 H45        -0.5938    4.6820   -1.9060 H         1 GTP         0.2048
@<TRIPOS>BOND
     1    1    2 2
     2    1    3 1
     3    1    4 1
     4    1    5 1
     5    5    6 1
     6    6    7 2
     7    6    8 1
     8    6    9 1
     9    9   10 1
    10   10   11 2
    11   10   12 1
    12   10   13 1
    13   13   14 1
    14   14   15 1
    15   14   33 1
    16   14   34 1
    17   15   16 1
    18   15   17 1
    19   15   35 1
    20   16   21 1
    21   17   18 1
    22   17   19 1
    23   17   36 1
    24   18   37 1
    25   19   20 1
    26   19   21 1
    27   19   38 1
    28   20   39 1
    29   21   22 1
    30   21   40 1
    31   22   23 ar
    32   22   32 ar
    33   23   24 ar
    34   23   41 1
    35   24   25 ar
    36   24   45 1
    37   25   26 ar
    38   25   32 ar
    39   26   27 2
    40   26   28 ar
    41   28   29 ar
    42   28   42 1
    43   29   30 1
    44   29   31 ar
    45   30   43 1
    46   30   44 1
    47   31   32 ar
@<TRIPOS>SUBSTRUCTURE
     1 GTP         1 GROUP 0 A     ****
@<TRIPOS>MOLECULE
[[[5-(2-amino-6-oxo-7,8-dihydro-1~{H}-purin-8-ylium-9-yl)-3,4-dihydroxy-tetrahydrofuran-2-yl]methoxy-oxido-phosphoryl]oxy-oxido-phosphoryl] phosphate
   45    47     1     0     0
SMALL
USER_CHARGES

@<TRIPOS>ATOM
      1 PG         -1.4524    1.6537   -4.2382 P.3       1 GTP        -1.1921
      2 O1G        -1.5159    2.0766   -2.7743 O.co2     1 GTP         0.3195
      3 O2G        -2.6129    2.1579   -5.0895 O.co2     1 GTP         0.3195
      4 O3G        -1.1134    0.1820   -4.4506 O.co2     1 GTP         0.3195
      5 O3B        -0.1369    2.4506   -4.8334 O.3       1 GTP         0.4672
      6 PB          1.4302    2.3782   -4.3775 P.3       1 GTP        -1.1062
      7 O1B         2.2558    3.2031   -5.3396 O.co2     1 GTP         0.3195
      8 O2B         1.5205    2.5815   -2.8816 O.co2     1 GTP         0.3195
      9 O3A         1.7067    0.7916   -4.6454 O.3       1 GTP         0.4672
     10 PA          3.0683   -0.0853   -4.4294 P.3       1 GTP        -1.1062
     11 O1A         2.7416   -1.5410   -4.6820 O.co2     1 GTP         0.3195
     12 O2A         4.2137    0.5946   -5.1476 O.co2     1 GTP         0.3195
     13 O5'         3.2903    0.1346   -2.8241 O.3       1 GTP         0.1618
     14 C5'         2.2816   -0.2918   -1.9206 C.3       1 GTP         0.1504
     15 C4'         2.7248    0.0226   -0.4980 C.3       1 GTP         0.1111
     16 O4'         2.4697    1.4219   -0.2462 O.3       1 GTP        -0.1436
     17 C3'         1.9404   -0.7419    0.5596 C.3       1 GTP         0.1111
     18 O3'         2.7418   -0.8086    1.7389 O.3       1 GTP        -0.2728
     19 C2'         0.7477    0.1630    0.7858 C.3       1 GTP         0.1111
     20 O2'         0.1373   -0.0577    2.0407 O.3       1 GTP        -0.2728
     21 C1'         1.3733    1.5427    0.6747 C.3       1 GTP         0.2693
     22 N9          0.4520    2.5240    0.1767 N.pl3     1 GTP        -0.3222
     23 C8         -0.8613    2.5511    0.3730 C.ar      1 GTP         0.1640
     24 N7         -1.4346    3.5939   -0.2188 N.pl3     1 GTP        -0.3688
     25 C5         -0.4099    4.2657   -0.8276 C.ar      1 GTP         0.0648
     26 C6         -0.4554    5.4854   -1.6209 C.ar      1 GTP         0.3597
     27 O6         -1.4907    6.0944   -1.8508 O.2       1 GTP        -0.2755
     28 N1          0.8205    5.8357   -2.0593 N.pl3     1 GTP        -0.1604
     29 C2          1.9890    5.1091   -1.7730 C.ar      1 GTP         0.4468
     30 N2          3.1452    5.6230   -2.2997 N.pl3     1 GTP        -0.5618
     31 N3          1.9765    4.0139   -1.0514 N.2       1 GTP        -0.4283
     32 C4          0.7480    3.6324   -0.6003 C.ar      1 GTP         0.2226
     33 H5'         1.3514    0.2330   -2.1577 H         1 GTP        -0.0393
     34 H5''        2.1280   -1.3678   -2.0460 H         1 GTP        -0.0393
     35 H4'         3.8044   -0.1397   -0.4040 H         1 GTP        -0.0393
     36 H3'         1.6764   -1.7639    0.2728 H         1 GTP        -0.0393
     37 HO3'        2.2232   -1.2979    2.3953 H         1 GTP         0.2010
     38 H2'        -0.0011    0.0027    0.0003 H         1 GTP        -0.0393
     39 HO2'       -0.1563   -0.9855    2.0596 H         1 GTP         0.2010
     40 H1'         1.7826    1.9024    1.6451 H         1 GTP        -0.0393
     41 H8         -1.4050    1.8187    0.9438 H         1 GTP         0.0000
     42 HN1         0.9121    6.6744   -2.6251 H         1 GTP         0.0865
     43 HN21        3.9971    5.1427   -2.1235 H         1 GTP         0.2048
     44 HN22        3.0881    6.4564   -2.8380 H         1 GTP         0.2048
     45 H45        -2.4173    3.8294   -0.2127 H         1 GTP         0.2048
@<TRIPOS>BOND
     1    1    2 2
     2    1    3 1
     3    1    4 1
     4    1    5 1
     5    5    6 1
     6    6    7 2
     7    6    8 1
     8    6    9 1
     9    9   10 1
    10   10   11 2
    11   10   12 1
    12   10   13 1
    13   13   14 1
    14   14   15 1
    15   14   33 1
    16   14   34 1
    17   15   16 1
    18   15   17 1
    19   15   35 1
    20   16   21 1
    21   17   18 1
    22   17   19 1
    23   17   36 1
    24   18   37 1
    25   19   20 1
    26   19   21 1
    27   19   38 1
    28   20   39 1
    29   21   22 1
    30   21   40 1
    31   22   23 ar
    32   22   32 ar
    33   23   24 ar
    34   23   41 1
    35   24   25 ar
    36   24   45 1
    37   25   26 ar
    38   25   32 ar
    39   26   27 2
    40   26   28 ar
    41   28   29 ar
    42   28   42 1
    43   29   30 1
    44   29   31 ar
    45   30   43 1
    46   30   44 1
    47   31   32 ar
@<TRIPOS>SUBSTRUCTURE
     1 GTP         1 GROUP 0 A     ****
@<TRIPOS>MOLECULE
[[[5-(2-amino-6-oxo-7,8-dihydro-1~{H}-purin-8-ylium-9-yl)-3,4-dihydroxy-tetrahydrofuran-2-yl]methoxy-oxido-phosphoryl]oxy-oxido-phosphoryl] phosphate
   45    47     1     0     0
SMALL
USER_CHARGES

@<TRIPOS>ATOM
      1 PG          2.0840    4.0663   -7.4687 P.3       1 GTP        -1.1921
      2 O1G         1.9613    5.4436   -6.8253 O.co2     1 GTP         0.3195
      3 O2G         3.4088    3.8216   -8.1832 O.co2     1 GTP         0.3195
      4 O3G         0.8554    3.6344   -8.2625 O.co2     1 GTP         0.3195
      5 O3B         2.1139    3.0237   -6.1912 O.3       1 GTP         0.4672
      6 PB          1.0058    2.7672   -5.0184 P.3       1 GTP        -1.1062
      7 O1B         0.8922    4.0170   -4.1742 O.co2     1 GTP         0.3195
      8 O2B        -0.2130    2.1081   -5.6245 O.co2     1 GTP         0.3195
      9 O3A         1.7849    1.6083   -4.1726 O.3       1 GTP         0.4672
     10 PA          3.2351    1.6560   -3.4214 P.3       1 GTP        -1.1062
     11 O1A         4.3114    1.8064   -4.4743 O.co2     1 GTP         0.3195
     12 O2A         3.1526    2.6065   -2.2467 O.co2     1 GTP         0.3195
     13 O5'         3.2903    0.1346   -2.8241 O.3       1 GTP         0.1618
     14 C5'         2.2816   -0.2918   -1.9206 C.3       1 GTP         0.1504
     15 C4'         2.7248    0.0226   -0.4980 C.3       1 GTP         0.1111
     16 O4'         2.4697    1.4219   -0.2462 O.3       1 GTP        -0.1436
     17 C3'         1.9404   -0.7419    0.5596 C.3       1 GTP         0.1111
     18 O3'         2.7418   -0.8086    1.7389 O.3       1 GTP        -0.2728
     19 C2'         0.7477    0.1630    0.7858 C.3       1 GTP         0.1111
     20 O2'         0.1373   -0.0577    2.0407 O.3       1 GTP        -0.2728
     21 C1'         1.3733    1.5427    0.6747 C.3       1 GTP         0.2693
     22 N9          0.4520    2.5240    0.1767 N.pl3     1 GTP        -0.3222
     23 C8          0.5671    3.2221   -0.9473 C.ar      1 GTP         0.1640
     24 N7         -0.4560    4.0508   -1.1290 N.pl3     1 GTP        -0.3688
     25 C5         -1.2671    3.8585   -0.0441 C.ar      1 GTP         0.0648
     26 C6         -2.5318    4.5014    0.2817 C.ar      1 GTP         0.3597
     27 O6         -3.0527    5.3493   -0.4293 O.2       1 GTP        -0.2755
     28 N1         -3.0357    4.0149    1.4868 N.pl3     1 GTP        -0.1604
     29 C2         -2.4069    3.0373    2.2768 C.ar      1 GTP         0.4468
     30 N2         -3.0679    2.6964    3.4278 N.pl3     1 GTP        -0.5618
     31 N3         -1.2653    2.4872    1.9379 N.2       1 GTP        -0.4283
     32 C4         -0.7342    2.9334    0.7643 C.ar      1 GTP         0.2226
     33 H5'         1.3514    0.2330   -2.1577 H         1 GTP        -0.0393
     34 H5''        2.1280   -1.3678   -2.0460 H         1 GTP        -0.0393
     35 H4'         3.8044   -0.1397   -0.4040 H         1 GTP        -0.0393
     36 H3'         1.6764   -1.7639    0.2728 H         1 GTP        -0.0393
     37 HO3'        3.5554   -1.2733    1.4914 H         1 GTP         0.2010
     38 H2'        -0.0011    0.0027    0.0003 H         1 GTP        -0.0393
     39 HO2'        0.8082    0.1199    2.7232 H         1 GTP         0.2010
     40 H1'         1.7826    1.9024    1.6451 H         1 GTP        -0.0393
     41 H8          1.3888    3.1325   -1.6361 H         1 GTP         0.0000
     42 HN1        -3.9188    4.3932    1.8170 H         1 GTP         0.0865
     43 HN21       -2.6609    2.0087    4.0186 H         1 GTP         0.2048
     44 HN22       -3.9293    3.1496    3.6283 H         1 GTP         0.2048
     45 H45        -0.5938    4.6820   -1.9060 H         1 GTP         0.2048
@<TRIPOS>BOND
     1    1    2 2
     2    1    3 1
     3    1    4 1
     4    1    5 1
     5    5    6 1
     6    6    7 2
     7    6    8 1
     8    6    9 1
     9    9   10 1
    10   10   11 2
    11   10   12 1
    12   10   13 1
    13   13   14 1
    14   14   15 1
    15   14   33 1
    16   14   34 1
    17   15   16 1
    18   15   17 1
    19   15   35 1
    20   16   21 1
    21   17   18 1
    22   17   19 1
    23   17   36 1
    24   18   37 1
    25   19   20 1
    26   19   21 1
    27   19   38 1
    28   20   39 1
    29   21   22 1
    30   21   40 1
    31   22   23 ar
    32   22   32 ar
    33   23   24 ar
    34   23   41 1
    35   24   25 ar
    36   24   45 1
    37   25   26 ar
    38   25   32 ar
    39   26   27 2
    40   26   28 ar
    41   28   29 ar
    42   28   42 1
    43   29   30 1
    44   29   31 ar
    45   30   43 1
    46   30   44 1
    47   31   32 ar
@<TRIPOS>SUBSTRUCTURE
     1 GTP         1 GROUP 0 A     ****
