@<TRIPOS>MOLECULE
[[5-(2-amino-6-oxo-1~{H}-purin-9-yl)-3,4-dihydroxy-tetrahydrofuran-2-yl]methoxy-hydroxy-phosphoryl] phosphono hydrogen phosphate
   48    50     1     0     0
SMALL
USER_CHARGES

@<TRIPOS>ATOM
      1 PG         -2.1106    2.2686   -3.3217 P.3       1 GTP         1.8160
      2 O1G        -1.7173    0.8297   -3.1606 O.2       1 GTP        -0.8277
      3 O2G        -2.7898    2.6446   -4.7391 O.3       1 GTP        -0.7983
      4 O3G        -3.1766    2.8149   -2.2364 O.3       1 GTP        -0.7983
      5 O3B        -0.8891    3.3192   -3.1956 O.3       1 GTP        -0.8272
      6 PB          0.1415    3.6335   -1.9917 P.3       1 GTP         1.9429
      7 O1B         0.9811    2.4647   -1.5674 O.2       1 GTP        -0.8481
      8 O2B         0.9666    4.9216   -2.5142 O.3       1 GTP        -0.8171
      9 O3A        -0.7927    4.2773   -0.8431 O.3       1 GTP        -0.8114
     10 PA         -0.4423    4.8273    0.6350 P.3       1 GTP         1.8017
     11 O1A         0.5440    5.9589    0.6521 O.2       1 GTP        -0.7846
     12 O2A        -1.8939    5.1976    1.2457 O.3       1 GTP        -0.8074
     13 O5'         0.0173    3.5130    1.4593 O.3       1 GTP        -0.5669
     14 C5'        -0.8811    2.4285    1.6206 C.3       1 GTP         0.1637
     15 C4'        -0.1994    1.3333    2.4288 C.3       1 GTP         0.1099
     16 O4'        -1.1285    0.2356    2.5840 O.3       1 GTP        -0.4100
     17 C3'         1.0324    0.7610    1.7344 C.3       1 GTP         0.0924
     18 O3'         1.9175    0.2377    2.7247 O.3       1 GTP        -0.5892
     19 C2'         0.4468   -0.3802    0.9263 C.3       1 GTP         0.0635
     20 O2'         1.3993   -1.3703    0.5961 O.3       1 GTP        -0.5749
     21 C1'        -0.6159   -0.9100    1.8769 C.3       1 GTP         0.2557
     22 N9         -1.7127   -1.6108    1.2130 N.pl3     1 GTP        -0.2236
     23 C8         -1.7695   -2.9586    0.9546 C.ar      1 GTP         0.4148
     24 N7         -2.8846   -3.3047    0.3416 N.2       1 GTP        -0.5808
     25 C5         -3.5626   -2.1296    0.2052 C.ar      1 GTP         0.1777
     26 C6         -4.8477   -1.8989   -0.3942 C.ar      1 GTP         0.6505
     27 O6         -5.5373   -2.7819   -0.8881 O.2       1 GTP        -0.5947
     28 N1         -5.1895   -0.5407   -0.3318 N.pl3     1 GTP        -0.5110
     29 C2         -4.3899    0.4774    0.2398 C.ar      1 GTP         0.6844
     30 N2         -4.9233    1.7390    0.1898 N.pl3     1 GTP        -0.8920
     31 N3         -3.2159    0.2369    0.7822 N.2       1 GTP        -0.6705
     32 C4         -2.8678   -1.0679    0.7322 C.ar      1 GTP         0.1220
     33 HOG2       -3.6213    2.1954   -5.0016 H         1 GTP         0.5087
     34 HOG3       -2.9397    2.7916   -1.2849 H         1 GTP         0.5087
     35 HOB2        1.5560    4.8241   -3.2922 H         1 GTP         0.5092
     36 HOA2       -1.9540    5.4950    2.1784 H         1 GTP         0.5041
     37 H5'        -1.7774    2.7844    2.1388 H         1 GTP         0.0584
     38 H5''       -1.1657    2.0536    0.6322 H         1 GTP         0.0584
     39 H4'         0.0402    1.7079    3.4343 H         1 GTP         0.1192
     40 H3'         1.5907    1.4859    1.1353 H         1 GTP         0.0735
     41 HO3'        2.6839   -0.1150    2.2479 H         1 GTP         0.4308
     42 H2'        -0.0017    0.0018    0.0005 H         1 GTP         0.0746
     43 HO2'        2.0953   -0.9375    0.0709 H         1 GTP         0.4224
     44 H1'        -0.1998   -1.6319    2.6178 H         1 GTP         0.1162
     45 H8         -0.9713   -3.6323    1.2352 H         1 GTP         0.0741
     46 HN1        -6.0831   -0.2651   -0.7290 H         1 GTP         0.3343
     47 HN21       -4.3984    2.4878    0.5788 H         1 GTP         0.4229
     48 HN22       -5.8145    1.8572   -0.2335 H         1 GTP         0.4229
@<TRIPOS>BOND
     1    1    2 2
     2    1    3 1
     3    1    4 1
     4    1    5 1
     5    3   33 1
     6    4   34 1
     7    5    6 1
     8    6    7 2
     9    6    8 1
    10    6    9 1
    11    8   35 1
    12    9   10 1
    13   10   11 2
    14   10   12 1
    15   10   13 1
    16   12   36 1
    17   13   14 1
    18   14   15 1
    19   14   37 1
    20   14   38 1
    21   15   16 1
    22   15   17 1
    23   15   39 1
    24   16   21 1
    25   17   18 1
    26   17   19 1
    27   17   40 1
    28   18   41 1
    29   19   20 1
    30   19   21 1
    31   19   42 1
    32   20   43 1
    33   21   22 1
    34   21   44 1
    35   22   23 ar
    36   22   32 ar
    37   23   24 ar
    38   23   45 1
    39   24   25 ar
    40   25   26 ar
    41   25   32 ar
    42   26   27 2
    43   26   28 ar
    44   28   29 ar
    45   28   46 1
    46   29   30 1
    47   29   31 ar
    48   30   47 1
    49   30   48 1
    50   31   32 ar
@<TRIPOS>SUBSTRUCTURE
     1 GTP         1 GROUP 0 A     ****
@<TRIPOS>MOLECULE
[[5-(2-amino-6-oxo-1~{H}-purin-9-yl)-3,4-dihydroxy-tetrahydrofuran-2-yl]methoxy-hydroxy-phosphoryl] phosphono hydrogen phosphate
   48    50     1     0     0
SMALL
USER_CHARGES

@<TRIPOS>ATOM
      1 PG         -2.1106    2.2686   -3.3217 P.3       1 GTP         1.8160
      2 O1G        -3.2044    2.4570   -2.3123 O.2       1 GTP        -0.8277
      3 O2G        -1.3779    0.8286   -3.2860 O.3       1 GTP        -0.7983
      4 O3G        -2.5664    2.4212   -4.8650 O.3       1 GTP        -0.7983
      5 O3B        -0.8891    3.3192   -3.1956 O.3       1 GTP        -0.8272
      6 PB          0.1415    3.6335   -1.9917 P.3       1 GTP         1.9429
      7 O1B         0.9811    2.4647   -1.5674 O.2       1 GTP        -0.8481
      8 O2B         0.9666    4.9216   -2.5142 O.3       1 GTP        -0.8171
      9 O3A        -0.7927    4.2773   -0.8431 O.3       1 GTP        -0.8114
     10 PA         -0.4423    4.8273    0.6350 P.3       1 GTP         1.8017
     11 O1A         0.5440    5.9589    0.6521 O.2       1 GTP        -0.7846
     12 O2A        -1.8939    5.1976    1.2457 O.3       1 GTP        -0.8074
     13 O5'         0.0173    3.5130    1.4593 O.3       1 GTP        -0.5669
     14 C5'        -0.8811    2.4285    1.6206 C.3       1 GTP         0.1637
     15 C4'        -0.1994    1.3333    2.4288 C.3       1 GTP         0.1099
     16 O4'        -1.1285    0.2356    2.5840 O.3       1 GTP        -0.4100
     17 C3'         1.0324    0.7610    1.7344 C.3       1 GTP         0.0924
     18 O3'         1.9175    0.2377    2.7247 O.3       1 GTP        -0.5892
     19 C2'         0.4468   -0.3802    0.9263 C.3       1 GTP         0.0635
     20 O2'         1.3993   -1.3703    0.5961 O.3       1 GTP        -0.5749
     21 C1'        -0.6159   -0.9100    1.8769 C.3       1 GTP         0.2557
     22 N9         -1.7127   -1.6108    1.2130 N.pl3     1 GTP        -0.2236
     23 C8         -2.8667   -1.0365    0.7385 C.ar      1 GTP         0.4148
     24 N7         -3.6757   -1.9196    0.1868 N.2       1 GTP        -0.5808
     25 C5         -3.0088   -3.1018    0.3164 C.ar      1 GTP         0.1777
     26 C6         -3.4148   -4.4130   -0.1079 C.ar      1 GTP         0.6505
     27 O6         -4.4752   -4.6480   -0.6732 O.2       1 GTP        -0.5947
     28 N1         -2.4377   -5.3653    0.2144 N.pl3     1 GTP        -0.5110
     29 C2         -1.2132   -5.0902    0.8680 C.ar      1 GTP         0.6844
     30 N2         -0.4066   -6.1772    1.0834 N.pl3     1 GTP        -0.8920
     31 N3         -0.8672   -3.8786    1.2457 N.2       1 GTP        -0.6705
     32 C4         -1.7966   -2.9451    0.9439 C.ar      1 GTP         0.1220
     33 HOG2       -0.9214    0.5480   -2.4645 H         1 GTP         0.5087
     34 HOG3       -3.2534    1.8172   -5.2191 H         1 GTP         0.5087
     35 HOB2        1.5560    4.8241   -3.2922 H         1 GTP         0.5092
     36 HOA2       -1.9540    5.4950    2.1784 H         1 GTP         0.5041
     37 H5'        -1.7774    2.7844    2.1388 H         1 GTP         0.0584
     38 H5''       -1.1657    2.0536    0.6322 H         1 GTP         0.0584
     39 H4'         0.0402    1.7079    3.4343 H         1 GTP         0.1192
     40 H3'         1.5907    1.4859    1.1353 H         1 GTP         0.0735
     41 HO3'        2.6839   -0.1150    2.2479 H         1 GTP         0.4308
     42 H2'        -0.0017    0.0018    0.0005 H         1 GTP         0.0746
     43 HO2'        2.0953   -0.9375    0.0709 H         1 GTP         0.4224
     44 H1'        -0.1998   -1.6319    2.6178 H         1 GTP         0.1162
     45 H8         -3.0589    0.0244    0.8247 H         1 GTP         0.0741
     46 HN1        -2.6238   -6.3307   -0.0420 H         1 GTP         0.3343
     47 HN21        0.4646   -6.0341    1.5394 H         1 GTP         0.4229
     48 HN22       -0.7235   -7.0673    0.7753 H         1 GTP         0.4229
@<TRIPOS>BOND
     1    1    2 2
     2    1    3 1
     3    1    4 1
     4    1    5 1
     5    3   33 1
     6    4   34 1
     7    5    6 1
     8    6    7 2
     9    6    8 1
    10    6    9 1
    11    8   35 1
    12    9   10 1
    13   10   11 2
    14   10   12 1
    15   10   13 1
    16   12   36 1
    17   13   14 1
    18   14   15 1
    19   14   37 1
    20   14   38 1
    21   15   16 1
    22   15   17 1
    23   15   39 1
    24   16   21 1
    25   17   18 1
    26   17   19 1
    27   17   40 1
    28   18   41 1
    29   19   20 1
    30   19   21 1
    31   19   42 1
    32   20   43 1
    33   21   22 1
    34   21   44 1
    35   22   23 ar
    36   22   32 ar
    37   23   24 ar
    38   23   45 1
    39   24   25 ar
    40   25   26 ar
    41   25   32 ar
    42   26   27 2
    43   26   28 ar
    44   28   29 ar
    45   28   46 1
    46   29   30 1
    47   29   31 ar
    48   30   47 1
    49   30   48 1
    50   31   32 ar
@<TRIPOS>SUBSTRUCTURE
     1 GTP         1 GROUP 0 A     ****
@<TRIPOS>MOLECULE
[[5-(2-amino-6-oxo-1~{H}-purin-9-yl)-3,4-dihydroxy-tetrahydrofuran-2-yl]methoxy-hydroxy-phosphoryl] phosphono hydrogen phosphate
   48    50     1     0     0
SMALL
USER_CHARGES

@<TRIPOS>ATOM
      1 PG          0.7807    5.3588    4.6334 P.3       1 GTP         1.8160
      2 O1G         1.9459    6.2143    4.2314 O.2       1 GTP        -0.8277
      3 O2G         1.1516    3.8491    5.0748 O.3       1 GTP        -0.7983
      4 O3G        -0.0814    5.9154    5.8824 O.3       1 GTP        -0.7983
      5 O3B        -0.3343    5.1545    3.4816 O.3       1 GTP        -0.8272
      6 PB         -1.2587    6.2081    2.6780 P.3       1 GTP         1.9429
      7 O1B        -2.1702    7.0265    3.5443 O.2       1 GTP        -0.8481
      8 O2B        -0.2026    7.0553    1.7949 O.3       1 GTP        -0.8171
      9 O3A        -1.9858    5.3044    1.5550 O.3       1 GTP        -0.8114
     10 PA         -2.9681    4.0282    1.6824 P.3       1 GTP         1.8017
     11 O1A        -4.2362    4.3013    2.4378 O.2       1 GTP        -0.7846
     12 O2A        -3.1908    3.5777    0.1446 O.3       1 GTP        -0.8074
     13 O5'        -2.0398    2.8621    2.3123 O.3       1 GTP        -0.5669
     14 C5'        -0.8811    2.4285    1.6206 C.3       1 GTP         0.1637
     15 C4'        -0.1994    1.3333    2.4288 C.3       1 GTP         0.1099
     16 O4'        -1.1285    0.2356    2.5840 O.3       1 GTP        -0.4100
     17 C3'         1.0324    0.7610    1.7344 C.3       1 GTP         0.0924
     18 O3'         1.9175    0.2377    2.7247 O.3       1 GTP        -0.5892
     19 C2'         0.4468   -0.3802    0.9263 C.3       1 GTP         0.0635
     20 O2'         1.3993   -1.3703    0.5961 O.3       1 GTP        -0.5749
     21 C1'        -0.6159   -0.9100    1.8769 C.3       1 GTP         0.2557
     22 N9         -1.7127   -1.6108    1.2130 N.pl3     1 GTP        -0.2236
     23 C8         -2.8667   -1.0365    0.7385 C.ar      1 GTP         0.4148
     24 N7         -3.6757   -1.9196    0.1868 N.2       1 GTP        -0.5808
     25 C5         -3.0088   -3.1018    0.3164 C.ar      1 GTP         0.1777
     26 C6         -3.4148   -4.4130   -0.1079 C.ar      1 GTP         0.6505
     27 O6         -4.4752   -4.6480   -0.6732 O.2       1 GTP        -0.5947
     28 N1         -2.4377   -5.3653    0.2144 N.pl3     1 GTP        -0.5110
     29 C2         -1.2132   -5.0902    0.8680 C.ar      1 GTP         0.6844
     30 N2         -0.4066   -6.1772    1.0834 N.pl3     1 GTP        -0.8920
     31 N3         -0.8672   -3.8786    1.2457 N.2       1 GTP        -0.6705
     32 C4         -1.7966   -2.9451    0.9439 C.ar      1 GTP         0.1220
     33 HOG2        1.5980    3.2614    4.4288 H         1 GTP         0.5087
     34 HOG3       -0.5113    6.7939    5.8086 H         1 GTP         0.5087
     35 HOB2       -0.5422    7.7062    1.1444 H         1 GTP         0.5092
     36 HOA2       -3.7078    2.7653   -0.0413 H         1 GTP         0.5041
     37 H5'        -1.1763    2.0500    0.6366 H         1 GTP         0.0584
     38 H5''       -0.2075    3.2812    1.4874 H         1 GTP         0.0584
     39 H4'         0.0402    1.7079    3.4343 H         1 GTP         0.1192
     40 H3'         1.5907    1.4859    1.1353 H         1 GTP         0.0735
     41 HO3'        2.6839   -0.1150    2.2479 H         1 GTP         0.4308
     42 H2'        -0.0017    0.0018    0.0005 H         1 GTP         0.0746
     43 HO2'        2.0953   -0.9375    0.0709 H         1 GTP         0.4224
     44 H1'        -0.1998   -1.6319    2.6178 H         1 GTP         0.1162
     45 H8         -3.0589    0.0244    0.8247 H         1 GTP         0.0741
     46 HN1        -2.6238   -6.3307   -0.0420 H         1 GTP         0.3343
     47 HN21        0.4646   -6.0341    1.5394 H         1 GTP         0.4229
     48 HN22       -0.7235   -7.0673    0.7753 H         1 GTP         0.4229
@<TRIPOS>BOND
     1    1    2 2
     2    1    3 1
     3    1    4 1
     4    1    5 1
     5    3   33 1
     6    4   34 1
     7    5    6 1
     8    6    7 2
     9    6    8 1
    10    6    9 1
    11    8   35 1
    12    9   10 1
    13   10   11 2
    14   10   12 1
    15   10   13 1
    16   12   36 1
    17   13   14 1
    18   14   15 1
    19   14   37 1
    20   14   38 1
    21   15   16 1
    22   15   17 1
    23   15   39 1
    24   16   21 1
    25   17   18 1
    26   17   19 1
    27   17   40 1
    28   18   41 1
    29   19   20 1
    30   19   21 1
    31   19   42 1
    32   20   43 1
    33   21   22 1
    34   21   44 1
    35   22   23 ar
    36   22   32 ar
    37   23   24 ar
    38   23   45 1
    39   24   25 ar
    40   25   26 ar
    41   25   32 ar
    42   26   27 2
    43   26   28 ar
    44   28   29 ar
    45   28   46 1
    46   29   30 1
    47   29   31 ar
    48   30   47 1
    49   30   48 1
    50   31   32 ar
@<TRIPOS>SUBSTRUCTURE
     1 GTP         1 GROUP 0 A     ****
@<TRIPOS>MOLECULE
[[5-(2-amino-6-oxo-1~{H}-purin-9-yl)-3,4-dihydroxy-tetrahydrofuran-2-yl]methoxy-hydroxy-phosphoryl] phosphono hydrogen phosphate
   48    50     1     0     0
SMALL
USER_CHARGES

@<TRIPOS>ATOM
      1 PG         -2.1106    2.2686   -3.3217 P.3       1 GTP         1.8160
      2 O1G        -1.7173    0.8297   -3.1606 O.2       1 GTP        -0.8277
      3 O2G        -2.7898    2.6446   -4.7391 O.3       1 GTP        -0.7983
      4 O3G        -3.1766    2.8149   -2.2364 O.3       1 GTP        -0.7983
      5 O3B        -0.8891    3.3192   -3.1956 O.3       1 GTP        -0.8272
      6 PB          0.1415    3.6335   -1.9917 P.3       1 GTP         1.9429
      7 O1B         0.9811    2.4647   -1.5674 O.2       1 GTP        -0.8481
      8 O2B         0.9666    4.9216   -2.5142 O.3       1 GTP        -0.8171
      9 O3A        -0.7927    4.2773   -0.8431 O.3       1 GTP        -0.8114
     10 PA         -0.4423    4.8273    0.6350 P.3       1 GTP         1.8017
     11 O1A         0.5440    5.9589    0.6521 O.2       1 GTP        -0.7846
     12 O2A        -1.8939    5.1976    1.2457 O.3       1 GTP        -0.8074
     13 O5'         0.0173    3.5130    1.4593 O.3       1 GTP        -0.5669
     14 C5'        -0.8811    2.4285    1.6206 C.3       1 GTP         0.1637
     15 C4'        -0.1994    1.3333    2.4288 C.3       1 GTP         0.1099
     16 O4'        -1.1285    0.2356    2.5840 O.3       1 GTP        -0.4100
     17 C3'         1.0324    0.7610    1.7344 C.3       1 GTP         0.0924
     18 O3'         1.9175    0.2377    2.7247 O.3       1 GTP        -0.5892
     19 C2'         0.4468   -0.3802    0.9263 C.3       1 GTP         0.0635
     20 O2'         1.3993   -1.3703    0.5961 O.3       1 GTP        -0.5749
     21 C1'        -0.6159   -0.9100    1.8769 C.3       1 GTP         0.2557
     22 N9         -1.7127   -1.6108    1.2130 N.pl3     1 GTP        -0.2236
     23 C8         -2.5489   -1.0812    0.2607 C.ar      1 GTP         0.4148
     24 N7         -3.4468   -1.9516   -0.1576 N.2       1 GTP        -0.5808
     25 C5         -3.1696   -3.0787    0.5579 C.ar      1 GTP         0.1777
     26 C6         -3.8307   -4.3536    0.5166 C.ar      1 GTP         0.6505
     27 O6         -4.7841   -4.6033   -0.2101 O.2       1 GTP        -0.5947
     28 N1         -3.2356   -5.2522    1.4132 N.pl3     1 GTP        -0.5110
     29 C2         -2.1338   -4.9602    2.2517 C.ar      1 GTP         0.6844
     30 N2         -1.7156   -5.9923    3.0507 N.pl3     1 GTP        -0.8920
     31 N3         -1.5477   -3.7827    2.2686 N.2       1 GTP        -0.6705
     32 C4         -2.1070   -2.9013    1.4104 C.ar      1 GTP         0.1220
     33 HOG2       -2.2795    2.4991   -5.5640 H         1 GTP         0.5087
     34 HOG3       -2.9397    2.7916   -1.2849 H         1 GTP         0.5087
     35 HOB2        1.5560    4.8241   -3.2922 H         1 GTP         0.5092
     36 HOA2       -1.9540    5.4950    2.1784 H         1 GTP         0.5041
     37 H5'        -1.7774    2.7844    2.1388 H         1 GTP         0.0584
     38 H5''       -1.1657    2.0536    0.6322 H         1 GTP         0.0584
     39 H4'         0.0402    1.7079    3.4343 H         1 GTP         0.1192
     40 H3'         1.5907    1.4859    1.1353 H         1 GTP         0.0735
     41 HO3'        2.6839   -0.1150    2.2479 H         1 GTP         0.4308
     42 H2'        -0.0017    0.0018    0.0005 H         1 GTP         0.0746
     43 HO2'        0.9369   -2.0558    0.0825 H         1 GTP         0.4224
     44 H1'        -0.1998   -1.6319    2.6178 H         1 GTP         0.1162
     45 H8         -2.4545   -0.0604   -0.0844 H         1 GTP         0.0741
     46 HN1        -3.6270   -6.1884    1.4651 H         1 GTP         0.3343
     47 HN21       -0.9445   -5.8354    3.6574 H         1 GTP         0.4229
     48 HN22       -2.1993   -6.8585    2.9930 H         1 GTP         0.4229
@<TRIPOS>BOND
     1    1    2 2
     2    1    3 1
     3    1    4 1
     4    1    5 1
     5    3   33 1
     6    4   34 1
     7    5    6 1
     8    6    7 2
     9    6    8 1
    10    6    9 1
    11    8   35 1
    12    9   10 1
    13   10   11 2
    14   10   12 1
    15   10   13 1
    16   12   36 1
    17   13   14 1
    18   14   15 1
    19   14   37 1
    20   14   38 1
    21   15   16 1
    22   15   17 1
    23   15   39 1
    24   16   21 1
    25   17   18 1
    26   17   19 1
    27   17   40 1
    28   18   41 1
    29   19   20 1
    30   19   21 1
    31   19   42 1
    32   20   43 1
    33   21   22 1
    34   21   44 1
    35   22   23 ar
    36   22   32 ar
    37   23   24 ar
    38   23   45 1
    39   24   25 ar
    40   25   26 ar
    41   25   32 ar
    42   26   27 2
    43   26   28 ar
    44   28   29 ar
    45   28   46 1
    46   29   30 1
    47   29   31 ar
    48   30   47 1
    49   30   48 1
    50   31   32 ar
@<TRIPOS>SUBSTRUCTURE
     1 GTP         1 GROUP 0 A     ****
@<TRIPOS>MOLECULE
[[5-(2-amino-6-oxo-1~{H}-purin-9-yl)-3,4-dihydroxy-tetrahydrofuran-2-yl]methoxy-hydroxy-phosphoryl] phosphono hydrogen phosphate
   48    50     1     0     0
SMALL
USER_CHARGES

@<TRIPOS>ATOM
      1 PG          0.8315    7.1615    0.8271 P.3       1 GTP         1.8160
      2 O1G         2.0671    6.5997    1.4664 O.2       1 GTP        -0.8277
      3 O2G         0.9898    8.6431    0.2014 O.3       1 GTP        -0.7983
      4 O3G         0.2394    6.2948   -0.4021 O.3       1 GTP        -0.7983
      5 O3B        -0.4363    7.3021    1.8195 O.3       1 GTP        -0.8272
      6 PB         -1.2587    6.2081    2.6780 P.3       1 GTP         1.9429
      7 O1B        -0.4369    5.4577    3.6843 O.2       1 GTP        -0.8481
      8 O2B        -2.4986    7.0468    3.2882 O.3       1 GTP        -0.8171
      9 O3A        -1.9858    5.3044    1.5550 O.3       1 GTP        -0.8114
     10 PA         -2.9681    4.0282    1.6824 P.3       1 GTP         1.8017
     11 O1A        -4.2362    4.3013    2.4378 O.2       1 GTP        -0.7846
     12 O2A        -3.1908    3.5777    0.1446 O.3       1 GTP        -0.8074
     13 O5'        -2.0398    2.8621    2.3123 O.3       1 GTP        -0.5669
     14 C5'        -0.8811    2.4285    1.6206 C.3       1 GTP         0.1637
     15 C4'        -0.1994    1.3333    2.4288 C.3       1 GTP         0.1099
     16 O4'        -1.1285    0.2356    2.5840 O.3       1 GTP        -0.4100
     17 C3'         1.0324    0.7610    1.7344 C.3       1 GTP         0.0924
     18 O3'         1.9175    0.2377    2.7247 O.3       1 GTP        -0.5892
     19 C2'         0.4468   -0.3802    0.9263 C.3       1 GTP         0.0635
     20 O2'         1.3993   -1.3703    0.5961 O.3       1 GTP        -0.5749
     21 C1'        -0.6159   -0.9100    1.8769 C.3       1 GTP         0.2557
     22 N9         -1.7127   -1.6108    1.2130 N.pl3     1 GTP        -0.2236
     23 C8         -2.8667   -1.0365    0.7385 C.ar      1 GTP         0.4148
     24 N7         -3.6757   -1.9196    0.1868 N.2       1 GTP        -0.5808
     25 C5         -3.0088   -3.1018    0.3164 C.ar      1 GTP         0.1777
     26 C6         -3.4148   -4.4130   -0.1079 C.ar      1 GTP         0.6505
     27 O6         -4.4752   -4.6480   -0.6732 O.2       1 GTP        -0.5947
     28 N1         -2.4377   -5.3653    0.2144 N.pl3     1 GTP        -0.5110
     29 C2         -1.2132   -5.0902    0.8680 C.ar      1 GTP         0.6844
     30 N2         -0.4066   -6.1772    1.0834 N.pl3     1 GTP        -0.8920
     31 N3         -0.8672   -3.8786    1.2457 N.2       1 GTP        -0.6705
     32 C4         -1.7966   -2.9451    0.9439 C.ar      1 GTP         0.1220
     33 HOG2        1.6491    8.7906   -0.5097 H         1 GTP         0.5087
     34 HOG3       -0.0392    5.3686   -0.2392 H         1 GTP         0.5087
     35 HOB2       -2.3168    7.7535    3.9437 H         1 GTP         0.5092
     36 HOA2       -3.7078    2.7653   -0.0413 H         1 GTP         0.5041
     37 H5'        -1.1763    2.0500    0.6366 H         1 GTP         0.0584
     38 H5''       -0.2075    3.2812    1.4874 H         1 GTP         0.0584
     39 H4'         0.0402    1.7079    3.4343 H         1 GTP         0.1192
     40 H3'         1.5907    1.4859    1.1353 H         1 GTP         0.0735
     41 HO3'        2.6839   -0.1150    2.2479 H         1 GTP         0.4308
     42 H2'        -0.0017    0.0018    0.0005 H         1 GTP         0.0746
     43 HO2'        2.0953   -0.9375    0.0709 H         1 GTP         0.4224
     44 H1'        -0.1998   -1.6319    2.6178 H         1 GTP         0.1162
     45 H8         -3.0589    0.0244    0.8247 H         1 GTP         0.0741
     46 HN1        -2.6238   -6.3307   -0.0420 H         1 GTP         0.3343
     47 HN21        0.4646   -6.0341    1.5394 H         1 GTP         0.4229
     48 HN22       -0.7235   -7.0673    0.7753 H         1 GTP         0.4229
@<TRIPOS>BOND
     1    1    2 2
     2    1    3 1
     3    1    4 1
     4    1    5 1
     5    3   33 1
     6    4   34 1
     7    5    6 1
     8    6    7 2
     9    6    8 1
    10    6    9 1
    11    8   35 1
    12    9   10 1
    13   10   11 2
    14   10   12 1
    15   10   13 1
    16   12   36 1
    17   13   14 1
    18   14   15 1
    19   14   37 1
    20   14   38 1
    21   15   16 1
    22   15   17 1
    23   15   39 1
    24   16   21 1
    25   17   18 1
    26   17   19 1
    27   17   40 1
    28   18   41 1
    29   19   20 1
    30   19   21 1
    31   19   42 1
    32   20   43 1
    33   21   22 1
    34   21   44 1
    35   22   23 ar
    36   22   32 ar
    37   23   24 ar
    38   23   45 1
    39   24   25 ar
    40   25   26 ar
    41   25   32 ar
    42   26   27 2
    43   26   28 ar
    44   28   29 ar
    45   28   46 1
    46   29   30 1
    47   29   31 ar
    48   30   47 1
    49   30   48 1
    50   31   32 ar
@<TRIPOS>SUBSTRUCTURE
     1 GTP         1 GROUP 0 A     ****
@<TRIPOS>MOLECULE
[[5-(2-amino-6-oxo-1~{H}-purin-9-yl)-3,4-dihydroxy-tetrahydrofuran-2-yl]methoxy-hydroxy-phosphoryl] phosphono hydrogen phosphate
   48    50     1     0     0
SMALL
USER_CHARGES

@<TRIPOS>ATOM
      1 PG          1.9603    5.3316    3.6016 P.3       1 GTP         1.8160
      2 O1G         1.9092    6.2281    4.8035 O.2       1 GTP        -0.8277
      3 O2G         3.0218    5.7634    2.4621 O.3       1 GTP        -0.7983
      4 O3G         2.3433    3.7916    3.9091 O.3       1 GTP        -0.7983
      5 O3B         0.5660    5.2074    2.7940 O.3       1 GTP        -0.8272
      6 PB         -0.3522    6.3116    2.0538 P.3       1 GTP         1.9429
      7 O1B        -0.8615    7.4021    2.9496 O.2       1 GTP        -0.8481
      8 O2B         0.5603    6.8070    0.8149 O.3       1 GTP        -0.8171
      9 O3A        -1.4833    5.4343    1.3071 O.3       1 GTP        -0.8114
     10 PA         -2.5920    4.4092    1.8815 P.3       1 GTP         1.8017
     11 O1A        -3.5580    5.0276    2.8499 O.2       1 GTP        -0.7846
     12 O2A        -3.2774    3.8166    0.5413 O.3       1 GTP        -0.8074
     13 O5'        -1.7335    3.1724    2.4745 O.3       1 GTP        -0.5669
     14 C5'        -0.8811    2.4285    1.6206 C.3       1 GTP         0.1637
     15 C4'        -0.1994    1.3333    2.4288 C.3       1 GTP         0.1099
     16 O4'        -1.1285    0.2356    2.5840 O.3       1 GTP        -0.4100
     17 C3'         1.0324    0.7610    1.7344 C.3       1 GTP         0.0924
     18 O3'         1.9175    0.2377    2.7247 O.3       1 GTP        -0.5892
     19 C2'         0.4468   -0.3802    0.9263 C.3       1 GTP         0.0635
     20 O2'         1.3993   -1.3703    0.5961 O.3       1 GTP        -0.5749
     21 C1'        -0.6159   -0.9100    1.8769 C.3       1 GTP         0.2557
     22 N9         -1.7127   -1.6108    1.2130 N.pl3     1 GTP        -0.2236
     23 C8         -2.8667   -1.0365    0.7385 C.ar      1 GTP         0.4148
     24 N7         -3.6757   -1.9196    0.1868 N.2       1 GTP        -0.5808
     25 C5         -3.0088   -3.1018    0.3164 C.ar      1 GTP         0.1777
     26 C6         -3.4148   -4.4130   -0.1079 C.ar      1 GTP         0.6505
     27 O6         -4.4752   -4.6480   -0.6732 O.2       1 GTP        -0.5947
     28 N1         -2.4377   -5.3653    0.2144 N.pl3     1 GTP        -0.5110
     29 C2         -1.2132   -5.0902    0.8680 C.ar      1 GTP         0.6844
     30 N2         -0.4066   -6.1772    1.0834 N.pl3     1 GTP        -0.8920
     31 N3         -0.8672   -3.8786    1.2457 N.2       1 GTP        -0.6705
     32 C4         -1.7966   -2.9451    0.9439 C.ar      1 GTP         0.1220
     33 HOG2        2.9287    6.6410    2.0341 H         1 GTP         0.5087
     34 HOG3        1.7674    3.2694    4.5072 H         1 GTP         0.5087
     35 HOB2        0.1732    7.4226    0.1566 H         1 GTP         0.5092
     36 HOA2       -3.9497    3.1075    0.6263 H         1 GTP         0.5041
     37 H5'        -1.4796    1.9923    0.8143 H         1 GTP         0.0584
     38 H5''       -0.1364    3.1037    1.1869 H         1 GTP         0.0584
     39 H4'         0.0402    1.7079    3.4343 H         1 GTP         0.1192
     40 H3'         1.5907    1.4859    1.1353 H         1 GTP         0.0735
     41 HO3'        2.1521    0.9800    3.3017 H         1 GTP         0.4308
     42 H2'        -0.0017    0.0018    0.0005 H         1 GTP         0.0746
     43 HO2'        2.0953   -0.9375    0.0709 H         1 GTP         0.4224
     44 H1'        -0.1998   -1.6319    2.6178 H         1 GTP         0.1162
     45 H8         -3.0589    0.0244    0.8247 H         1 GTP         0.0741
     46 HN1        -2.6238   -6.3307   -0.0420 H         1 GTP         0.3343
     47 HN21        0.4646   -6.0341    1.5394 H         1 GTP         0.4229
     48 HN22       -0.7235   -7.0673    0.7753 H         1 GTP         0.4229
@<TRIPOS>BOND
     1    1    2 2
     2    1    3 1
     3    1    4 1
     4    1    5 1
     5    3   33 1
     6    4   34 1
     7    5    6 1
     8    6    7 2
     9    6    8 1
    10    6    9 1
    11    8   35 1
    12    9   10 1
    13   10   11 2
    14   10   12 1
    15   10   13 1
    16   12   36 1
    17   13   14 1
    18   14   15 1
    19   14   37 1
    20   14   38 1
    21   15   16 1
    22   15   17 1
    23   15   39 1
    24   16   21 1
    25   17   18 1
    26   17   19 1
    27   17   40 1
    28   18   41 1
    29   19   20 1
    30   19   21 1
    31   19   42 1
    32   20   43 1
    33   21   22 1
    34   21   44 1
    35   22   23 ar
    36   22   32 ar
    37   23   24 ar
    38   23   45 1
    39   24   25 ar
    40   25   26 ar
    41   25   32 ar
    42   26   27 2
    43   26   28 ar
    44   28   29 ar
    45   28   46 1
    46   29   30 1
    47   29   31 ar
    48   30   47 1
    49   30   48 1
    50   31   32 ar
@<TRIPOS>SUBSTRUCTURE
     1 GTP         1 GROUP 0 A     ****
@<TRIPOS>MOLECULE
[[5-(2-amino-6-oxo-1~{H}-purin-9-yl)-3,4-dihydroxy-tetrahydrofuran-2-yl]methoxy-hydroxy-phosphoryl] phosphono hydrogen phosphate
   48    50     1     0     0
SMALL
USER_CHARGES

@<TRIPOS>ATOM
      1 PG         -0.6526    2.8115   -4.7115 P.3       1 GTP         1.8160
      2 O1G         0.1936    3.7223   -5.5514 O.2       1 GTP        -0.8277
      3 O2G        -2.1496    2.5549   -5.2637 O.3       1 GTP        -0.7983
      4 O3G        -0.0645    1.3195   -4.5101 O.3       1 GTP        -0.7983
      5 O3B        -0.8891    3.3192   -3.1956 O.3       1 GTP        -0.8272
      6 PB          0.1415    3.6335   -1.9917 P.3       1 GTP         1.9429
      7 O1B         0.9811    2.4647   -1.5674 O.2       1 GTP        -0.8481
      8 O2B         0.9666    4.9216   -2.5142 O.3       1 GTP        -0.8171
      9 O3A        -0.7927    4.2773   -0.8431 O.3       1 GTP        -0.8114
     10 PA         -0.4423    4.8273    0.6350 P.3       1 GTP         1.8017
     11 O1A         0.5440    5.9589    0.6521 O.2       1 GTP        -0.7846
     12 O2A        -1.8939    5.1976    1.2457 O.3       1 GTP        -0.8074
     13 O5'         0.0173    3.5130    1.4593 O.3       1 GTP        -0.5669
     14 C5'        -0.8811    2.4285    1.6206 C.3       1 GTP         0.1637
     15 C4'        -0.1994    1.3333    2.4288 C.3       1 GTP         0.1099
     16 O4'        -1.1285    0.2356    2.5840 O.3       1 GTP        -0.4100
     17 C3'         1.0324    0.7610    1.7344 C.3       1 GTP         0.0924
     18 O3'         1.9175    0.2377    2.7247 O.3       1 GTP        -0.5892
     19 C2'         0.4468   -0.3802    0.9263 C.3       1 GTP         0.0635
     20 O2'         1.3993   -1.3703    0.5961 O.3       1 GTP        -0.5749
     21 C1'        -0.6159   -0.9100    1.8769 C.3       1 GTP         0.2557
     22 N9         -1.7127   -1.6108    1.2130 N.pl3     1 GTP        -0.2236
     23 C8         -2.0873   -2.9139    1.4324 C.ar      1 GTP         0.4148
     24 N7         -3.1135   -3.2727    0.6860 N.2       1 GTP        -0.5808
     25 C5         -3.4017   -2.1526   -0.0362 C.ar      1 GTP         0.1777
     26 C6         -4.4318   -1.9582   -1.0186 C.ar      1 GTP         0.6505
     27 O6         -5.2284   -2.8266   -1.3513 O.2       1 GTP        -0.5947
     28 N1         -4.3916   -0.6538   -1.5306 N.pl3     1 GTP        -0.5110
     29 C2         -3.4693    0.3474   -1.1439 C.ar      1 GTP         0.6844
     30 N2         -3.6143    1.5541   -1.7775 N.pl3     1 GTP        -0.8920
     31 N3         -2.5355    0.1410   -0.2407 N.2       1 GTP        -0.6705
     32 C4         -2.5574   -1.1117    0.2656 C.ar      1 GTP         0.1220
     33 HOG2       -2.2664    2.1507   -6.1497 H         1 GTP         0.5087
     34 HOG3        0.8111    1.2079   -4.0824 H         1 GTP         0.5087
     35 HOB2        1.5995    5.3587   -1.9056 H         1 GTP         0.5092
     36 HOA2       -1.9540    5.4950    2.1784 H         1 GTP         0.5041
     37 H5'        -1.7774    2.7844    2.1388 H         1 GTP         0.0584
     38 H5''       -1.1657    2.0536    0.6322 H         1 GTP         0.0584
     39 H4'         0.0402    1.7079    3.4343 H         1 GTP         0.1192
     40 H3'         1.5907    1.4859    1.1353 H         1 GTP         0.0735
     41 HO3'        2.6839   -0.1150    2.2479 H         1 GTP         0.4308
     42 H2'        -0.0017    0.0018    0.0005 H         1 GTP         0.0746
     43 HO2'        2.0953   -0.9375    0.0709 H         1 GTP         0.4224
     44 H1'        -0.1998   -1.6319    2.6178 H         1 GTP         0.1162
     45 H8         -1.5757   -3.5474    2.1443 H         1 GTP         0.0741
     46 HN1        -5.0800   -0.4074   -2.2361 H         1 GTP         0.3343
     47 HN21       -2.9894    2.2891   -1.5392 H         1 GTP         0.4229
     48 HN22       -4.3387    1.6483   -2.4512 H         1 GTP         0.4229
@<TRIPOS>BOND
     1    1    2 2
     2    1    3 1
     3    1    4 1
     4    1    5 1
     5    3   33 1
     6    4   34 1
     7    5    6 1
     8    6    7 2
     9    6    8 1
    10    6    9 1
    11    8   35 1
    12    9   10 1
    13   10   11 2
    14   10   12 1
    15   10   13 1
    16   12   36 1
    17   13   14 1
    18   14   15 1
    19   14   37 1
    20   14   38 1
    21   15   16 1
    22   15   17 1
    23   15   39 1
    24   16   21 1
    25   17   18 1
    26   17   19 1
    27   17   40 1
    28   18   41 1
    29   19   20 1
    30   19   21 1
    31   19   42 1
    32   20   43 1
    33   21   22 1
    34   21   44 1
    35   22   23 ar
    36   22   32 ar
    37   23   24 ar
    38   23   45 1
    39   24   25 ar
    40   25   26 ar
    41   25   32 ar
    42   26   27 2
    43   26   28 ar
    44   28   29 ar
    45   28   46 1
    46   29   30 1
    47   29   31 ar
    48   30   47 1
    49   30   48 1
    50   31   32 ar
@<TRIPOS>SUBSTRUCTURE
     1 GTP         1 GROUP 0 A     ****
@<TRIPOS>MOLECULE
[[5-(2-amino-6-oxo-1~{H}-purin-9-yl)-3,4-dihydroxy-tetrahydrofuran-2-yl]methoxy-hydroxy-phosphoryl] phosphono hydrogen phosphate
   48    50     1     0     0
SMALL
USER_CHARGES

@<TRIPOS>ATOM
      1 PG          0.3993    8.6126    2.2622 P.3       1 GTP         1.8160
      2 O1G        -0.4044    9.6515    2.9873 O.2       1 GTP        -0.8277
      3 O2G         1.0867    9.1074    0.8858 O.3       1 GTP        -0.7983
      4 O3G         1.6355    7.9929    3.0990 O.3       1 GTP        -0.7983
      5 O3B        -0.4363    7.3021    1.8195 O.3       1 GTP        -0.8272
      6 PB         -1.2587    6.2081    2.6780 P.3       1 GTP         1.9429
      7 O1B        -0.4369    5.4577    3.6843 O.2       1 GTP        -0.8481
      8 O2B        -2.4986    7.0468    3.2882 O.3       1 GTP        -0.8171
      9 O3A        -1.9858    5.3044    1.5550 O.3       1 GTP        -0.8114
     10 PA         -2.9681    4.0282    1.6824 P.3       1 GTP         1.8017
     11 O1A        -4.2362    4.3013    2.4378 O.2       1 GTP        -0.7846
     12 O2A        -3.1908    3.5777    0.1446 O.3       1 GTP        -0.8074
     13 O5'        -2.0398    2.8621    2.3123 O.3       1 GTP        -0.5669
     14 C5'        -0.8811    2.4285    1.6206 C.3       1 GTP         0.1637
     15 C4'        -0.1994    1.3333    2.4288 C.3       1 GTP         0.1099
     16 O4'        -1.1285    0.2356    2.5840 O.3       1 GTP        -0.4100
     17 C3'         1.0324    0.7610    1.7344 C.3       1 GTP         0.0924
     18 O3'         1.9175    0.2377    2.7247 O.3       1 GTP        -0.5892
     19 C2'         0.4468   -0.3802    0.9263 C.3       1 GTP         0.0635
     20 O2'         1.3993   -1.3703    0.5961 O.3       1 GTP        -0.5749
     21 C1'        -0.6159   -0.9100    1.8769 C.3       1 GTP         0.2557
     22 N9         -1.7127   -1.6108    1.2130 N.pl3     1 GTP        -0.2236
     23 C8         -2.8667   -1.0365    0.7385 C.ar      1 GTP         0.4148
     24 N7         -3.6757   -1.9196    0.1868 N.2       1 GTP        -0.5808
     25 C5         -3.0088   -3.1018    0.3164 C.ar      1 GTP         0.1777
     26 C6         -3.4148   -4.4130   -0.1079 C.ar      1 GTP         0.6505
     27 O6         -4.4752   -4.6480   -0.6732 O.2       1 GTP        -0.5947
     28 N1         -2.4377   -5.3653    0.2144 N.pl3     1 GTP        -0.5110
     29 C2         -1.2132   -5.0902    0.8680 C.ar      1 GTP         0.6844
     30 N2         -0.4066   -6.1772    1.0834 N.pl3     1 GTP        -0.8920
     31 N3         -0.8672   -3.8786    1.2457 N.2       1 GTP        -0.6705
     32 C4         -1.7966   -2.9451    0.9439 C.ar      1 GTP         0.1220
     33 HOG2        1.7272    9.8496    0.9146 H         1 GTP         0.5087
     34 HOG3        1.4523    7.5306    3.9445 H         1 GTP         0.5087
     35 HOB2       -3.1991    6.5680    3.7803 H         1 GTP         0.5092
     36 HOA2       -3.7078    2.7653   -0.0413 H         1 GTP         0.5041
     37 H5'        -1.1763    2.0500    0.6366 H         1 GTP         0.0584
     38 H5''       -0.2075    3.2812    1.4874 H         1 GTP         0.0584
     39 H4'         0.0402    1.7079    3.4343 H         1 GTP         0.1192
     40 H3'         1.5907    1.4859    1.1353 H         1 GTP         0.0735
     41 HO3'        2.6839   -0.1150    2.2479 H         1 GTP         0.4308
     42 H2'        -0.0017    0.0018    0.0005 H         1 GTP         0.0746
     43 HO2'        2.0953   -0.9375    0.0709 H         1 GTP         0.4224
     44 H1'        -0.1998   -1.6319    2.6178 H         1 GTP         0.1162
     45 H8         -3.0589    0.0244    0.8247 H         1 GTP         0.0741
     46 HN1        -2.6238   -6.3307   -0.0420 H         1 GTP         0.3343
     47 HN21        0.4646   -6.0341    1.5394 H         1 GTP         0.4229
     48 HN22       -0.7235   -7.0673    0.7753 H         1 GTP         0.4229
@<TRIPOS>BOND
     1    1    2 2
     2    1    3 1
     3    1    4 1
     4    1    5 1
     5    3   33 1
     6    4   34 1
     7    5    6 1
     8    6    7 2
     9    6    8 1
    10    6    9 1
    11    8   35 1
    12    9   10 1
    13   10   11 2
    14   10   12 1
    15   10   13 1
    16   12   36 1
    17   13   14 1
    18   14   15 1
    19   14   37 1
    20   14   38 1
    21   15   16 1
    22   15   17 1
    23   15   39 1
    24   16   21 1
    25   17   18 1
    26   17   19 1
    27   17   40 1
    28   18   41 1
    29   19   20 1
    30   19   21 1
    31   19   42 1
    32   20   43 1
    33   21   22 1
    34   21   44 1
    35   22   23 ar
    36   22   32 ar
    37   23   24 ar
    38   23   45 1
    39   24   25 ar
    40   25   26 ar
    41   25   32 ar
    42   26   27 2
    43   26   28 ar
    44   28   29 ar
    45   28   46 1
    46   29   30 1
    47   29   31 ar
    48   30   47 1
    49   30   48 1
    50   31   32 ar
@<TRIPOS>SUBSTRUCTURE
     1 GTP         1 GROUP 0 A     ****
@<TRIPOS>MOLECULE
[[5-(2-amino-6-oxo-1~{H}-purin-9-yl)-3,4-dihydroxy-tetrahydrofuran-2-yl]methoxy-hydroxy-phosphoryl] phosphono hydrogen phosphate
   48    50     1     0     0
SMALL
USER_CHARGES

@<TRIPOS>ATOM
      1 PG         -0.6526    2.8115   -4.7115 P.3       1 GTP         1.8160
      2 O1G         0.0300    1.4803   -4.8261 O.2       1 GTP        -0.8277
      3 O2G         0.1210    4.0470   -5.4093 O.3       1 GTP        -0.7983
      4 O3G        -2.1333    2.8819   -5.3560 O.3       1 GTP        -0.7983
      5 O3B        -0.8891    3.3192   -3.1956 O.3       1 GTP        -0.8272
      6 PB          0.1415    3.6335   -1.9917 P.3       1 GTP         1.9429
      7 O1B         0.9811    2.4647   -1.5674 O.2       1 GTP        -0.8481
      8 O2B         0.9666    4.9216   -2.5142 O.3       1 GTP        -0.8171
      9 O3A        -0.7927    4.2773   -0.8431 O.3       1 GTP        -0.8114
     10 PA         -0.4423    4.8273    0.6350 P.3       1 GTP         1.8017
     11 O1A         0.5440    5.9589    0.6521 O.2       1 GTP        -0.7846
     12 O2A        -1.8939    5.1976    1.2457 O.3       1 GTP        -0.8074
     13 O5'         0.0173    3.5130    1.4593 O.3       1 GTP        -0.5669
     14 C5'        -0.8811    2.4285    1.6206 C.3       1 GTP         0.1637
     15 C4'        -0.1994    1.3333    2.4288 C.3       1 GTP         0.1099
     16 O4'        -1.1285    0.2356    2.5840 O.3       1 GTP        -0.4100
     17 C3'         1.0324    0.7610    1.7344 C.3       1 GTP         0.0924
     18 O3'         1.9175    0.2377    2.7247 O.3       1 GTP        -0.5892
     19 C2'         0.4468   -0.3802    0.9263 C.3       1 GTP         0.0635
     20 O2'         1.3993   -1.3703    0.5961 O.3       1 GTP        -0.5749
     21 C1'        -0.6159   -0.9100    1.8769 C.3       1 GTP         0.2557
     22 N9         -1.7127   -1.6108    1.2130 N.pl3     1 GTP        -0.2236
     23 C8         -2.8667   -1.0365    0.7385 C.ar      1 GTP         0.4148
     24 N7         -3.6757   -1.9196    0.1868 N.2       1 GTP        -0.5808
     25 C5         -3.0088   -3.1018    0.3164 C.ar      1 GTP         0.1777
     26 C6         -3.4148   -4.4130   -0.1079 C.ar      1 GTP         0.6505
     27 O6         -4.4752   -4.6480   -0.6732 O.2       1 GTP        -0.5947
     28 N1         -2.4377   -5.3653    0.2144 N.pl3     1 GTP        -0.5110
     29 C2         -1.2132   -5.0902    0.8680 C.ar      1 GTP         0.6844
     30 N2         -0.4066   -6.1772    1.0834 N.pl3     1 GTP        -0.8920
     31 N3         -0.8672   -3.8786    1.2457 N.2       1 GTP        -0.6705
     32 C4         -1.7966   -2.9451    0.9439 C.ar      1 GTP         0.1220
     33 HOG2        1.0243    4.2757   -5.1032 H         1 GTP         0.5087
     34 HOG3       -2.2438    2.6971   -6.3130 H         1 GTP         0.5087
     35 HOB2        1.5995    5.3587   -1.9056 H         1 GTP         0.5092
     36 HOA2       -1.9540    5.4950    2.1784 H         1 GTP         0.5041
     37 H5'        -1.7774    2.7844    2.1388 H         1 GTP         0.0584
     38 H5''       -1.1657    2.0536    0.6322 H         1 GTP         0.0584
     39 H4'         0.0402    1.7079    3.4343 H         1 GTP         0.1192
     40 H3'         1.5907    1.4859    1.1353 H         1 GTP         0.0735
     41 HO3'        2.6839   -0.1150    2.2479 H         1 GTP         0.4308
     42 H2'        -0.0017    0.0018    0.0005 H         1 GTP         0.0746
     43 HO2'        2.0953   -0.9375    0.0709 H         1 GTP         0.4224
     44 H1'        -0.1998   -1.6319    2.6178 H         1 GTP         0.1162
     45 H8         -3.0589    0.0244    0.8247 H         1 GTP         0.0741
     46 HN1        -2.6238   -6.3307   -0.0420 H         1 GTP         0.3343
     47 HN21        0.4646   -6.0341    1.5394 H         1 GTP         0.4229
     48 HN22       -0.7235   -7.0673    0.7753 H         1 GTP         0.4229
@<TRIPOS>BOND
     1    1    2 2
     2    1    3 1
     3    1    4 1
     4    1    5 1
     5    3   33 1
     6    4   34 1
     7    5    6 1
     8    6    7 2
     9    6    8 1
    10    6    9 1
    11    8   35 1
    12    9   10 1
    13   10   11 2
    14   10   12 1
    15   10   13 1
    16   12   36 1
    17   13   14 1
    18   14   15 1
    19   14   37 1
    20   14   38 1
    21   15   16 1
    22   15   17 1
    23   15   39 1
    24   16   21 1
    25   17   18 1
    26   17   19 1
    27   17   40 1
    28   18   41 1
    29   19   20 1
    30   19   21 1
    31   19   42 1
    32   20   43 1
    33   21   22 1
    34   21   44 1
    35   22   23 ar
    36   22   32 ar
    37   23   24 ar
    38   23   45 1
    39   24   25 ar
    40   25   26 ar
    41   25   32 ar
    42   26   27 2
    43   26   28 ar
    44   28   29 ar
    45   28   46 1
    46   29   30 1
    47   29   31 ar
    48   30   47 1
    49   30   48 1
    50   31   32 ar
@<TRIPOS>SUBSTRUCTURE
     1 GTP         1 GROUP 0 A     ****
@<TRIPOS>MOLECULE
[[5-(2-amino-6-oxo-1~{H}-purin-9-yl)-3,4-dihydroxy-tetrahydrofuran-2-yl]methoxy-hydroxy-phosphoryl] phosphono hydrogen phosphate
   48    50     1     0     0
SMALL
USER_CHARGES

@<TRIPOS>ATOM
      1 PG         -1.9560    2.7275   -3.6411 P.3       1 GTP         1.8160
      2 O1G        -1.1944    3.3493   -4.7745 O.2       1 GTP        -0.8277
      3 O2G        -3.1341    1.7104   -4.0761 O.3       1 GTP        -0.7983
      4 O3G        -1.0656    1.8547   -2.6125 O.3       1 GTP        -0.7983
      5 O3B        -2.7041    3.7830   -2.6727 O.3       1 GTP        -0.8272
      6 PB         -2.1435    4.9937   -1.7616 P.3       1 GTP         1.9429
      7 O1B        -1.4193    6.0646   -2.5230 O.2       1 GTP        -0.8481
      8 O2B        -3.4419    5.4918   -0.9374 O.3       1 GTP        -0.8171
      9 O3A        -1.2850    4.2479   -0.6156 O.3       1 GTP        -0.8114
     10 PA         -0.4423    4.8273    0.6350 P.3       1 GTP         1.8017
     11 O1A         0.6756    5.7513    0.2478 O.2       1 GTP        -0.7846
     12 O2A        -1.5790    5.5072    1.5639 O.3       1 GTP        -0.8074
     13 O5'         0.0173    3.5130    1.4593 O.3       1 GTP        -0.5669
     14 C5'        -0.8811    2.4285    1.6206 C.3       1 GTP         0.1637
     15 C4'        -0.1994    1.3333    2.4288 C.3       1 GTP         0.1099
     16 O4'        -1.1285    0.2356    2.5840 O.3       1 GTP        -0.4100
     17 C3'         1.0324    0.7610    1.7344 C.3       1 GTP         0.0924
     18 O3'         1.9175    0.2377    2.7247 O.3       1 GTP        -0.5892
     19 C2'         0.4468   -0.3802    0.9263 C.3       1 GTP         0.0635
     20 O2'         1.3993   -1.3703    0.5961 O.3       1 GTP        -0.5749
     21 C1'        -0.6159   -0.9100    1.8769 C.3       1 GTP         0.2557
     22 N9         -1.7127   -1.6108    1.2130 N.pl3     1 GTP        -0.2236
     23 C8         -1.7695   -2.9586    0.9546 C.ar      1 GTP         0.4148
     24 N7         -2.8846   -3.3047    0.3416 N.2       1 GTP        -0.5808
     25 C5         -3.5626   -2.1296    0.2052 C.ar      1 GTP         0.1777
     26 C6         -4.8477   -1.8989   -0.3942 C.ar      1 GTP         0.6505
     27 O6         -5.5373   -2.7819   -0.8881 O.2       1 GTP        -0.5947
     28 N1         -5.1895   -0.5407   -0.3318 N.pl3     1 GTP        -0.5110
     29 C2         -4.3899    0.4774    0.2398 C.ar      1 GTP         0.6844
     30 N2         -4.9233    1.7390    0.1898 N.pl3     1 GTP        -0.8920
     31 N3         -3.2159    0.2369    0.7822 N.2       1 GTP        -0.6705
     32 C4         -2.8678   -1.0679    0.7322 C.ar      1 GTP         0.1220
     33 HOG2       -2.9050    0.9153   -4.6029 H         1 GTP         0.5087
     34 HOG3       -0.3341    2.2929   -2.1277 H         1 GTP         0.5087
     35 HOB2       -4.1842    5.9064   -1.4264 H         1 GTP         0.5092
     36 HOA2       -2.0748    6.2794    1.2177 H         1 GTP         0.5041
     37 H5'        -1.7774    2.7844    2.1388 H         1 GTP         0.0584
     38 H5''       -1.1657    2.0536    0.6322 H         1 GTP         0.0584
     39 H4'         0.0402    1.7079    3.4343 H         1 GTP         0.1192
     40 H3'         1.5907    1.4859    1.1353 H         1 GTP         0.0735
     41 HO3'        2.6839   -0.1150    2.2479 H         1 GTP         0.4308
     42 H2'        -0.0017    0.0018    0.0005 H         1 GTP         0.0746
     43 HO2'        2.0953   -0.9375    0.0709 H         1 GTP         0.4224
     44 H1'        -0.1998   -1.6319    2.6178 H         1 GTP         0.1162
     45 H8         -0.9713   -3.6323    1.2352 H         1 GTP         0.0741
     46 HN1        -6.0831   -0.2651   -0.7290 H         1 GTP         0.3343
     47 HN21       -5.8145    1.8569   -0.2336 H         1 GTP         0.4229
     48 HN22       -4.3986    2.4880    0.5787 H         1 GTP         0.4229
@<TRIPOS>BOND
     1    1    2 2
     2    1    3 1
     3    1    4 1
     4    1    5 1
     5    3   33 1
     6    4   34 1
     7    5    6 1
     8    6    7 2
     9    6    8 1
    10    6    9 1
    11    8   35 1
    12    9   10 1
    13   10   11 2
    14   10   12 1
    15   10   13 1
    16   12   36 1
    17   13   14 1
    18   14   15 1
    19   14   37 1
    20   14   38 1
    21   15   16 1
    22   15   17 1
    23   15   39 1
    24   16   21 1
    25   17   18 1
    26   17   19 1
    27   17   40 1
    28   18   41 1
    29   19   20 1
    30   19   21 1
    31   19   42 1
    32   20   43 1
    33   21   22 1
    34   21   44 1
    35   22   23 ar
    36   22   32 ar
    37   23   24 ar
    38   23   45 1
    39   24   25 ar
    40   25   26 ar
    41   25   32 ar
    42   26   27 2
    43   26   28 ar
    44   28   29 ar
    45   28   46 1
    46   29   30 1
    47   29   31 ar
    48   30   47 1
    49   30   48 1
    50   31   32 ar
@<TRIPOS>SUBSTRUCTURE
     1 GTP         1 GROUP 0 A     ****
@<TRIPOS>MOLECULE
[[5-(2-amino-6-oxo-1~{H}-purin-9-yl)-3,4-dihydroxy-tetrahydrofuran-2-yl]methoxy-hydroxy-phosphoryl] phosphono hydrogen phosphate
   48    50     1     0     0
SMALL
USER_CHARGES

@<TRIPOS>ATOM
      1 PG         -0.6526    2.8115   -4.7115 P.3       1 GTP         1.8160
      2 O1G         0.0300    1.4803   -4.8261 O.2       1 GTP        -0.8277
      3 O2G         0.1210    4.0470   -5.4093 O.3       1 GTP        -0.7983
      4 O3G        -2.1333    2.8819   -5.3560 O.3       1 GTP        -0.7983
      5 O3B        -0.8891    3.3192   -3.1956 O.3       1 GTP        -0.8272
      6 PB          0.1415    3.6335   -1.9917 P.3       1 GTP         1.9429
      7 O1B         0.9811    2.4647   -1.5674 O.2       1 GTP        -0.8481
      8 O2B         0.9666    4.9216   -2.5142 O.3       1 GTP        -0.8171
      9 O3A        -0.7927    4.2773   -0.8431 O.3       1 GTP        -0.8114
     10 PA         -0.4423    4.8273    0.6350 P.3       1 GTP         1.8017
     11 O1A         0.5440    5.9589    0.6521 O.2       1 GTP        -0.7846
     12 O2A        -1.8939    5.1976    1.2457 O.3       1 GTP        -0.8074
     13 O5'         0.0173    3.5130    1.4593 O.3       1 GTP        -0.5669
     14 C5'        -0.8811    2.4285    1.6206 C.3       1 GTP         0.1637
     15 C4'        -0.1994    1.3333    2.4288 C.3       1 GTP         0.1099
     16 O4'        -1.1285    0.2356    2.5840 O.3       1 GTP        -0.4100
     17 C3'         1.0324    0.7610    1.7344 C.3       1 GTP         0.0924
     18 O3'         1.9175    0.2377    2.7247 O.3       1 GTP        -0.5892
     19 C2'         0.4468   -0.3802    0.9263 C.3       1 GTP         0.0635
     20 O2'         1.3993   -1.3703    0.5961 O.3       1 GTP        -0.5749
     21 C1'        -0.6159   -0.9100    1.8769 C.3       1 GTP         0.2557
     22 N9         -1.7127   -1.6108    1.2130 N.pl3     1 GTP        -0.2236
     23 C8         -1.7695   -2.9586    0.9546 C.ar      1 GTP         0.4148
     24 N7         -2.8846   -3.3047    0.3416 N.2       1 GTP        -0.5808
     25 C5         -3.5626   -2.1296    0.2052 C.ar      1 GTP         0.1777
     26 C6         -4.8477   -1.8989   -0.3942 C.ar      1 GTP         0.6505
     27 O6         -5.5373   -2.7819   -0.8881 O.2       1 GTP        -0.5947
     28 N1         -5.1895   -0.5407   -0.3318 N.pl3     1 GTP        -0.5110
     29 C2         -4.3899    0.4774    0.2398 C.ar      1 GTP         0.6844
     30 N2         -4.9233    1.7390    0.1898 N.pl3     1 GTP        -0.8920
     31 N3         -3.2159    0.2369    0.7822 N.2       1 GTP        -0.6705
     32 C4         -2.8678   -1.0679    0.7322 C.ar      1 GTP         0.1220
     33 HOG2        1.0243    4.2757   -5.1032 H         1 GTP         0.5087
     34 HOG3       -2.2438    2.6971   -6.3130 H         1 GTP         0.5087
     35 HOB2        1.5995    5.3587   -1.9056 H         1 GTP         0.5092
     36 HOA2       -1.9540    5.4950    2.1784 H         1 GTP         0.5041
     37 H5'        -1.7774    2.7844    2.1388 H         1 GTP         0.0584
     38 H5''       -1.1657    2.0536    0.6322 H         1 GTP         0.0584
     39 H4'         0.0402    1.7079    3.4343 H         1 GTP         0.1192
     40 H3'         1.5907    1.4859    1.1353 H         1 GTP         0.0735
     41 HO3'        2.6839   -0.1150    2.2479 H         1 GTP         0.4308
     42 H2'        -0.0017    0.0018    0.0005 H         1 GTP         0.0746
     43 HO2'        2.0953   -0.9375    0.0709 H         1 GTP         0.4224
     44 H1'        -0.1998   -1.6319    2.6178 H         1 GTP         0.1162
     45 H8         -0.9713   -3.6323    1.2352 H         1 GTP         0.0741
     46 HN1        -6.0831   -0.2651   -0.7290 H         1 GTP         0.3343
     47 HN21       -4.3984    2.4878    0.5788 H         1 GTP         0.4229
     48 HN22       -5.8145    1.8572   -0.2335 H         1 GTP         0.4229
@<TRIPOS>BOND
     1    1    2 2
     2    1    3 1
     3    1    4 1
     4    1    5 1
     5    3   33 1
     6    4   34 1
     7    5    6 1
     8    6    7 2
     9    6    8 1
    10    6    9 1
    11    8   35 1
    12    9   10 1
    13   10   11 2
    14   10   12 1
    15   10   13 1
    16   12   36 1
    17   13   14 1
    18   14   15 1
    19   14   37 1
    20   14   38 1
    21   15   16 1
    22   15   17 1
    23   15   39 1
    24   16   21 1
    25   17   18 1
    26   17   19 1
    27   17   40 1
    28   18   41 1
    29   19   20 1
    30   19   21 1
    31   19   42 1
    32   20   43 1
    33   21   22 1
    34   21   44 1
    35   22   23 ar
    36   22   32 ar
    37   23   24 ar
    38   23   45 1
    39   24   25 ar
    40   25   26 ar
    41   25   32 ar
    42   26   27 2
    43   26   28 ar
    44   28   29 ar
    45   28   46 1
    46   29   30 1
    47   29   31 ar
    48   30   47 1
    49   30   48 1
    50   31   32 ar
@<TRIPOS>SUBSTRUCTURE
     1 GTP         1 GROUP 0 A     ****
@<TRIPOS>MOLECULE
[[5-(2-amino-6-oxo-1~{H}-purin-9-yl)-3,4-dihydroxy-tetrahydrofuran-2-yl]methoxy-hydroxy-phosphoryl] phosphono hydrogen phosphate
   48    50     1     0     0
SMALL
USER_CHARGES

@<TRIPOS>ATOM
      1 PG         -0.8739    2.9447   -3.4487 P.3       1 GTP         1.8160
      2 O1G        -2.1868    2.7723   -2.7432 O.2       1 GTP        -0.8277
      3 O2G         0.1046    1.6591   -3.4111 O.3       1 GTP        -0.7983
      4 O3G        -0.9808    3.2908   -5.0239 O.3       1 GTP        -0.7983
      5 O3B         0.0483    4.1405   -2.8732 O.3       1 GTP        -0.8272
      6 PB          0.6870    4.4007   -1.4122 P.3       1 GTP         1.9429
      7 O1B         1.6228    3.3273   -0.9397 O.2       1 GTP        -0.8481
      8 O2B         1.3345    5.8772   -1.5296 O.3       1 GTP        -0.8171
      9 O3A        -0.5977    4.6720   -0.4728 O.3       1 GTP        -0.8114
     10 PA         -0.7172    5.0023    1.1041 P.3       1 GTP         1.8017
     11 O1A        -0.0100    6.2579    1.5245 O.2       1 GTP        -0.7846
     12 O2A        -2.3148    5.0188    1.3585 O.3       1 GTP        -0.8074
     13 O5'        -0.2067    3.6555    1.8414 O.3       1 GTP        -0.5669
     14 C5'        -0.8811    2.4285    1.6206 C.3       1 GTP         0.1637
     15 C4'        -0.1994    1.3333    2.4288 C.3       1 GTP         0.1099
     16 O4'        -1.1285    0.2356    2.5840 O.3       1 GTP        -0.4100
     17 C3'         1.0324    0.7610    1.7344 C.3       1 GTP         0.0924
     18 O3'         1.9175    0.2377    2.7247 O.3       1 GTP        -0.5892
     19 C2'         0.4468   -0.3802    0.9263 C.3       1 GTP         0.0635
     20 O2'         1.3993   -1.3703    0.5961 O.3       1 GTP        -0.5749
     21 C1'        -0.6159   -0.9100    1.8769 C.3       1 GTP         0.2557
     22 N9         -1.7127   -1.6108    1.2130 N.pl3     1 GTP        -0.2236
     23 C8         -1.7695   -2.9586    0.9546 C.ar      1 GTP         0.4148
     24 N7         -2.8846   -3.3047    0.3416 N.2       1 GTP        -0.5808
     25 C5         -3.5626   -2.1296    0.2052 C.ar      1 GTP         0.1777
     26 C6         -4.8477   -1.8989   -0.3942 C.ar      1 GTP         0.6505
     27 O6         -5.5373   -2.7819   -0.8881 O.2       1 GTP        -0.5947
     28 N1         -5.1895   -0.5407   -0.3318 N.pl3     1 GTP        -0.5110
     29 C2         -4.3899    0.4774    0.2398 C.ar      1 GTP         0.6844
     30 N2         -4.9233    1.7390    0.1898 N.pl3     1 GTP        -0.8920
     31 N3         -3.2159    0.2369    0.7822 N.2       1 GTP        -0.6705
     32 C4         -2.8678   -1.0679    0.7322 C.ar      1 GTP         0.1220
     33 HOG2        0.4051    1.3159   -2.5428 H         1 GTP         0.5087
     34 HOG3       -1.4497    4.1069   -5.3000 H         1 GTP         0.5087
     35 HOB2        2.0954    6.0152   -2.1331 H         1 GTP         0.5092
     36 HOA2       -2.6479    5.1335    2.2739 H         1 GTP         0.5041
     37 H5'        -1.9258    2.5374    1.9293 H         1 GTP         0.0584
     38 H5''       -0.8476    2.1925    0.5521 H         1 GTP         0.0584
     39 H4'         0.0402    1.7079    3.4343 H         1 GTP         0.1192
     40 H3'         1.5907    1.4859    1.1353 H         1 GTP         0.0735
     41 HO3'        2.6839   -0.1150    2.2479 H         1 GTP         0.4308
     42 H2'        -0.0017    0.0018    0.0005 H         1 GTP         0.0746
     43 HO2'        2.0953   -0.9375    0.0709 H         1 GTP         0.4224
     44 H1'        -0.1998   -1.6319    2.6178 H         1 GTP         0.1162
     45 H8         -0.9713   -3.6323    1.2352 H         1 GTP         0.0741
     46 HN1        -6.0831   -0.2651   -0.7290 H         1 GTP         0.3343
     47 HN21       -4.3984    2.4878    0.5788 H         1 GTP         0.4229
     48 HN22       -5.8145    1.8572   -0.2335 H         1 GTP         0.4229
@<TRIPOS>BOND
     1    1    2 2
     2    1    3 1
     3    1    4 1
     4    1    5 1
     5    3   33 1
     6    4   34 1
     7    5    6 1
     8    6    7 2
     9    6    8 1
    10    6    9 1
    11    8   35 1
    12    9   10 1
    13   10   11 2
    14   10   12 1
    15   10   13 1
    16   12   36 1
    17   13   14 1
    18   14   15 1
    19   14   37 1
    20   14   38 1
    21   15   16 1
    22   15   17 1
    23   15   39 1
    24   16   21 1
    25   17   18 1
    26   17   19 1
    27   17   40 1
    28   18   41 1
    29   19   20 1
    30   19   21 1
    31   19   42 1
    32   20   43 1
    33   21   22 1
    34   21   44 1
    35   22   23 ar
    36   22   32 ar
    37   23   24 ar
    38   23   45 1
    39   24   25 ar
    40   25   26 ar
    41   25   32 ar
    42   26   27 2
    43   26   28 ar
    44   28   29 ar
    45   28   46 1
    46   29   30 1
    47   29   31 ar
    48   30   47 1
    49   30   48 1
    50   31   32 ar
@<TRIPOS>SUBSTRUCTURE
     1 GTP         1 GROUP 0 A     ****
@<TRIPOS>MOLECULE
[[5-(2-amino-6-oxo-1~{H}-purin-9-yl)-3,4-dihydroxy-tetrahydrofuran-2-yl]methoxy-hydroxy-phosphoryl] phosphono hydrogen phosphate
   48    50     1     0     0
SMALL
USER_CHARGES

@<TRIPOS>ATOM
      1 PG          0.8315    7.1615    0.8271 P.3       1 GTP         1.8160
      2 O1G         0.6028    6.2694   -0.3573 O.2       1 GTP        -0.8277
      3 O2G         2.0340    6.7120    1.8087 O.3       1 GTP        -0.7983
      4 O3G         1.1896    8.6970    0.4713 O.3       1 GTP        -0.7983
      5 O3B        -0.4363    7.3021    1.8195 O.3       1 GTP        -0.8272
      6 PB         -1.2587    6.2081    2.6780 P.3       1 GTP         1.9429
      7 O1B        -0.4369    5.4577    3.6843 O.2       1 GTP        -0.8481
      8 O2B        -2.4986    7.0468    3.2882 O.3       1 GTP        -0.8171
      9 O3A        -1.9858    5.3044    1.5550 O.3       1 GTP        -0.8114
     10 PA         -2.9681    4.0282    1.6824 P.3       1 GTP         1.8017
     11 O1A        -4.2362    4.3013    2.4378 O.2       1 GTP        -0.7846
     12 O2A        -3.1908    3.5777    0.1446 O.3       1 GTP        -0.8074
     13 O5'        -2.0398    2.8621    2.3123 O.3       1 GTP        -0.5669
     14 C5'        -0.8811    2.4285    1.6206 C.3       1 GTP         0.1637
     15 C4'        -0.1994    1.3333    2.4288 C.3       1 GTP         0.1099
     16 O4'        -1.1285    0.2356    2.5840 O.3       1 GTP        -0.4100
     17 C3'         1.0324    0.7610    1.7344 C.3       1 GTP         0.0924
     18 O3'         1.9175    0.2377    2.7247 O.3       1 GTP        -0.5892
     19 C2'         0.4468   -0.3802    0.9263 C.3       1 GTP         0.0635
     20 O2'         1.3993   -1.3703    0.5961 O.3       1 GTP        -0.5749
     21 C1'        -0.6159   -0.9100    1.8769 C.3       1 GTP         0.2557
     22 N9         -1.7127   -1.6108    1.2130 N.pl3     1 GTP        -0.2236
     23 C8         -2.5489   -1.0812    0.2607 C.ar      1 GTP         0.4148
     24 N7         -3.4468   -1.9516   -0.1576 N.2       1 GTP        -0.5808
     25 C5         -3.1696   -3.0787    0.5579 C.ar      1 GTP         0.1777
     26 C6         -3.8307   -4.3536    0.5166 C.ar      1 GTP         0.6505
     27 O6         -4.7841   -4.6033   -0.2101 O.2       1 GTP        -0.5947
     28 N1         -3.2356   -5.2522    1.4132 N.pl3     1 GTP        -0.5110
     29 C2         -2.1338   -4.9602    2.2517 C.ar      1 GTP         0.6844
     30 N2         -1.7156   -5.9923    3.0507 N.pl3     1 GTP        -0.8920
     31 N3         -1.5477   -3.7827    2.2686 N.2       1 GTP        -0.6705
     32 C4         -2.1070   -2.9013    1.4104 C.ar      1 GTP         0.1220
     33 HOG2        1.9888    5.8345    2.2445 H         1 GTP         0.5087
     34 HOG3        0.5439    9.2287   -0.0410 H         1 GTP         0.5087
     35 HOB2       -2.3168    7.7535    3.9437 H         1 GTP         0.5092
     36 HOA2       -3.7078    2.7653   -0.0413 H         1 GTP         0.5041
     37 H5'        -1.1763    2.0500    0.6366 H         1 GTP         0.0584
     38 H5''       -0.2075    3.2812    1.4874 H         1 GTP         0.0584
     39 H4'         0.0402    1.7079    3.4343 H         1 GTP         0.1192
     40 H3'         1.5907    1.4859    1.1353 H         1 GTP         0.0735
     41 HO3'        2.6839   -0.1150    2.2479 H         1 GTP         0.4308
     42 H2'        -0.0017    0.0018    0.0005 H         1 GTP         0.0746
     43 HO2'        2.0953   -0.9375    0.0709 H         1 GTP         0.4224
     44 H1'        -0.1998   -1.6319    2.6178 H         1 GTP         0.1162
     45 H8         -2.4545   -0.0604   -0.0844 H         1 GTP         0.0741
     46 HN1        -3.6270   -6.1884    1.4651 H         1 GTP         0.3343
     47 HN21       -0.9445   -5.8354    3.6574 H         1 GTP         0.4229
     48 HN22       -2.1993   -6.8585    2.9930 H         1 GTP         0.4229
@<TRIPOS>BOND
     1    1    2 2
     2    1    3 1
     3    1    4 1
     4    1    5 1
     5    3   33 1
     6    4   34 1
     7    5    6 1
     8    6    7 2
     9    6    8 1
    10    6    9 1
    11    8   35 1
    12    9   10 1
    13   10   11 2
    14   10   12 1
    15   10   13 1
    16   12   36 1
    17   13   14 1
    18   14   15 1
    19   14   37 1
    20   14   38 1
    21   15   16 1
    22   15   17 1
    23   15   39 1
    24   16   21 1
    25   17   18 1
    26   17   19 1
    27   17   40 1
    28   18   41 1
    29   19   20 1
    30   19   21 1
    31   19   42 1
    32   20   43 1
    33   21   22 1
    34   21   44 1
    35   22   23 ar
    36   22   32 ar
    37   23   24 ar
    38   23   45 1
    39   24   25 ar
    40   25   26 ar
    41   25   32 ar
    42   26   27 2
    43   26   28 ar
    44   28   29 ar
    45   28   46 1
    46   29   30 1
    47   29   31 ar
    48   30   47 1
    49   30   48 1
    50   31   32 ar
@<TRIPOS>SUBSTRUCTURE
     1 GTP         1 GROUP 0 A     ****
@<TRIPOS>MOLECULE
[[5-(2-amino-6-oxo-1~{H}-purin-9-yl)-3,4-dihydroxy-tetrahydrofuran-2-yl]methoxy-hydroxy-phosphoryl] phosphono hydrogen phosphate
   48    50     1     0     0
SMALL
USER_CHARGES

@<TRIPOS>ATOM
      1 PG         -0.0707    8.0214    2.4855 P.3       1 GTP         1.8160
      2 O1G        -0.8530    9.0279    3.2766 O.2       1 GTP        -0.8277
      3 O2G         1.3773    8.5215    1.9709 O.3       1 GTP        -0.7983
      4 O3G         0.2612    6.6440    3.2636 O.3       1 GTP        -0.7983
      5 O3B        -0.7985    7.5125    1.1353 O.3       1 GTP        -0.8272
      6 PB         -2.2059    6.7585    0.8888 P.3       1 GTP         1.9429
      7 O1B        -3.4113    7.5153    1.3634 O.2       1 GTP        -0.8481
      8 O2B        -2.1879    6.4106   -0.6897 O.3       1 GTP        -0.8171
      9 O3A        -1.9858    5.3044    1.5550 O.3       1 GTP        -0.8114
     10 PA         -2.9681    4.0282    1.6824 P.3       1 GTP         1.8017
     11 O1A        -4.2362    4.3013    2.4378 O.2       1 GTP        -0.7846
     12 O2A        -3.1908    3.5777    0.1446 O.3       1 GTP        -0.8074
     13 O5'        -2.0398    2.8621    2.3123 O.3       1 GTP        -0.5669
     14 C5'        -0.8811    2.4285    1.6206 C.3       1 GTP         0.1637
     15 C4'        -0.1994    1.3333    2.4288 C.3       1 GTP         0.1099
     16 O4'        -1.1285    0.2356    2.5840 O.3       1 GTP        -0.4100
     17 C3'         1.0324    0.7610    1.7344 C.3       1 GTP         0.0924
     18 O3'         1.9175    0.2377    2.7247 O.3       1 GTP        -0.5892
     19 C2'         0.4468   -0.3802    0.9263 C.3       1 GTP         0.0635
     20 O2'         1.3993   -1.3703    0.5961 O.3       1 GTP        -0.5749
     21 C1'        -0.6159   -0.9100    1.8769 C.3       1 GTP         0.2557
     22 N9         -1.7127   -1.6108    1.2130 N.pl3     1 GTP        -0.2236
     23 C8         -2.8667   -1.0365    0.7385 C.ar      1 GTP         0.4148
     24 N7         -3.6757   -1.9196    0.1868 N.2       1 GTP        -0.5808
     25 C5         -3.0088   -3.1018    0.3164 C.ar      1 GTP         0.1777
     26 C6         -3.4148   -4.4130   -0.1079 C.ar      1 GTP         0.6505
     27 O6         -4.4752   -4.6480   -0.6732 O.2       1 GTP        -0.5947
     28 N1         -2.4377   -5.3653    0.2144 N.pl3     1 GTP        -0.5110
     29 C2         -1.2132   -5.0902    0.8680 C.ar      1 GTP         0.6844
     30 N2         -0.4066   -6.1772    1.0834 N.pl3     1 GTP        -0.8920
     31 N3         -0.8672   -3.8786    1.2457 N.2       1 GTP        -0.6705
     32 C4         -1.7966   -2.9451    0.9439 C.ar      1 GTP         0.1220
     33 HOG2        2.0471    8.7978    2.6320 H         1 GTP         0.5087
     34 HOG3       -0.4813    6.0908    3.5873 H         1 GTP         0.5087
     35 HOB2       -2.2127    7.1461   -1.3382 H         1 GTP         0.5092
     36 HOA2       -3.6542    4.1894   -0.4662 H         1 GTP         0.5041
     37 H5'        -1.1763    2.0500    0.6366 H         1 GTP         0.0584
     38 H5''       -0.2075    3.2812    1.4874 H         1 GTP         0.0584
     39 H4'         0.0402    1.7079    3.4343 H         1 GTP         0.1192
     40 H3'         1.5907    1.4859    1.1353 H         1 GTP         0.0735
     41 HO3'        2.6839   -0.1150    2.2479 H         1 GTP         0.4308
     42 H2'        -0.0017    0.0018    0.0005 H         1 GTP         0.0746
     43 HO2'        2.0953   -0.9375    0.0709 H         1 GTP         0.4224
     44 H1'        -0.1998   -1.6319    2.6178 H         1 GTP         0.1162
     45 H8         -3.0589    0.0244    0.8247 H         1 GTP         0.0741
     46 HN1        -2.6238   -6.3307   -0.0420 H         1 GTP         0.3343
     47 HN21        0.4646   -6.0341    1.5394 H         1 GTP         0.4229
     48 HN22       -0.7235   -7.0673    0.7753 H         1 GTP         0.4229
@<TRIPOS>BOND
     1    1    2 2
     2    1    3 1
     3    1    4 1
     4    1    5 1
     5    3   33 1
     6    4   34 1
     7    5    6 1
     8    6    7 2
     9    6    8 1
    10    6    9 1
    11    8   35 1
    12    9   10 1
    13   10   11 2
    14   10   12 1
    15   10   13 1
    16   12   36 1
    17   13   14 1
    18   14   15 1
    19   14   37 1
    20   14   38 1
    21   15   16 1
    22   15   17 1
    23   15   39 1
    24   16   21 1
    25   17   18 1
    26   17   19 1
    27   17   40 1
    28   18   41 1
    29   19   20 1
    30   19   21 1
    31   19   42 1
    32   20   43 1
    33   21   22 1
    34   21   44 1
    35   22   23 ar
    36   22   32 ar
    37   23   24 ar
    38   23   45 1
    39   24   25 ar
    40   25   26 ar
    41   25   32 ar
    42   26   27 2
    43   26   28 ar
    44   28   29 ar
    45   28   46 1
    46   29   30 1
    47   29   31 ar
    48   30   47 1
    49   30   48 1
    50   31   32 ar
@<TRIPOS>SUBSTRUCTURE
     1 GTP         1 GROUP 0 A     ****
@<TRIPOS>MOLECULE
[[5-(2-amino-6-oxo-1~{H}-purin-9-yl)-3,4-dihydroxy-tetrahydrofuran-2-yl]methoxy-hydroxy-phosphoryl] phosphono hydrogen phosphate
   48    50     1     0     0
SMALL
USER_CHARGES

@<TRIPOS>ATOM
      1 PG         -0.3263    3.0499   -4.0355 P.3       1 GTP         1.8160
      2 O1G         0.6132    2.2826   -3.1525 O.2       1 GTP        -0.8277
      3 O2G         0.3617    4.1912   -4.9497 O.3       1 GTP        -0.7983
      4 O3G        -1.1489    2.1574   -5.1029 O.3       1 GTP        -0.7983
      5 O3B        -1.4921    3.8456   -3.2485 O.3       1 GTP        -0.8272
      6 PB         -1.4356    5.0101   -2.1300 P.3       1 GTP         1.9429
      7 O1B        -0.7482    6.2682   -2.5726 O.2       1 GTP        -0.8481
      8 O2B        -2.9775    5.1892   -1.6787 O.3       1 GTP        -0.8171
      9 O3A        -0.7927    4.2773   -0.8431 O.3       1 GTP        -0.8114
     10 PA         -0.4423    4.8273    0.6350 P.3       1 GTP         1.8017
     11 O1A         0.5440    5.9589    0.6521 O.2       1 GTP        -0.7846
     12 O2A        -1.8939    5.1976    1.2457 O.3       1 GTP        -0.8074
     13 O5'         0.0173    3.5130    1.4593 O.3       1 GTP        -0.5669
     14 C5'        -0.8811    2.4285    1.6206 C.3       1 GTP         0.1637
     15 C4'        -0.1994    1.3333    2.4288 C.3       1 GTP         0.1099
     16 O4'        -1.1285    0.2356    2.5840 O.3       1 GTP        -0.4100
     17 C3'         1.0324    0.7610    1.7344 C.3       1 GTP         0.0924
     18 O3'         1.9175    0.2377    2.7247 O.3       1 GTP        -0.5892
     19 C2'         0.4468   -0.3802    0.9263 C.3       1 GTP         0.0635
     20 O2'         1.3993   -1.3703    0.5961 O.3       1 GTP        -0.5749
     21 C1'        -0.6159   -0.9100    1.8769 C.3       1 GTP         0.2557
     22 N9         -1.7127   -1.6108    1.2130 N.pl3     1 GTP        -0.2236
     23 C8         -2.0873   -2.9139    1.4324 C.ar      1 GTP         0.4148
     24 N7         -3.1135   -3.2727    0.6860 N.2       1 GTP        -0.5808
     25 C5         -3.4017   -2.1526   -0.0362 C.ar      1 GTP         0.1777
     26 C6         -4.4318   -1.9582   -1.0186 C.ar      1 GTP         0.6505
     27 O6         -5.2284   -2.8266   -1.3513 O.2       1 GTP        -0.5947
     28 N1         -4.3916   -0.6538   -1.5306 N.pl3     1 GTP        -0.5110
     29 C2         -3.4693    0.3474   -1.1439 C.ar      1 GTP         0.6844
     30 N2         -3.6143    1.5541   -1.7775 N.pl3     1 GTP        -0.8920
     31 N3         -2.5355    0.1410   -0.2407 N.2       1 GTP        -0.6705
     32 C4         -2.5574   -1.1117    0.2656 C.ar      1 GTP         0.1220
     33 HOG2        0.8437    4.9245   -4.5115 H         1 GTP         0.5087
     34 HOG3       -0.6521    1.6351   -5.7681 H         1 GTP         0.5087
     35 HOB2       -3.6251    5.5360   -2.3287 H         1 GTP         0.5092
     36 HOA2       -2.4143    5.9167    0.8287 H         1 GTP         0.5041
     37 H5'        -1.7774    2.7844    2.1388 H         1 GTP         0.0584
     38 H5''       -1.1657    2.0536    0.6322 H         1 GTP         0.0584
     39 H4'         0.0402    1.7079    3.4343 H         1 GTP         0.1192
     40 H3'         1.5907    1.4859    1.1353 H         1 GTP         0.0735
     41 HO3'        2.6839   -0.1150    2.2479 H         1 GTP         0.4308
     42 H2'        -0.0017    0.0018    0.0005 H         1 GTP         0.0746
     43 HO2'        2.0953   -0.9375    0.0709 H         1 GTP         0.4224
     44 H1'        -0.1998   -1.6319    2.6178 H         1 GTP         0.1162
     45 H8         -1.5757   -3.5474    2.1443 H         1 GTP         0.0741
     46 HN1        -5.0800   -0.4074   -2.2361 H         1 GTP         0.3343
     47 HN21       -2.9894    2.2891   -1.5392 H         1 GTP         0.4229
     48 HN22       -4.3387    1.6483   -2.4512 H         1 GTP         0.4229
@<TRIPOS>BOND
     1    1    2 2
     2    1    3 1
     3    1    4 1
     4    1    5 1
     5    3   33 1
     6    4   34 1
     7    5    6 1
     8    6    7 2
     9    6    8 1
    10    6    9 1
    11    8   35 1
    12    9   10 1
    13   10   11 2
    14   10   12 1
    15   10   13 1
    16   12   36 1
    17   13   14 1
    18   14   15 1
    19   14   37 1
    20   14   38 1
    21   15   16 1
    22   15   17 1
    23   15   39 1
    24   16   21 1
    25   17   18 1
    26   17   19 1
    27   17   40 1
    28   18   41 1
    29   19   20 1
    30   19   21 1
    31   19   42 1
    32   20   43 1
    33   21   22 1
    34   21   44 1
    35   22   23 ar
    36   22   32 ar
    37   23   24 ar
    38   23   45 1
    39   24   25 ar
    40   25   26 ar
    41   25   32 ar
    42   26   27 2
    43   26   28 ar
    44   28   29 ar
    45   28   46 1
    46   29   30 1
    47   29   31 ar
    48   30   47 1
    49   30   48 1
    50   31   32 ar
@<TRIPOS>SUBSTRUCTURE
     1 GTP         1 GROUP 0 A     ****
@<TRIPOS>MOLECULE
[[5-(2-amino-6-oxo-1~{H}-purin-9-yl)-3,4-dihydroxy-tetrahydrofuran-2-yl]methoxy-hydroxy-phosphoryl] phosphono hydrogen phosphate
   48    50     1     0     0
SMALL
USER_CHARGES

@<TRIPOS>ATOM
      1 PG         -4.1270    8.8436    1.7044 P.3       1 GTP         1.8160
      2 O1G        -3.2016    9.9617    2.0847 O.2       1 GTP        -0.8277
      3 O2G        -5.4252    8.6689    2.6510 O.3       1 GTP        -0.7983
      4 O3G        -4.7554    8.9473    0.2188 O.3       1 GTP        -0.7983
      5 O3B        -3.4502    7.3761    1.7137 O.3       1 GTP        -0.8272
      6 PB         -2.2059    6.7585    0.8888 P.3       1 GTP         1.9429
      7 O1B        -2.3768    6.7716   -0.6017 O.2       1 GTP        -0.8481
      8 O2B        -0.9280    7.5785    1.4434 O.3       1 GTP        -0.8171
      9 O3A        -1.9858    5.3044    1.5550 O.3       1 GTP        -0.8114
     10 PA         -2.9681    4.0282    1.6824 P.3       1 GTP         1.8017
     11 O1A        -4.2362    4.3013    2.4378 O.2       1 GTP        -0.7846
     12 O2A        -3.1908    3.5777    0.1446 O.3       1 GTP        -0.8074
     13 O5'        -2.0398    2.8621    2.3123 O.3       1 GTP        -0.5669
     14 C5'        -0.8811    2.4285    1.6206 C.3       1 GTP         0.1637
     15 C4'        -0.1994    1.3333    2.4288 C.3       1 GTP         0.1099
     16 O4'        -1.1285    0.2356    2.5840 O.3       1 GTP        -0.4100
     17 C3'         1.0324    0.7610    1.7344 C.3       1 GTP         0.0924
     18 O3'         1.9175    0.2377    2.7247 O.3       1 GTP        -0.5892
     19 C2'         0.4468   -0.3802    0.9263 C.3       1 GTP         0.0635
     20 O2'         1.3993   -1.3703    0.5961 O.3       1 GTP        -0.5749
     21 C1'        -0.6159   -0.9100    1.8769 C.3       1 GTP         0.2557
     22 N9         -1.7127   -1.6108    1.2130 N.pl3     1 GTP        -0.2236
     23 C8         -2.8667   -1.0365    0.7385 C.ar      1 GTP         0.4148
     24 N7         -3.6757   -1.9196    0.1868 N.2       1 GTP        -0.5808
     25 C5         -3.0088   -3.1018    0.3164 C.ar      1 GTP         0.1777
     26 C6         -3.4148   -4.4130   -0.1079 C.ar      1 GTP         0.6505
     27 O6         -4.4752   -4.6480   -0.6732 O.2       1 GTP        -0.5947
     28 N1         -2.4377   -5.3653    0.2144 N.pl3     1 GTP        -0.5110
     29 C2         -1.2132   -5.0902    0.8680 C.ar      1 GTP         0.6844
     30 N2         -0.4066   -6.1772    1.0834 N.pl3     1 GTP        -0.8920
     31 N3         -0.8672   -3.8786    1.2457 N.2       1 GTP        -0.6705
     32 C4         -1.7966   -2.9451    0.9439 C.ar      1 GTP         0.1220
     33 HOG2       -6.0584    9.4136    2.7312 H         1 GTP         0.5087
     34 HOG3       -4.1501    8.9594   -0.5530 H         1 GTP         0.5087
     35 HOB2       -0.0302    7.3128    1.1511 H         1 GTP         0.5092
     36 HOA2       -3.6542    4.1894   -0.4662 H         1 GTP         0.5041
     37 H5'        -1.1763    2.0500    0.6366 H         1 GTP         0.0584
     38 H5''       -0.2075    3.2812    1.4874 H         1 GTP         0.0584
     39 H4'         0.0402    1.7079    3.4343 H         1 GTP         0.1192
     40 H3'         1.5907    1.4859    1.1353 H         1 GTP         0.0735
     41 HO3'        2.6839   -0.1150    2.2479 H         1 GTP         0.4308
     42 H2'        -0.0017    0.0018    0.0005 H         1 GTP         0.0746
     43 HO2'        2.0953   -0.9375    0.0709 H         1 GTP         0.4224
     44 H1'        -0.1998   -1.6319    2.6178 H         1 GTP         0.1162
     45 H8         -3.0589    0.0244    0.8247 H         1 GTP         0.0741
     46 HN1        -2.6238   -6.3307   -0.0420 H         1 GTP         0.3343
     47 HN21        0.4646   -6.0341    1.5394 H         1 GTP         0.4229
     48 HN22       -0.7235   -7.0673    0.7753 H         1 GTP         0.4229
@<TRIPOS>BOND
     1    1    2 2
     2    1    3 1
     3    1    4 1
     4    1    5 1
     5    3   33 1
     6    4   34 1
     7    5    6 1
     8    6    7 2
     9    6    8 1
    10    6    9 1
    11    8   35 1
    12    9   10 1
    13   10   11 2
    14   10   12 1
    15   10   13 1
    16   12   36 1
    17   13   14 1
    18   14   15 1
    19   14   37 1
    20   14   38 1
    21   15   16 1
    22   15   17 1
    23   15   39 1
    24   16   21 1
    25   17   18 1
    26   17   19 1
    27   17   40 1
    28   18   41 1
    29   19   20 1
    30   19   21 1
    31   19   42 1
    32   20   43 1
    33   21   22 1
    34   21   44 1
    35   22   23 ar
    36   22   32 ar
    37   23   24 ar
    38   23   45 1
    39   24   25 ar
    40   25   26 ar
    41   25   32 ar
    42   26   27 2
    43   26   28 ar
    44   28   29 ar
    45   28   46 1
    46   29   30 1
    47   29   31 ar
    48   30   47 1
    49   30   48 1
    50   31   32 ar
@<TRIPOS>SUBSTRUCTURE
     1 GTP         1 GROUP 0 A     ****
@<TRIPOS>MOLECULE
[[5-(2-amino-6-oxo-1~{H}-purin-9-yl)-3,4-dihydroxy-tetrahydrofuran-2-yl]methoxy-hydroxy-phosphoryl] phosphono hydrogen phosphate
   48    50     1     0     0
SMALL
USER_CHARGES

@<TRIPOS>ATOM
      1 PG         -0.3263    3.0499   -4.0355 P.3       1 GTP         1.8160
      2 O1G         0.5810    3.9194   -4.8551 O.2       1 GTP        -0.8277
      3 O2G        -1.1307    1.9179   -4.8620 O.3       1 GTP        -0.7983
      4 O3G         0.4021    2.2122   -2.8606 O.3       1 GTP        -0.7983
      5 O3B        -1.4921    3.8456   -3.2485 O.3       1 GTP        -0.8272
      6 PB         -1.4356    5.0101   -2.1300 P.3       1 GTP         1.9429
      7 O1B        -0.7482    6.2682   -2.5726 O.2       1 GTP        -0.8481
      8 O2B        -2.9775    5.1892   -1.6787 O.3       1 GTP        -0.8171
      9 O3A        -0.7927    4.2773   -0.8431 O.3       1 GTP        -0.8114
     10 PA         -0.4423    4.8273    0.6350 P.3       1 GTP         1.8017
     11 O1A         0.5440    5.9589    0.6521 O.2       1 GTP        -0.7846
     12 O2A        -1.8939    5.1976    1.2457 O.3       1 GTP        -0.8074
     13 O5'         0.0173    3.5130    1.4593 O.3       1 GTP        -0.5669
     14 C5'        -0.8811    2.4285    1.6206 C.3       1 GTP         0.1637
     15 C4'        -0.1994    1.3333    2.4288 C.3       1 GTP         0.1099
     16 O4'        -1.1285    0.2356    2.5840 O.3       1 GTP        -0.4100
     17 C3'         1.0324    0.7610    1.7344 C.3       1 GTP         0.0924
     18 O3'         1.9175    0.2377    2.7247 O.3       1 GTP        -0.5892
     19 C2'         0.4468   -0.3802    0.9263 C.3       1 GTP         0.0635
     20 O2'         1.3993   -1.3703    0.5961 O.3       1 GTP        -0.5749
     21 C1'        -0.6159   -0.9100    1.8769 C.3       1 GTP         0.2557
     22 N9         -1.7127   -1.6108    1.2130 N.pl3     1 GTP        -0.2236
     23 C8         -2.8667   -1.0365    0.7385 C.ar      1 GTP         0.4148
     24 N7         -3.6757   -1.9196    0.1868 N.2       1 GTP        -0.5808
     25 C5         -3.0088   -3.1018    0.3164 C.ar      1 GTP         0.1777
     26 C6         -3.4148   -4.4130   -0.1079 C.ar      1 GTP         0.6505
     27 O6         -4.4752   -4.6480   -0.6732 O.2       1 GTP        -0.5947
     28 N1         -2.4377   -5.3653    0.2144 N.pl3     1 GTP        -0.5110
     29 C2         -1.2132   -5.0902    0.8680 C.ar      1 GTP         0.6844
     30 N2         -0.4066   -6.1772    1.0834 N.pl3     1 GTP        -0.8920
     31 N3         -0.8672   -3.8786    1.2457 N.2       1 GTP        -0.6705
     32 C4         -1.7966   -2.9451    0.9439 C.ar      1 GTP         0.1220
     33 HOG2       -0.6229    1.2403   -5.3570 H         1 GTP         0.5087
     34 HOG3        0.8802    2.6995   -2.1563 H         1 GTP         0.5087
     35 HOB2       -3.6251    5.5360   -2.3287 H         1 GTP         0.5092
     36 HOA2       -2.4143    5.9167    0.8287 H         1 GTP         0.5041
     37 H5'        -1.7774    2.7844    2.1388 H         1 GTP         0.0584
     38 H5''       -1.1657    2.0536    0.6322 H         1 GTP         0.0584
     39 H4'         0.0402    1.7079    3.4343 H         1 GTP         0.1192
     40 H3'         1.5907    1.4859    1.1353 H         1 GTP         0.0735
     41 HO3'        2.6839   -0.1150    2.2479 H         1 GTP         0.4308
     42 H2'        -0.0017    0.0018    0.0005 H         1 GTP         0.0746
     43 HO2'        2.0953   -0.9375    0.0709 H         1 GTP         0.4224
     44 H1'        -0.1998   -1.6319    2.6178 H         1 GTP         0.1162
     45 H8         -3.0589    0.0244    0.8247 H         1 GTP         0.0741
     46 HN1        -2.6238   -6.3307   -0.0420 H         1 GTP         0.3343
     47 HN21        0.4646   -6.0341    1.5394 H         1 GTP         0.4229
     48 HN22       -0.7235   -7.0673    0.7753 H         1 GTP         0.4229
@<TRIPOS>BOND
     1    1    2 2
     2    1    3 1
     3    1    4 1
     4    1    5 1
     5    3   33 1
     6    4   34 1
     7    5    6 1
     8    6    7 2
     9    6    8 1
    10    6    9 1
    11    8   35 1
    12    9   10 1
    13   10   11 2
    14   10   12 1
    15   10   13 1
    16   12   36 1
    17   13   14 1
    18   14   15 1
    19   14   37 1
    20   14   38 1
    21   15   16 1
    22   15   17 1
    23   15   39 1
    24   16   21 1
    25   17   18 1
    26   17   19 1
    27   17   40 1
    28   18   41 1
    29   19   20 1
    30   19   21 1
    31   19   42 1
    32   20   43 1
    33   21   22 1
    34   21   44 1
    35   22   23 ar
    36   22   32 ar
    37   23   24 ar
    38   23   45 1
    39   24   25 ar
    40   25   26 ar
    41   25   32 ar
    42   26   27 2
    43   26   28 ar
    44   28   29 ar
    45   28   46 1
    46   29   30 1
    47   29   31 ar
    48   30   47 1
    49   30   48 1
    50   31   32 ar
@<TRIPOS>SUBSTRUCTURE
     1 GTP         1 GROUP 0 A     ****
@<TRIPOS>MOLECULE
[[5-(2-amino-6-oxo-1~{H}-purin-9-yl)-3,4-dihydroxy-tetrahydrofuran-2-yl]methoxy-hydroxy-phosphoryl] phosphono hydrogen phosphate
   48    50     1     0     0
SMALL
USER_CHARGES

@<TRIPOS>ATOM
      1 PG          0.0044    2.3540   -2.8106 P.3       1 GTP         1.8160
      2 O1G        -1.0966    1.9664   -3.7534 O.2       1 GTP        -0.8277
      3 O2G         0.7545    1.1226   -2.0808 O.3       1 GTP        -0.7983
      4 O3G         1.2157    3.1917   -3.4766 O.3       1 GTP        -0.7983
      5 O3B        -0.4606    3.2965   -1.5830 O.3       1 GTP        -0.8272
      6 PB         -1.1406    4.7616   -1.5473 P.3       1 GTP         1.9429
      7 O1B        -0.3254    5.8443   -2.1909 O.2       1 GTP        -0.8481
      8 O2B        -2.6042    4.5253   -2.1916 O.3       1 GTP        -0.8171
      9 O3A        -1.4932    4.9848    0.0124 O.3       1 GTP        -0.8114
     10 PA         -0.5527    5.0214    1.3254 P.3       1 GTP         1.8017
     11 O1A         0.4988    6.0924    1.2989 O.2       1 GTP        -0.7846
     12 O2A        -1.6150    5.1587    2.5377 O.3       1 GTP        -0.8074
     13 O5'         0.0173    3.5130    1.4593 O.3       1 GTP        -0.5669
     14 C5'        -0.8811    2.4285    1.6206 C.3       1 GTP         0.1637
     15 C4'        -0.1994    1.3333    2.4288 C.3       1 GTP         0.1099
     16 O4'        -1.1285    0.2356    2.5840 O.3       1 GTP        -0.4100
     17 C3'         1.0324    0.7610    1.7344 C.3       1 GTP         0.0924
     18 O3'         1.9175    0.2377    2.7247 O.3       1 GTP        -0.5892
     19 C2'         0.4468   -0.3802    0.9263 C.3       1 GTP         0.0635
     20 O2'         1.3993   -1.3703    0.5961 O.3       1 GTP        -0.5749
     21 C1'        -0.6159   -0.9100    1.8769 C.3       1 GTP         0.2557
     22 N9         -1.7127   -1.6108    1.2130 N.pl3     1 GTP        -0.2236
     23 C8         -2.0873   -2.9139    1.4324 C.ar      1 GTP         0.4148
     24 N7         -3.1135   -3.2727    0.6860 N.2       1 GTP        -0.5808
     25 C5         -3.4017   -2.1526   -0.0362 C.ar      1 GTP         0.1777
     26 C6         -4.4318   -1.9582   -1.0186 C.ar      1 GTP         0.6505
     27 O6         -5.2284   -2.8266   -1.3513 O.2       1 GTP        -0.5947
     28 N1         -4.3916   -0.6538   -1.5306 N.pl3     1 GTP        -0.5110
     29 C2         -3.4693    0.3474   -1.1439 C.ar      1 GTP         0.6844
     30 N2         -3.6143    1.5541   -1.7775 N.pl3     1 GTP        -0.8920
     31 N3         -2.5355    0.1410   -0.2407 N.2       1 GTP        -0.6705
     32 C4         -2.5574   -1.1117    0.2656 C.ar      1 GTP         0.1220
     33 HOG2        1.2105    0.4508   -2.6310 H         1 GTP         0.5087
     34 HOG3        1.0199    4.0546   -3.8998 H         1 GTP         0.5087
     35 HOB2       -3.2473    5.2659   -2.1933 H         1 GTP         0.5092
     36 HOA2       -1.2863    5.1327    3.4614 H         1 GTP         0.5041
     37 H5'        -1.7774    2.7844    2.1388 H         1 GTP         0.0584
     38 H5''       -1.1657    2.0536    0.6322 H         1 GTP         0.0584
     39 H4'         0.0402    1.7079    3.4343 H         1 GTP         0.1192
     40 H3'         1.5907    1.4859    1.1353 H         1 GTP         0.0735
     41 HO3'        2.6839   -0.1150    2.2479 H         1 GTP         0.4308
     42 H2'        -0.0017    0.0018    0.0005 H         1 GTP         0.0746
     43 HO2'        2.0953   -0.9375    0.0709 H         1 GTP         0.4224
     44 H1'        -0.1998   -1.6319    2.6178 H         1 GTP         0.1162
     45 H8         -1.5757   -3.5474    2.1443 H         1 GTP         0.0741
     46 HN1        -5.0800   -0.4074   -2.2361 H         1 GTP         0.3343
     47 HN21       -2.9894    2.2891   -1.5392 H         1 GTP         0.4229
     48 HN22       -4.3387    1.6483   -2.4512 H         1 GTP         0.4229
@<TRIPOS>BOND
     1    1    2 2
     2    1    3 1
     3    1    4 1
     4    1    5 1
     5    3   33 1
     6    4   34 1
     7    5    6 1
     8    6    7 2
     9    6    8 1
    10    6    9 1
    11    8   35 1
    12    9   10 1
    13   10   11 2
    14   10   12 1
    15   10   13 1
    16   12   36 1
    17   13   14 1
    18   14   15 1
    19   14   37 1
    20   14   38 1
    21   15   16 1
    22   15   17 1
    23   15   39 1
    24   16   21 1
    25   17   18 1
    26   17   19 1
    27   17   40 1
    28   18   41 1
    29   19   20 1
    30   19   21 1
    31   19   42 1
    32   20   43 1
    33   21   22 1
    34   21   44 1
    35   22   23 ar
    36   22   32 ar
    37   23   24 ar
    38   23   45 1
    39   24   25 ar
    40   25   26 ar
    41   25   32 ar
    42   26   27 2
    43   26   28 ar
    44   28   29 ar
    45   28   46 1
    46   29   30 1
    47   29   31 ar
    48   30   47 1
    49   30   48 1
    50   31   32 ar
@<TRIPOS>SUBSTRUCTURE
     1 GTP         1 GROUP 0 A     ****
@<TRIPOS>MOLECULE
[[5-(2-amino-6-oxo-1~{H}-purin-9-yl)-3,4-dihydroxy-tetrahydrofuran-2-yl]methoxy-hydroxy-phosphoryl] phosphono hydrogen phosphate
   48    50     1     0     0
SMALL
USER_CHARGES

@<TRIPOS>ATOM
      1 PG         -0.2328    8.9349    0.6171 P.3       1 GTP         1.8160
      2 O1G        -0.1474    9.0681   -0.8749 O.2       1 GTP        -0.8277
      3 O2G         1.1680    9.0967    1.4065 O.3       1 GTP        -0.7983
      4 O3G        -1.2023   10.0022    1.3475 O.3       1 GTP        -0.7983
      5 O3B        -0.7985    7.5125    1.1353 O.3       1 GTP        -0.8272
      6 PB         -2.2059    6.7585    0.8888 P.3       1 GTP         1.9429
      7 O1B        -3.4113    7.5153    1.3634 O.2       1 GTP        -0.8481
      8 O2B        -2.1879    6.4106   -0.6897 O.3       1 GTP        -0.8171
      9 O3A        -1.9858    5.3044    1.5550 O.3       1 GTP        -0.8114
     10 PA         -2.9681    4.0282    1.6824 P.3       1 GTP         1.8017
     11 O1A        -4.2362    4.3013    2.4378 O.2       1 GTP        -0.7846
     12 O2A        -3.1908    3.5777    0.1446 O.3       1 GTP        -0.8074
     13 O5'        -2.0398    2.8621    2.3123 O.3       1 GTP        -0.5669
     14 C5'        -0.8811    2.4285    1.6206 C.3       1 GTP         0.1637
     15 C4'        -0.1994    1.3333    2.4288 C.3       1 GTP         0.1099
     16 O4'        -1.1285    0.2356    2.5840 O.3       1 GTP        -0.4100
     17 C3'         1.0324    0.7610    1.7344 C.3       1 GTP         0.0924
     18 O3'         1.9175    0.2377    2.7247 O.3       1 GTP        -0.5892
     19 C2'         0.4468   -0.3802    0.9263 C.3       1 GTP         0.0635
     20 O2'         1.3993   -1.3703    0.5961 O.3       1 GTP        -0.5749
     21 C1'        -0.6159   -0.9100    1.8769 C.3       1 GTP         0.2557
     22 N9         -1.7127   -1.6108    1.2130 N.pl3     1 GTP        -0.2236
     23 C8         -2.8667   -1.0365    0.7385 C.ar      1 GTP         0.4148
     24 N7         -3.6757   -1.9196    0.1868 N.2       1 GTP        -0.5808
     25 C5         -3.0088   -3.1018    0.3164 C.ar      1 GTP         0.1777
     26 C6         -3.4148   -4.4130   -0.1079 C.ar      1 GTP         0.6505
     27 O6         -4.4752   -4.6480   -0.6732 O.2       1 GTP        -0.5947
     28 N1         -2.4377   -5.3653    0.2144 N.pl3     1 GTP        -0.5110
     29 C2         -1.2132   -5.0902    0.8680 C.ar      1 GTP         0.6844
     30 N2         -0.4066   -6.1772    1.0834 N.pl3     1 GTP        -0.8920
     31 N3         -0.8672   -3.8786    1.2457 N.2       1 GTP        -0.6705
     32 C4         -1.7966   -2.9451    0.9439 C.ar      1 GTP         0.1220
     33 HOG2        1.6652    9.9382    1.3244 H         1 GTP         0.5087
     34 HOG3       -2.1531   10.0222    1.1071 H         1 GTP         0.5087
     35 HOB2       -2.2127    7.1461   -1.3382 H         1 GTP         0.5092
     36 HOA2       -3.6542    4.1894   -0.4662 H         1 GTP         0.5041
     37 H5'        -1.1763    2.0500    0.6366 H         1 GTP         0.0584
     38 H5''       -0.2075    3.2812    1.4874 H         1 GTP         0.0584
     39 H4'         0.0402    1.7079    3.4343 H         1 GTP         0.1192
     40 H3'         1.5907    1.4859    1.1353 H         1 GTP         0.0735
     41 HO3'        2.6839   -0.1150    2.2479 H         1 GTP         0.4308
     42 H2'        -0.0017    0.0018    0.0005 H         1 GTP         0.0746
     43 HO2'        2.0953   -0.9375    0.0709 H         1 GTP         0.4224
     44 H1'        -0.1998   -1.6319    2.6178 H         1 GTP         0.1162
     45 H8         -3.0589    0.0244    0.8247 H         1 GTP         0.0741
     46 HN1        -2.6238   -6.3307   -0.0420 H         1 GTP         0.3343
     47 HN21        0.4646   -6.0341    1.5394 H         1 GTP         0.4229
     48 HN22       -0.7235   -7.0673    0.7753 H         1 GTP         0.4229
@<TRIPOS>BOND
     1    1    2 2
     2    1    3 1
     3    1    4 1
     4    1    5 1
     5    3   33 1
     6    4   34 1
     7    5    6 1
     8    6    7 2
     9    6    8 1
    10    6    9 1
    11    8   35 1
    12    9   10 1
    13   10   11 2
    14   10   12 1
    15   10   13 1
    16   12   36 1
    17   13   14 1
    18   14   15 1
    19   14   37 1
    20   14   38 1
    21   15   16 1
    22   15   17 1
    23   15   39 1
    24   16   21 1
    25   17   18 1
    26   17   19 1
    27   17   40 1
    28   18   41 1
    29   19   20 1
    30   19   21 1
    31   19   42 1
    32   20   43 1
    33   21   22 1
    34   21   44 1
    35   22   23 ar
    36   22   32 ar
    37   23   24 ar
    38   23   45 1
    39   24   25 ar
    40   25   26 ar
    41   25   32 ar
    42   26   27 2
    43   26   28 ar
    44   28   29 ar
    45   28   46 1
    46   29   30 1
    47   29   31 ar
    48   30   47 1
    49   30   48 1
    50   31   32 ar
@<TRIPOS>SUBSTRUCTURE
     1 GTP         1 GROUP 0 A     ****
@<TRIPOS>MOLECULE
[[5-(2-amino-6-oxo-1~{H}-purin-9-yl)-3,4-dihydroxy-tetrahydrofuran-2-yl]methoxy-hydroxy-phosphoryl] phosphono hydrogen phosphate
   48    50     1     0     0
SMALL
USER_CHARGES

@<TRIPOS>ATOM
      1 PG          1.3098    6.5763   -0.3693 P.3       1 GTP         1.8160
      2 O1G         0.6390    5.6020   -1.2922 O.2       1 GTP        -0.8277
      3 O2G         2.6370    6.0259    0.3704 O.3       1 GTP        -0.7983
      4 O3G         1.8070    7.9489   -1.0632 O.3       1 GTP        -0.7983
      5 O3B         0.3844    7.0967    0.8491 O.3       1 GTP        -0.8272
      6 PB         -0.3522    6.3116    2.0538 P.3       1 GTP         1.9429
      7 O1B         0.5703    5.5488    2.9583 O.2       1 GTP        -0.8481
      8 O2B        -1.2374    7.4546    2.7771 O.3       1 GTP        -0.8171
      9 O3A        -1.4833    5.4343    1.3071 O.3       1 GTP        -0.8114
     10 PA         -2.5920    4.4092    1.8815 P.3       1 GTP         1.8017
     11 O1A        -3.5580    5.0276    2.8499 O.2       1 GTP        -0.7846
     12 O2A        -3.2774    3.8166    0.5413 O.3       1 GTP        -0.8074
     13 O5'        -1.7335    3.1724    2.4745 O.3       1 GTP        -0.5669
     14 C5'        -0.8811    2.4285    1.6206 C.3       1 GTP         0.1637
     15 C4'        -0.1994    1.3333    2.4288 C.3       1 GTP         0.1099
     16 O4'        -1.1285    0.2356    2.5840 O.3       1 GTP        -0.4100
     17 C3'         1.0324    0.7610    1.7344 C.3       1 GTP         0.0924
     18 O3'         1.9175    0.2377    2.7247 O.3       1 GTP        -0.5892
     19 C2'         0.4468   -0.3802    0.9263 C.3       1 GTP         0.0635
     20 O2'         1.3993   -1.3703    0.5961 O.3       1 GTP        -0.5749
     21 C1'        -0.6159   -0.9100    1.8769 C.3       1 GTP         0.2557
     22 N9         -1.7127   -1.6108    1.2130 N.pl3     1 GTP        -0.2236
     23 C8         -2.8667   -1.0365    0.7385 C.ar      1 GTP         0.4148
     24 N7         -3.6757   -1.9196    0.1868 N.2       1 GTP        -0.5808
     25 C5         -3.0088   -3.1018    0.3164 C.ar      1 GTP         0.1777
     26 C6         -3.4148   -4.4130   -0.1079 C.ar      1 GTP         0.6505
     27 O6         -4.4752   -4.6480   -0.6732 O.2       1 GTP        -0.5947
     28 N1         -2.4377   -5.3653    0.2144 N.pl3     1 GTP        -0.5110
     29 C2         -1.2132   -5.0902    0.8680 C.ar      1 GTP         0.6844
     30 N2         -0.4066   -6.1772    1.0834 N.pl3     1 GTP        -0.8920
     31 N3         -0.8672   -3.8786    1.2457 N.2       1 GTP        -0.6705
     32 C4         -1.7966   -2.9451    0.9439 C.ar      1 GTP         0.1220
     33 HOG2        3.3983    5.7339   -0.1748 H         1 GTP         0.5087
     34 HOG3        1.1453    8.5282   -1.4974 H         1 GTP         0.5087
     35 HOB2       -0.7791    8.1895    3.2376 H         1 GTP         0.5092
     36 HOA2       -3.7783    4.4241   -0.0435 H         1 GTP         0.5041
     37 H5'        -1.4796    1.9923    0.8143 H         1 GTP         0.0584
     38 H5''       -0.1364    3.1037    1.1869 H         1 GTP         0.0584
     39 H4'         0.0402    1.7079    3.4343 H         1 GTP         0.1192
     40 H3'         1.5907    1.4859    1.1353 H         1 GTP         0.0735
     41 HO3'        2.1521    0.9800    3.3017 H         1 GTP         0.4308
     42 H2'        -0.0017    0.0018    0.0005 H         1 GTP         0.0746
     43 HO2'        1.7495   -1.7243    1.4324 H         1 GTP         0.4224
     44 H1'        -0.1998   -1.6319    2.6178 H         1 GTP         0.1162
     45 H8         -3.0589    0.0244    0.8247 H         1 GTP         0.0741
     46 HN1        -2.6238   -6.3307   -0.0420 H         1 GTP         0.3343
     47 HN21        0.4646   -6.0341    1.5394 H         1 GTP         0.4229
     48 HN22       -0.7235   -7.0673    0.7753 H         1 GTP         0.4229
@<TRIPOS>BOND
     1    1    2 2
     2    1    3 1
     3    1    4 1
     4    1    5 1
     5    3   33 1
     6    4   34 1
     7    5    6 1
     8    6    7 2
     9    6    8 1
    10    6    9 1
    11    8   35 1
    12    9   10 1
    13   10   11 2
    14   10   12 1
    15   10   13 1
    16   12   36 1
    17   13   14 1
    18   14   15 1
    19   14   37 1
    20   14   38 1
    21   15   16 1
    22   15   17 1
    23   15   39 1
    24   16   21 1
    25   17   18 1
    26   17   19 1
    27   17   40 1
    28   18   41 1
    29   19   20 1
    30   19   21 1
    31   19   42 1
    32   20   43 1
    33   21   22 1
    34   21   44 1
    35   22   23 ar
    36   22   32 ar
    37   23   24 ar
    38   23   45 1
    39   24   25 ar
    40   25   26 ar
    41   25   32 ar
    42   26   27 2
    43   26   28 ar
    44   28   29 ar
    45   28   46 1
    46   29   30 1
    47   29   31 ar
    48   30   47 1
    49   30   48 1
    50   31   32 ar
@<TRIPOS>SUBSTRUCTURE
     1 GTP         1 GROUP 0 A     ****
@<TRIPOS>MOLECULE
[[5-(2-amino-6-oxo-1~{H}-purin-9-yl)-3,4-dihydroxy-tetrahydrofuran-2-yl]methoxy-hydroxy-phosphoryl] phosphono hydrogen phosphate
   48    50     1     0     0
SMALL
USER_CHARGES

@<TRIPOS>ATOM
      1 PG         -0.6526    2.8115   -4.7115 P.3       1 GTP         1.8160
      2 O1G         0.1936    3.7223   -5.5514 O.2       1 GTP        -0.8277
      3 O2G        -2.1496    2.5549   -5.2637 O.3       1 GTP        -0.7983
      4 O3G        -0.0645    1.3195   -4.5101 O.3       1 GTP        -0.7983
      5 O3B        -0.8891    3.3192   -3.1956 O.3       1 GTP        -0.8272
      6 PB          0.1415    3.6335   -1.9917 P.3       1 GTP         1.9429
      7 O1B         0.9811    2.4647   -1.5674 O.2       1 GTP        -0.8481
      8 O2B         0.9666    4.9216   -2.5142 O.3       1 GTP        -0.8171
      9 O3A        -0.7927    4.2773   -0.8431 O.3       1 GTP        -0.8114
     10 PA         -0.4423    4.8273    0.6350 P.3       1 GTP         1.8017
     11 O1A         0.5440    5.9589    0.6521 O.2       1 GTP        -0.7846
     12 O2A        -1.8939    5.1976    1.2457 O.3       1 GTP        -0.8074
     13 O5'         0.0173    3.5130    1.4593 O.3       1 GTP        -0.5669
     14 C5'        -0.8811    2.4285    1.6206 C.3       1 GTP         0.1637
     15 C4'        -0.1994    1.3333    2.4288 C.3       1 GTP         0.1099
     16 O4'        -1.1285    0.2356    2.5840 O.3       1 GTP        -0.4100
     17 C3'         1.0324    0.7610    1.7344 C.3       1 GTP         0.0924
     18 O3'         1.9175    0.2377    2.7247 O.3       1 GTP        -0.5892
     19 C2'         0.4468   -0.3802    0.9263 C.3       1 GTP         0.0635
     20 O2'         1.3993   -1.3703    0.5961 O.3       1 GTP        -0.5749
     21 C1'        -0.6159   -0.9100    1.8769 C.3       1 GTP         0.2557
     22 N9         -1.7127   -1.6108    1.2130 N.pl3     1 GTP        -0.2236
     23 C8         -2.5489   -1.0812    0.2607 C.ar      1 GTP         0.4148
     24 N7         -3.4468   -1.9516   -0.1576 N.2       1 GTP        -0.5808
     25 C5         -3.1696   -3.0787    0.5579 C.ar      1 GTP         0.1777
     26 C6         -3.8307   -4.3536    0.5166 C.ar      1 GTP         0.6505
     27 O6         -4.7841   -4.6033   -0.2101 O.2       1 GTP        -0.5947
     28 N1         -3.2356   -5.2522    1.4132 N.pl3     1 GTP        -0.5110
     29 C2         -2.1338   -4.9602    2.2517 C.ar      1 GTP         0.6844
     30 N2         -1.7156   -5.9923    3.0507 N.pl3     1 GTP        -0.8920
     31 N3         -1.5477   -3.7827    2.2686 N.2       1 GTP        -0.6705
     32 C4         -2.1070   -2.9013    1.4104 C.ar      1 GTP         0.1220
     33 HOG2       -2.7535    3.3200   -5.3725 H         1 GTP         0.5087
     34 HOG3        0.8111    1.2079   -4.0824 H         1 GTP         0.5087
     35 HOB2        1.5560    4.8241   -3.2922 H         1 GTP         0.5092
     36 HOA2       -1.9540    5.4950    2.1784 H         1 GTP         0.5041
     37 H5'        -1.7774    2.7844    2.1388 H         1 GTP         0.0584
     38 H5''       -1.1657    2.0536    0.6322 H         1 GTP         0.0584
     39 H4'         0.0402    1.7079    3.4343 H         1 GTP         0.1192
     40 H3'         1.5907    1.4859    1.1353 H         1 GTP         0.0735
     41 HO3'        2.1521    0.9800    3.3017 H         1 GTP         0.4308
     42 H2'        -0.0017    0.0018    0.0005 H         1 GTP         0.0746
     43 HO2'        0.9369   -2.0558    0.0825 H         1 GTP         0.4224
     44 H1'        -0.1998   -1.6319    2.6178 H         1 GTP         0.1162
     45 H8         -2.4545   -0.0604   -0.0844 H         1 GTP         0.0741
     46 HN1        -3.6270   -6.1884    1.4651 H         1 GTP         0.3343
     47 HN21       -0.9445   -5.8354    3.6574 H         1 GTP         0.4229
     48 HN22       -2.1993   -6.8585    2.9930 H         1 GTP         0.4229
@<TRIPOS>BOND
     1    1    2 2
     2    1    3 1
     3    1    4 1
     4    1    5 1
     5    3   33 1
     6    4   34 1
     7    5    6 1
     8    6    7 2
     9    6    8 1
    10    6    9 1
    11    8   35 1
    12    9   10 1
    13   10   11 2
    14   10   12 1
    15   10   13 1
    16   12   36 1
    17   13   14 1
    18   14   15 1
    19   14   37 1
    20   14   38 1
    21   15   16 1
    22   15   17 1
    23   15   39 1
    24   16   21 1
    25   17   18 1
    26   17   19 1
    27   17   40 1
    28   18   41 1
    29   19   20 1
    30   19   21 1
    31   19   42 1
    32   20   43 1
    33   21   22 1
    34   21   44 1
    35   22   23 ar
    36   22   32 ar
    37   23   24 ar
    38   23   45 1
    39   24   25 ar
    40   25   26 ar
    41   25   32 ar
    42   26   27 2
    43   26   28 ar
    44   28   29 ar
    45   28   46 1
    46   29   30 1
    47   29   31 ar
    48   30   47 1
    49   30   48 1
    50   31   32 ar
@<TRIPOS>SUBSTRUCTURE
     1 GTP         1 GROUP 0 A     ****
@<TRIPOS>MOLECULE
[[5-(2-amino-6-oxo-1~{H}-purin-9-yl)-3,4-dihydroxy-tetrahydrofuran-2-yl]methoxy-hydroxy-phosphoryl] phosphono hydrogen phosphate
   48    50     1     0     0
SMALL
USER_CHARGES

@<TRIPOS>ATOM
      1 PG          1.5074    8.2588    0.8481 P.3       1 GTP         1.8160
      2 O1G         2.7981    7.8820    1.5139 O.2       1 GTP        -0.8277
      3 O2G         0.7417    9.5273    1.4933 O.3       1 GTP        -0.7983
      4 O3G         1.6295    8.6482   -0.7159 O.3       1 GTP        -0.7983
      5 O3B         0.3844    7.0967    0.8491 O.3       1 GTP        -0.8272
      6 PB         -0.3522    6.3116    2.0538 P.3       1 GTP         1.9429
      7 O1B         0.5703    5.5488    2.9583 O.2       1 GTP        -0.8481
      8 O2B        -1.2374    7.4546    2.7771 O.3       1 GTP        -0.8171
      9 O3A        -1.4833    5.4343    1.3071 O.3       1 GTP        -0.8114
     10 PA         -2.5920    4.4092    1.8815 P.3       1 GTP         1.8017
     11 O1A        -3.5580    5.0276    2.8499 O.2       1 GTP        -0.7846
     12 O2A        -3.2774    3.8166    0.5413 O.3       1 GTP        -0.8074
     13 O5'        -1.7335    3.1724    2.4745 O.3       1 GTP        -0.5669
     14 C5'        -0.8811    2.4285    1.6206 C.3       1 GTP         0.1637
     15 C4'        -0.1994    1.3333    2.4288 C.3       1 GTP         0.1099
     16 O4'        -1.1285    0.2356    2.5840 O.3       1 GTP        -0.4100
     17 C3'         1.0324    0.7610    1.7344 C.3       1 GTP         0.0924
     18 O3'         1.9175    0.2377    2.7247 O.3       1 GTP        -0.5892
     19 C2'         0.4468   -0.3802    0.9263 C.3       1 GTP         0.0635
     20 O2'         1.3993   -1.3703    0.5961 O.3       1 GTP        -0.5749
     21 C1'        -0.6159   -0.9100    1.8769 C.3       1 GTP         0.2557
     22 N9         -1.7127   -1.6108    1.2130 N.pl3     1 GTP        -0.2236
     23 C8         -2.8667   -1.0365    0.7385 C.ar      1 GTP         0.4148
     24 N7         -3.6757   -1.9196    0.1868 N.2       1 GTP        -0.5808
     25 C5         -3.0088   -3.1018    0.3164 C.ar      1 GTP         0.1777
     26 C6         -3.4148   -4.4130   -0.1079 C.ar      1 GTP         0.6505
     27 O6         -4.4752   -4.6480   -0.6732 O.2       1 GTP        -0.5947
     28 N1         -2.4377   -5.3653    0.2144 N.pl3     1 GTP        -0.5110
     29 C2         -1.2132   -5.0902    0.8680 C.ar      1 GTP         0.6844
     30 N2         -0.4066   -6.1772    1.0834 N.pl3     1 GTP        -0.8920
     31 N3         -0.8672   -3.8786    1.2457 N.2       1 GTP        -0.6705
     32 C4         -1.7966   -2.9451    0.9439 C.ar      1 GTP         0.1220
     33 HOG2        1.1975   10.3955    1.5174 H         1 GTP         0.5087
     34 HOG3        1.9767    7.9810   -1.3456 H         1 GTP         0.5087
     35 HOB2       -0.7791    8.1895    3.2376 H         1 GTP         0.5092
     36 HOA2       -3.9497    3.1075    0.6263 H         1 GTP         0.5041
     37 H5'        -1.4796    1.9923    0.8143 H         1 GTP         0.0584
     38 H5''       -0.1364    3.1037    1.1869 H         1 GTP         0.0584
     39 H4'         0.0402    1.7079    3.4343 H         1 GTP         0.1192
     40 H3'         1.5907    1.4859    1.1353 H         1 GTP         0.0735
     41 HO3'        2.1521    0.9800    3.3017 H         1 GTP         0.4308
     42 H2'        -0.0017    0.0018    0.0005 H         1 GTP         0.0746
     43 HO2'        0.9369   -2.0558    0.0825 H         1 GTP         0.4224
     44 H1'        -0.1998   -1.6319    2.6178 H         1 GTP         0.1162
     45 H8         -3.0589    0.0244    0.8247 H         1 GTP         0.0741
     46 HN1        -2.6238   -6.3307   -0.0420 H         1 GTP         0.3343
     47 HN21        0.4646   -6.0341    1.5394 H         1 GTP         0.4229
     48 HN22       -0.7235   -7.0673    0.7753 H         1 GTP         0.4229
@<TRIPOS>BOND
     1    1    2 2
     2    1    3 1
     3    1    4 1
     4    1    5 1
     5    3   33 1
     6    4   34 1
     7    5    6 1
     8    6    7 2
     9    6    8 1
    10    6    9 1
    11    8   35 1
    12    9   10 1
    13   10   11 2
    14   10   12 1
    15   10   13 1
    16   12   36 1
    17   13   14 1
    18   14   15 1
    19   14   37 1
    20   14   38 1
    21   15   16 1
    22   15   17 1
    23   15   39 1
    24   16   21 1
    25   17   18 1
    26   17   19 1
    27   17   40 1
    28   18   41 1
    29   19   20 1
    30   19   21 1
    31   19   42 1
    32   20   43 1
    33   21   22 1
    34   21   44 1
    35   22   23 ar
    36   22   32 ar
    37   23   24 ar
    38   23   45 1
    39   24   25 ar
    40   25   26 ar
    41   25   32 ar
    42   26   27 2
    43   26   28 ar
    44   28   29 ar
    45   28   46 1
    46   29   30 1
    47   29   31 ar
    48   30   47 1
    49   30   48 1
    50   31   32 ar
@<TRIPOS>SUBSTRUCTURE
     1 GTP         1 GROUP 0 A     ****
@<TRIPOS>MOLECULE
[[5-(2-amino-6-oxo-1~{H}-purin-9-yl)-3,4-dihydroxy-tetrahydrofuran-2-yl]methoxy-hydroxy-phosphoryl] phosphono hydrogen phosphate
   48    50     1     0     0
SMALL
USER_CHARGES

@<TRIPOS>ATOM
      1 PG         -2.1459    3.8013   -4.7258 P.3       1 GTP         1.8160
      2 O1G        -1.5996    4.8199   -5.6824 O.2       1 GTP        -0.8277
      3 O2G        -3.7335    3.9020   -4.4415 O.3       1 GTP        -0.7983
      4 O3G        -1.9399    2.2611   -5.1709 O.3       1 GTP        -0.7983
      5 O3B        -1.4921    3.8456   -3.2485 O.3       1 GTP        -0.8272
      6 PB         -1.4356    5.0101   -2.1300 P.3       1 GTP         1.9429
      7 O1B        -0.7482    6.2682   -2.5726 O.2       1 GTP        -0.8481
      8 O2B        -2.9775    5.1892   -1.6787 O.3       1 GTP        -0.8171
      9 O3A        -0.7927    4.2773   -0.8431 O.3       1 GTP        -0.8114
     10 PA         -0.4423    4.8273    0.6350 P.3       1 GTP         1.8017
     11 O1A         0.5440    5.9589    0.6521 O.2       1 GTP        -0.7846
     12 O2A        -1.8939    5.1976    1.2457 O.3       1 GTP        -0.8074
     13 O5'         0.0173    3.5130    1.4593 O.3       1 GTP        -0.5669
     14 C5'        -0.8811    2.4285    1.6206 C.3       1 GTP         0.1637
     15 C4'        -0.1994    1.3333    2.4288 C.3       1 GTP         0.1099
     16 O4'        -1.1285    0.2356    2.5840 O.3       1 GTP        -0.4100
     17 C3'         1.0324    0.7610    1.7344 C.3       1 GTP         0.0924
     18 O3'         1.9175    0.2377    2.7247 O.3       1 GTP        -0.5892
     19 C2'         0.4468   -0.3802    0.9263 C.3       1 GTP         0.0635
     20 O2'         1.3993   -1.3703    0.5961 O.3       1 GTP        -0.5749
     21 C1'        -0.6159   -0.9100    1.8769 C.3       1 GTP         0.2557
     22 N9         -1.7127   -1.6108    1.2130 N.pl3     1 GTP        -0.2236
     23 C8         -2.0873   -2.9139    1.4324 C.ar      1 GTP         0.4148
     24 N7         -3.1135   -3.2727    0.6860 N.2       1 GTP        -0.5808
     25 C5         -3.4017   -2.1526   -0.0362 C.ar      1 GTP         0.1777
     26 C6         -4.4318   -1.9582   -1.0186 C.ar      1 GTP         0.6505
     27 O6         -5.2284   -2.8266   -1.3513 O.2       1 GTP        -0.5947
     28 N1         -4.3916   -0.6538   -1.5306 N.pl3     1 GTP        -0.5110
     29 C2         -3.4693    0.3474   -1.1439 C.ar      1 GTP         0.6844
     30 N2         -3.6143    1.5541   -1.7775 N.pl3     1 GTP        -0.8920
     31 N3         -2.5355    0.1410   -0.2407 N.2       1 GTP        -0.6705
     32 C4         -2.5574   -1.1117    0.2656 C.ar      1 GTP         0.1220
     33 HOG2       -4.3577    3.8042   -5.1917 H         1 GTP         0.5087
     34 HOG3       -1.0287    1.9230   -5.3035 H         1 GTP         0.5087
     35 HOB2       -3.6251    5.5360   -2.3287 H         1 GTP         0.5092
     36 HOA2       -2.4143    5.9167    0.8287 H         1 GTP         0.5041
     37 H5'        -1.7774    2.7844    2.1388 H         1 GTP         0.0584
     38 H5''       -1.1657    2.0536    0.6322 H         1 GTP         0.0584
     39 H4'         0.0402    1.7079    3.4343 H         1 GTP         0.1192
     40 H3'         1.5907    1.4859    1.1353 H         1 GTP         0.0735
     41 HO3'        2.6839   -0.1150    2.2479 H         1 GTP         0.4308
     42 H2'        -0.0017    0.0018    0.0005 H         1 GTP         0.0746
     43 HO2'        2.0953   -0.9375    0.0709 H         1 GTP         0.4224
     44 H1'        -0.1998   -1.6319    2.6178 H         1 GTP         0.1162
     45 H8         -1.5757   -3.5474    2.1443 H         1 GTP         0.0741
     46 HN1        -5.0800   -0.4074   -2.2361 H         1 GTP         0.3343
     47 HN21       -2.9894    2.2891   -1.5392 H         1 GTP         0.4229
     48 HN22       -4.3387    1.6483   -2.4512 H         1 GTP         0.4229
@<TRIPOS>BOND
     1    1    2 2
     2    1    3 1
     3    1    4 1
     4    1    5 1
     5    3   33 1
     6    4   34 1
     7    5    6 1
     8    6    7 2
     9    6    8 1
    10    6    9 1
    11    8   35 1
    12    9   10 1
    13   10   11 2
    14   10   12 1
    15   10   13 1
    16   12   36 1
    17   13   14 1
    18   14   15 1
    19   14   37 1
    20   14   38 1
    21   15   16 1
    22   15   17 1
    23   15   39 1
    24   16   21 1
    25   17   18 1
    26   17   19 1
    27   17   40 1
    28   18   41 1
    29   19   20 1
    30   19   21 1
    31   19   42 1
    32   20   43 1
    33   21   22 1
    34   21   44 1
    35   22   23 ar
    36   22   32 ar
    37   23   24 ar
    38   23   45 1
    39   24   25 ar
    40   25   26 ar
    41   25   32 ar
    42   26   27 2
    43   26   28 ar
    44   28   29 ar
    45   28   46 1
    46   29   30 1
    47   29   31 ar
    48   30   47 1
    49   30   48 1
    50   31   32 ar
@<TRIPOS>SUBSTRUCTURE
     1 GTP         1 GROUP 0 A     ****
@<TRIPOS>MOLECULE
[[5-(2-amino-6-oxo-1~{H}-purin-9-yl)-3,4-dihydroxy-tetrahydrofuran-2-yl]methoxy-hydroxy-phosphoryl] phosphono hydrogen phosphate
   48    50     1     0     0
SMALL
USER_CHARGES

@<TRIPOS>ATOM
      1 PG          0.3993    8.6126    2.2622 P.3       1 GTP         1.8160
      2 O1G         1.5492    8.3388    3.1862 O.2       1 GTP        -0.8277
      3 O2G        -0.7340    9.6063    2.8451 O.3       1 GTP        -0.7983
      4 O3G         0.7997    9.2860    0.8483 O.3       1 GTP        -0.7983
      5 O3B        -0.4363    7.3021    1.8195 O.3       1 GTP        -0.8272
      6 PB         -1.2587    6.2081    2.6780 P.3       1 GTP         1.9429
      7 O1B        -0.4369    5.4577    3.6843 O.2       1 GTP        -0.8481
      8 O2B        -2.4986    7.0468    3.2882 O.3       1 GTP        -0.8171
      9 O3A        -1.9858    5.3044    1.5550 O.3       1 GTP        -0.8114
     10 PA         -2.9681    4.0282    1.6824 P.3       1 GTP         1.8017
     11 O1A        -4.2362    4.3013    2.4378 O.2       1 GTP        -0.7846
     12 O2A        -3.1908    3.5777    0.1446 O.3       1 GTP        -0.8074
     13 O5'        -2.0398    2.8621    2.3123 O.3       1 GTP        -0.5669
     14 C5'        -0.8811    2.4285    1.6206 C.3       1 GTP         0.1637
     15 C4'        -0.1994    1.3333    2.4288 C.3       1 GTP         0.1099
     16 O4'        -1.1285    0.2356    2.5840 O.3       1 GTP        -0.4100
     17 C3'         1.0324    0.7610    1.7344 C.3       1 GTP         0.0924
     18 O3'         1.9175    0.2377    2.7247 O.3       1 GTP        -0.5892
     19 C2'         0.4468   -0.3802    0.9263 C.3       1 GTP         0.0635
     20 O2'         1.3993   -1.3703    0.5961 O.3       1 GTP        -0.5749
     21 C1'        -0.6159   -0.9100    1.8769 C.3       1 GTP         0.2557
     22 N9         -1.7127   -1.6108    1.2130 N.pl3     1 GTP        -0.2236
     23 C8         -2.5489   -1.0812    0.2607 C.ar      1 GTP         0.4148
     24 N7         -3.4468   -1.9516   -0.1576 N.2       1 GTP        -0.5808
     25 C5         -3.1696   -3.0787    0.5579 C.ar      1 GTP         0.1777
     26 C6         -3.8307   -4.3536    0.5166 C.ar      1 GTP         0.6505
     27 O6         -4.7841   -4.6033   -0.2101 O.2       1 GTP        -0.5947
     28 N1         -3.2356   -5.2522    1.4132 N.pl3     1 GTP        -0.5110
     29 C2         -2.1338   -4.9602    2.2517 C.ar      1 GTP         0.6844
     30 N2         -1.7156   -5.9923    3.0507 N.pl3     1 GTP        -0.8920
     31 N3         -1.5477   -3.7827    2.2686 N.2       1 GTP        -0.6705
     32 C4         -2.1070   -2.9013    1.4104 C.ar      1 GTP         0.1220
     33 HOG2       -0.4803   10.5189    3.0998 H         1 GTP         0.5087
     34 HOG3        1.4101    8.8055    0.2495 H         1 GTP         0.5087
     35 HOB2       -2.3168    7.7535    3.9437 H         1 GTP         0.5092
     36 HOA2       -3.7078    2.7653   -0.0413 H         1 GTP         0.5041
     37 H5'        -1.1763    2.0500    0.6366 H         1 GTP         0.0584
     38 H5''       -0.2075    3.2812    1.4874 H         1 GTP         0.0584
     39 H4'         0.0402    1.7079    3.4343 H         1 GTP         0.1192
     40 H3'         1.5907    1.4859    1.1353 H         1 GTP         0.0735
     41 HO3'        2.6839   -0.1150    2.2479 H         1 GTP         0.4308
     42 H2'        -0.0017    0.0018    0.0005 H         1 GTP         0.0746
     43 HO2'        2.0953   -0.9375    0.0709 H         1 GTP         0.4224
     44 H1'        -0.1998   -1.6319    2.6178 H         1 GTP         0.1162
     45 H8         -2.4545   -0.0604   -0.0844 H         1 GTP         0.0741
     46 HN1        -3.6270   -6.1884    1.4651 H         1 GTP         0.3343
     47 HN21       -0.9445   -5.8354    3.6574 H         1 GTP         0.4229
     48 HN22       -2.1993   -6.8585    2.9930 H         1 GTP         0.4229
@<TRIPOS>BOND
     1    1    2 2
     2    1    3 1
     3    1    4 1
     4    1    5 1
     5    3   33 1
     6    4   34 1
     7    5    6 1
     8    6    7 2
     9    6    8 1
    10    6    9 1
    11    8   35 1
    12    9   10 1
    13   10   11 2
    14   10   12 1
    15   10   13 1
    16   12   36 1
    17   13   14 1
    18   14   15 1
    19   14   37 1
    20   14   38 1
    21   15   16 1
    22   15   17 1
    23   15   39 1
    24   16   21 1
    25   17   18 1
    26   17   19 1
    27   17   40 1
    28   18   41 1
    29   19   20 1
    30   19   21 1
    31   19   42 1
    32   20   43 1
    33   21   22 1
    34   21   44 1
    35   22   23 ar
    36   22   32 ar
    37   23   24 ar
    38   23   45 1
    39   24   25 ar
    40   25   26 ar
    41   25   32 ar
    42   26   27 2
    43   26   28 ar
    44   28   29 ar
    45   28   46 1
    46   29   30 1
    47   29   31 ar
    48   30   47 1
    49   30   48 1
    50   31   32 ar
@<TRIPOS>SUBSTRUCTURE
     1 GTP         1 GROUP 0 A     ****
@<TRIPOS>MOLECULE
[[5-(2-amino-6-oxo-1~{H}-purin-9-yl)-3,4-dihydroxy-tetrahydrofuran-2-yl]methoxy-hydroxy-phosphoryl] phosphono hydrogen phosphate
   48    50     1     0     0
SMALL
USER_CHARGES

@<TRIPOS>ATOM
      1 PG         -0.7280    6.0583   -1.9522 P.3       1 GTP         1.8160
      2 O1G         0.7513    5.8862   -1.7697 O.2       1 GTP        -0.8277
      3 O2G        -1.1664    7.0065   -3.1852 O.3       1 GTP        -0.7983
      4 O3G        -1.5509    4.6924   -2.2162 O.3       1 GTP        -0.7983
      5 O3B        -1.4923    6.7066   -0.6844 O.3       1 GTP        -0.8272
      6 PB         -1.6386    6.2202    0.8493 P.3       1 GTP         1.9429
      7 O1B        -0.3395    6.0806    1.5867 O.2       1 GTP        -0.8481
      8 O2B        -2.6860    7.2712    1.4909 O.3       1 GTP        -0.8171
      9 O3A        -2.5313    4.8790    0.7447 O.3       1 GTP        -0.8114
     10 PA         -3.0702    3.8634    1.8796 P.3       1 GTP         1.8017
     11 O1A        -3.9589    4.5039    2.9059 O.2       1 GTP        -0.7846
     12 O2A        -3.7801    2.6911    1.0200 O.3       1 GTP        -0.8074
     13 O5'        -1.7335    3.1724    2.4745 O.3       1 GTP        -0.5669
     14 C5'        -0.8811    2.4285    1.6206 C.3       1 GTP         0.1637
     15 C4'        -0.1994    1.3333    2.4288 C.3       1 GTP         0.1099
     16 O4'        -1.1285    0.2356    2.5840 O.3       1 GTP        -0.4100
     17 C3'         1.0324    0.7610    1.7344 C.3       1 GTP         0.0924
     18 O3'         1.9175    0.2377    2.7247 O.3       1 GTP        -0.5892
     19 C2'         0.4468   -0.3802    0.9263 C.3       1 GTP         0.0635
     20 O2'         1.3993   -1.3703    0.5961 O.3       1 GTP        -0.5749
     21 C1'        -0.6159   -0.9100    1.8769 C.3       1 GTP         0.2557
     22 N9         -1.7127   -1.6108    1.2130 N.pl3     1 GTP        -0.2236
     23 C8         -2.8667   -1.0365    0.7385 C.ar      1 GTP         0.4148
     24 N7         -3.6757   -1.9196    0.1868 N.2       1 GTP        -0.5808
     25 C5         -3.0088   -3.1018    0.3164 C.ar      1 GTP         0.1777
     26 C6         -3.4148   -4.4130   -0.1079 C.ar      1 GTP         0.6505
     27 O6         -4.4752   -4.6480   -0.6732 O.2       1 GTP        -0.5947
     28 N1         -2.4377   -5.3653    0.2144 N.pl3     1 GTP        -0.5110
     29 C2         -1.2132   -5.0902    0.8680 C.ar      1 GTP         0.6844
     30 N2         -0.4066   -6.1772    1.0834 N.pl3     1 GTP        -0.8920
     31 N3         -0.8672   -3.8786    1.2457 N.2       1 GTP        -0.6705
     32 C4         -1.7966   -2.9451    0.9439 C.ar      1 GTP         0.1220
     33 HOG2       -0.8956    6.7586   -4.0948 H         1 GTP         0.5087
     34 HOG3       -1.5276    3.9852   -1.5370 H         1 GTP         0.5087
     35 HOB2       -2.4208    8.2113    1.5797 H         1 GTP         0.5092
     36 HOA2       -4.1331    1.9060    1.4900 H         1 GTP         0.5041
     37 H5'        -1.4796    1.9923    0.8143 H         1 GTP         0.0584
     38 H5''       -0.1364    3.1037    1.1869 H         1 GTP         0.0584
     39 H4'         0.0402    1.7079    3.4343 H         1 GTP         0.1192
     40 H3'         1.5907    1.4859    1.1353 H         1 GTP         0.0735
     41 HO3'        2.6839   -0.1150    2.2479 H         1 GTP         0.4308
     42 H2'        -0.0017    0.0018    0.0005 H         1 GTP         0.0746
     43 HO2'        0.9369   -2.0558    0.0825 H         1 GTP         0.4224
     44 H1'        -0.1998   -1.6319    2.6178 H         1 GTP         0.1162
     45 H8         -3.0589    0.0244    0.8247 H         1 GTP         0.0741
     46 HN1        -2.6238   -6.3307   -0.0420 H         1 GTP         0.3343
     47 HN21        0.4646   -6.0341    1.5394 H         1 GTP         0.4229
     48 HN22       -0.7235   -7.0673    0.7753 H         1 GTP         0.4229
@<TRIPOS>BOND
     1    1    2 2
     2    1    3 1
     3    1    4 1
     4    1    5 1
     5    3   33 1
     6    4   34 1
     7    5    6 1
     8    6    7 2
     9    6    8 1
    10    6    9 1
    11    8   35 1
    12    9   10 1
    13   10   11 2
    14   10   12 1
    15   10   13 1
    16   12   36 1
    17   13   14 1
    18   14   15 1
    19   14   37 1
    20   14   38 1
    21   15   16 1
    22   15   17 1
    23   15   39 1
    24   16   21 1
    25   17   18 1
    26   17   19 1
    27   17   40 1
    28   18   41 1
    29   19   20 1
    30   19   21 1
    31   19   42 1
    32   20   43 1
    33   21   22 1
    34   21   44 1
    35   22   23 ar
    36   22   32 ar
    37   23   24 ar
    38   23   45 1
    39   24   25 ar
    40   25   26 ar
    41   25   32 ar
    42   26   27 2
    43   26   28 ar
    44   28   29 ar
    45   28   46 1
    46   29   30 1
    47   29   31 ar
    48   30   47 1
    49   30   48 1
    50   31   32 ar
@<TRIPOS>SUBSTRUCTURE
     1 GTP         1 GROUP 0 A     ****
@<TRIPOS>MOLECULE
[[5-(2-amino-6-oxo-1~{H}-purin-9-yl)-3,4-dihydroxy-tetrahydrofuran-2-yl]methoxy-hydroxy-phosphoryl] phosphono hydrogen phosphate
   48    50     1     0     0
SMALL
USER_CHARGES

@<TRIPOS>ATOM
      1 PG         -1.1243    6.4797   -1.9092 P.3       1 GTP         1.8160
      2 O1G        -1.5035    7.9213   -1.7387 O.2       1 GTP        -0.8277
      3 O2G        -0.3665    6.1233   -3.2914 O.3       1 GTP        -0.7983
      4 O3G        -0.1349    5.8909   -0.7746 O.3       1 GTP        -0.7983
      5 O3B        -2.3679    5.4480   -1.8812 O.3       1 GTP        -0.8272
      6 PB         -3.4745    5.1252   -0.7491 P.3       1 GTP         1.9429
      7 O1B        -4.3194    6.2987   -0.3492 O.2       1 GTP        -0.8481
      8 O2B        -4.2870    3.8636   -1.3501 O.3       1 GTP        -0.8171
      9 O3A        -2.6221    4.4398    0.4384 O.3       1 GTP        -0.8114
     10 PA         -3.0702    3.8634    1.8796 P.3       1 GTP         1.8017
     11 O1A        -3.7062    4.8832    2.7789 O.2       1 GTP        -0.7846
     12 O2A        -4.0303    2.6186    1.4978 O.3       1 GTP        -0.8074
     13 O5'        -1.7335    3.1724    2.4745 O.3       1 GTP        -0.5669
     14 C5'        -0.8811    2.4285    1.6206 C.3       1 GTP         0.1637
     15 C4'        -0.1994    1.3333    2.4288 C.3       1 GTP         0.1099
     16 O4'        -1.1285    0.2356    2.5840 O.3       1 GTP        -0.4100
     17 C3'         1.0324    0.7610    1.7344 C.3       1 GTP         0.0924
     18 O3'         1.9175    0.2377    2.7247 O.3       1 GTP        -0.5892
     19 C2'         0.4468   -0.3802    0.9263 C.3       1 GTP         0.0635
     20 O2'         1.3993   -1.3703    0.5961 O.3       1 GTP        -0.5749
     21 C1'        -0.6159   -0.9100    1.8769 C.3       1 GTP         0.2557
     22 N9         -1.7127   -1.6108    1.2130 N.pl3     1 GTP        -0.2236
     23 C8         -2.8667   -1.0365    0.7385 C.ar      1 GTP         0.4148
     24 N7         -3.6757   -1.9196    0.1868 N.2       1 GTP        -0.5808
     25 C5         -3.0088   -3.1018    0.3164 C.ar      1 GTP         0.1777
     26 C6         -3.4148   -4.4130   -0.1079 C.ar      1 GTP         0.6505
     27 O6         -4.4752   -4.6480   -0.6732 O.2       1 GTP        -0.5947
     28 N1         -2.4377   -5.3653    0.2144 N.pl3     1 GTP        -0.5110
     29 C2         -1.2132   -5.0902    0.8680 C.ar      1 GTP         0.6844
     30 N2         -0.4066   -6.1772    1.0834 N.pl3     1 GTP        -0.8920
     31 N3         -0.8672   -3.8786    1.2457 N.2       1 GTP        -0.6705
     32 C4         -1.7966   -2.9451    0.9439 C.ar      1 GTP         0.1220
     33 HOG2        0.4864    6.5637   -3.4928 H         1 GTP         0.5087
     34 HOG3       -0.4286    5.8973    0.1613 H         1 GTP         0.5087
     35 HOB2       -4.8265    3.9885   -2.1597 H         1 GTP         0.5092
     36 HOA2       -4.8723    2.7961    1.0272 H         1 GTP         0.5041
     37 H5'        -1.4796    1.9923    0.8143 H         1 GTP         0.0584
     38 H5''       -0.1364    3.1037    1.1869 H         1 GTP         0.0584
     39 H4'         0.0402    1.7079    3.4343 H         1 GTP         0.1192
     40 H3'         1.5907    1.4859    1.1353 H         1 GTP         0.0735
     41 HO3'        2.6839   -0.1150    2.2479 H         1 GTP         0.4308
     42 H2'        -0.0017    0.0018    0.0005 H         1 GTP         0.0746
     43 HO2'        2.0953   -0.9375    0.0709 H         1 GTP         0.4224
     44 H1'        -0.1998   -1.6319    2.6178 H         1 GTP         0.1162
     45 H8         -3.0589    0.0244    0.8247 H         1 GTP         0.0741
     46 HN1        -2.6238   -6.3307   -0.0420 H         1 GTP         0.3343
     47 HN21       -0.7237   -7.0672    0.7753 H         1 GTP         0.4229
     48 HN22        0.4646   -6.0344    1.5394 H         1 GTP         0.4229
@<TRIPOS>BOND
     1    1    2 2
     2    1    3 1
     3    1    4 1
     4    1    5 1
     5    3   33 1
     6    4   34 1
     7    5    6 1
     8    6    7 2
     9    6    8 1
    10    6    9 1
    11    8   35 1
    12    9   10 1
    13   10   11 2
    14   10   12 1
    15   10   13 1
    16   12   36 1
    17   13   14 1
    18   14   15 1
    19   14   37 1
    20   14   38 1
    21   15   16 1
    22   15   17 1
    23   15   39 1
    24   16   21 1
    25   17   18 1
    26   17   19 1
    27   17   40 1
    28   18   41 1
    29   19   20 1
    30   19   21 1
    31   19   42 1
    32   20   43 1
    33   21   22 1
    34   21   44 1
    35   22   23 ar
    36   22   32 ar
    37   23   24 ar
    38   23   45 1
    39   24   25 ar
    40   25   26 ar
    41   25   32 ar
    42   26   27 2
    43   26   28 ar
    44   28   29 ar
    45   28   46 1
    46   29   30 1
    47   29   31 ar
    48   30   47 1
    49   30   48 1
    50   31   32 ar
@<TRIPOS>SUBSTRUCTURE
     1 GTP         1 GROUP 0 A     ****
@<TRIPOS>MOLECULE
[[5-(2-amino-6-oxo-1~{H}-purin-9-yl)-3,4-dihydroxy-tetrahydrofuran-2-yl]methoxy-hydroxy-phosphoryl] phosphono hydrogen phosphate
   48    50     1     0     0
SMALL
USER_CHARGES

@<TRIPOS>ATOM
      1 PG          0.5841   -2.8978   -3.3280 P.3       1 GTP         1.8160
      2 O1G         0.3658   -3.0957   -1.8569 O.2       1 GTP        -0.8277
      3 O2G         0.8445   -4.2489   -4.1758 O.3       1 GTP        -0.7983
      4 O3G        -0.6373   -2.1892   -4.1145 O.3       1 GTP        -0.7983
      5 O3B         1.8500   -1.9653   -3.7019 O.3       1 GTP        -0.8272
      6 PB          2.1995   -0.4292   -3.3434 P.3       1 GTP         1.9429
      7 O1B         2.3014   -0.1384   -1.8750 O.2       1 GTP        -0.8481
      8 O2B         3.5359   -0.1256   -4.2007 O.3       1 GTP        -0.8171
      9 O3A         1.0853    0.4174   -4.1486 O.3       1 GTP        -0.8114
     10 PA          0.8237    2.0080   -4.2558 P.3       1 GTP         1.8017
     11 O1A         1.9775    2.7842   -4.8213 O.2       1 GTP        -0.7846
     12 O2A        -0.5354    2.1015   -5.1282 O.3       1 GTP        -0.8074
     13 O5'         0.3750    2.4476   -2.7645 O.3       1 GTP        -0.5669
     14 C5'        -0.7794    1.8744   -2.1748 C.3       1 GTP         0.1637
     15 C4'        -0.9699    2.4597   -0.7819 C.3       1 GTP         0.1099
     16 O4'        -2.1475    1.8640   -0.2014 O.3       1 GTP        -0.4100
     17 C3'         0.1697    2.1347    0.1695 C.3       1 GTP         0.0924
     18 O3'         0.1809    3.0982    1.2223 O.3       1 GTP        -0.5892
     19 C2'        -0.2543    0.7880    0.7187 C.3       1 GTP         0.0635
     20 O2'         0.3606    0.4944    1.9582 O.3       1 GTP        -0.5749
     21 C1'        -1.7682    0.9516    0.8548 C.3       1 GTP         0.2557
     22 N9         -2.5926   -0.2553    0.7436 N.pl3     1 GTP        -0.2236
     23 C8         -3.5622   -0.4854   -0.2017 C.ar      1 GTP         0.4148
     24 N7         -4.1392   -1.6616   -0.0517 N.2       1 GTP        -0.5808
     25 C5         -3.5109   -2.1996    1.0323 C.ar      1 GTP         0.1777
     26 C6         -3.7312   -3.4747    1.6565 C.ar      1 GTP         0.6505
     27 O6         -4.5614   -4.2877    1.2704 O.2       1 GTP        -0.5947
     28 N1         -2.8730   -3.6478    2.7514 N.pl3     1 GTP        -0.5110
     29 C2         -1.9146   -2.7059    3.1950 C.ar      1 GTP         0.6844
     30 N2         -1.1823   -3.0860    4.2895 N.pl3     1 GTP        -0.8920
     31 N3         -1.7345   -1.5449    2.6035 N.2       1 GTP        -0.6705
     32 C4         -2.5530   -1.3584    1.5446 C.ar      1 GTP         0.1220
     33 HOG2        0.1539   -4.9454   -4.1835 H         1 GTP         0.5087
     34 HOG3       -0.9170   -1.2886   -3.8444 H         1 GTP         0.5087
     35 HOB2        4.3634   -0.6010   -3.9741 H         1 GTP         0.5092
     36 HOA2       -0.9448    2.9805   -5.2756 H         1 GTP         0.5041
     37 H5'        -1.6469    2.0965   -2.8047 H         1 GTP         0.0584
     38 H5''       -0.6476    0.7890   -2.1189 H         1 GTP         0.0584
     39 H4'        -1.1469    3.5409   -0.8523 H         1 GTP         0.1192
     40 H3'         1.1601    2.1310   -0.2934 H         1 GTP         0.0735
     41 HO3'        0.9173    2.8584    1.8048 H         1 GTP         0.4308
     42 H2'        -0.0024   -0.0091    0.0062 H         1 GTP         0.0746
     43 HO2'        1.3225    0.4909    1.8095 H         1 GTP         0.4224
     44 H1'        -2.0584    1.4255    1.8301 H         1 GTP         0.1162
     45 H8         -3.8011    0.2387   -0.9688 H         1 GTP         0.0741
     46 HN1        -2.9449   -4.5198    3.2680 H         1 GTP         0.3343
     47 HN21       -0.4963   -2.4574    4.6384 H         1 GTP         0.4229
     48 HN22       -1.3651   -3.9757    4.6927 H         1 GTP         0.4229
@<TRIPOS>BOND
     1    1    2 2
     2    1    3 1
     3    1    4 1
     4    1    5 1
     5    3   33 1
     6    4   34 1
     7    5    6 1
     8    6    7 2
     9    6    8 1
    10    6    9 1
    11    8   35 1
    12    9   10 1
    13   10   11 2
    14   10   12 1
    15   10   13 1
    16   12   36 1
    17   13   14 1
    18   14   15 1
    19   14   37 1
    20   14   38 1
    21   15   16 1
    22   15   17 1
    23   15   39 1
    24   16   21 1
    25   17   18 1
    26   17   19 1
    27   17   40 1
    28   18   41 1
    29   19   20 1
    30   19   21 1
    31   19   42 1
    32   20   43 1
    33   21   22 1
    34   21   44 1
    35   22   23 ar
    36   22   32 ar
    37   23   24 ar
    38   23   45 1
    39   24   25 ar
    40   25   26 ar
    41   25   32 ar
    42   26   27 2
    43   26   28 ar
    44   28   29 ar
    45   28   46 1
    46   29   30 1
    47   29   31 ar
    48   30   47 1
    49   30   48 1
    50   31   32 ar
@<TRIPOS>SUBSTRUCTURE
     1 GTP         1 GROUP 0 A     ****
@<TRIPOS>MOLECULE
[[5-(2-amino-6-oxo-1~{H}-purin-9-yl)-3,4-dihydroxy-tetrahydrofuran-2-yl]methoxy-hydroxy-phosphoryl] phosphono hydrogen phosphate
   48    50     1     0     0
SMALL
USER_CHARGES

@<TRIPOS>ATOM
      1 PG          0.0044    2.3540   -2.8106 P.3       1 GTP         1.8160
      2 O1G        -1.0966    1.9664   -3.7534 O.2       1 GTP        -0.8277
      3 O2G         0.7545    1.1226   -2.0808 O.3       1 GTP        -0.7983
      4 O3G         1.2157    3.1917   -3.4766 O.3       1 GTP        -0.7983
      5 O3B        -0.4606    3.2965   -1.5830 O.3       1 GTP        -0.8272
      6 PB         -1.1406    4.7616   -1.5473 P.3       1 GTP         1.9429
      7 O1B        -0.3254    5.8443   -2.1909 O.2       1 GTP        -0.8481
      8 O2B        -2.6042    4.5253   -2.1916 O.3       1 GTP        -0.8171
      9 O3A        -1.4932    4.9848    0.0124 O.3       1 GTP        -0.8114
     10 PA         -0.5527    5.0214    1.3254 P.3       1 GTP         1.8017
     11 O1A         0.4988    6.0924    1.2989 O.2       1 GTP        -0.7846
     12 O2A        -1.6150    5.1587    2.5377 O.3       1 GTP        -0.8074
     13 O5'         0.0173    3.5130    1.4593 O.3       1 GTP        -0.5669
     14 C5'        -0.8811    2.4285    1.6206 C.3       1 GTP         0.1637
     15 C4'        -0.1994    1.3333    2.4288 C.3       1 GTP         0.1099
     16 O4'        -1.1285    0.2356    2.5840 O.3       1 GTP        -0.4100
     17 C3'         1.0324    0.7610    1.7344 C.3       1 GTP         0.0924
     18 O3'         1.9175    0.2377    2.7247 O.3       1 GTP        -0.5892
     19 C2'         0.4468   -0.3802    0.9263 C.3       1 GTP         0.0635
     20 O2'         1.3993   -1.3703    0.5961 O.3       1 GTP        -0.5749
     21 C1'        -0.6159   -0.9100    1.8769 C.3       1 GTP         0.2557
     22 N9         -1.7127   -1.6108    1.2130 N.pl3     1 GTP        -0.2236
     23 C8         -2.8667   -1.0365    0.7385 C.ar      1 GTP         0.4148
     24 N7         -3.6757   -1.9196    0.1868 N.2       1 GTP        -0.5808
     25 C5         -3.0088   -3.1018    0.3164 C.ar      1 GTP         0.1777
     26 C6         -3.4148   -4.4130   -0.1079 C.ar      1 GTP         0.6505
     27 O6         -4.4752   -4.6480   -0.6732 O.2       1 GTP        -0.5947
     28 N1         -2.4377   -5.3653    0.2144 N.pl3     1 GTP        -0.5110
     29 C2         -1.2132   -5.0902    0.8680 C.ar      1 GTP         0.6844
     30 N2         -0.4066   -6.1772    1.0834 N.pl3     1 GTP        -0.8920
     31 N3         -0.8672   -3.8786    1.2457 N.2       1 GTP        -0.6705
     32 C4         -1.7966   -2.9451    0.9439 C.ar      1 GTP         0.1220
     33 HOG2        1.2105    0.4508   -2.6310 H         1 GTP         0.5087
     34 HOG3        1.0199    4.0546   -3.8998 H         1 GTP         0.5087
     35 HOB2       -3.2473    5.2659   -2.1933 H         1 GTP         0.5092
     36 HOA2       -1.2863    5.1327    3.4614 H         1 GTP         0.5041
     37 H5'        -1.7774    2.7844    2.1388 H         1 GTP         0.0584
     38 H5''       -1.1657    2.0536    0.6322 H         1 GTP         0.0584
     39 H4'         0.0402    1.7079    3.4343 H         1 GTP         0.1192
     40 H3'         1.5907    1.4859    1.1353 H         1 GTP         0.0735
     41 HO3'        2.6839   -0.1150    2.2479 H         1 GTP         0.4308
     42 H2'        -0.0017    0.0018    0.0005 H         1 GTP         0.0746
     43 HO2'        2.0953   -0.9375    0.0709 H         1 GTP         0.4224
     44 H1'        -0.1998   -1.6319    2.6178 H         1 GTP         0.1162
     45 H8         -3.0589    0.0244    0.8247 H         1 GTP         0.0741
     46 HN1        -2.6238   -6.3307   -0.0420 H         1 GTP         0.3343
     47 HN21        0.4646   -6.0341    1.5394 H         1 GTP         0.4229
     48 HN22       -0.7235   -7.0673    0.7753 H         1 GTP         0.4229
@<TRIPOS>BOND
     1    1    2 2
     2    1    3 1
     3    1    4 1
     4    1    5 1
     5    3   33 1
     6    4   34 1
     7    5    6 1
     8    6    7 2
     9    6    8 1
    10    6    9 1
    11    8   35 1
    12    9   10 1
    13   10   11 2
    14   10   12 1
    15   10   13 1
    16   12   36 1
    17   13   14 1
    18   14   15 1
    19   14   37 1
    20   14   38 1
    21   15   16 1
    22   15   17 1
    23   15   39 1
    24   16   21 1
    25   17   18 1
    26   17   19 1
    27   17   40 1
    28   18   41 1
    29   19   20 1
    30   19   21 1
    31   19   42 1
    32   20   43 1
    33   21   22 1
    34   21   44 1
    35   22   23 ar
    36   22   32 ar
    37   23   24 ar
    38   23   45 1
    39   24   25 ar
    40   25   26 ar
    41   25   32 ar
    42   26   27 2
    43   26   28 ar
    44   28   29 ar
    45   28   46 1
    46   29   30 1
    47   29   31 ar
    48   30   47 1
    49   30   48 1
    50   31   32 ar
@<TRIPOS>SUBSTRUCTURE
     1 GTP         1 GROUP 0 A     ****
@<TRIPOS>MOLECULE
[[5-(2-amino-6-oxo-1~{H}-purin-9-yl)-3,4-dihydroxy-tetrahydrofuran-2-yl]methoxy-hydroxy-phosphoryl] phosphono hydrogen phosphate
   48    50     1     0     0
SMALL
USER_CHARGES

@<TRIPOS>ATOM
      1 PG          0.4530    7.5916    0.9182 P.3       1 GTP         1.8160
      2 O1G         0.8833    6.6711    2.0222 O.2       1 GTP        -0.8277
      3 O2G        -0.2114    8.9840    1.3991 O.3       1 GTP        -0.7983
      4 O3G         1.6321    8.0625   -0.0821 O.3       1 GTP        -0.7983
      5 O3B        -0.6514    6.9704   -0.0849 O.3       1 GTP        -0.8272
      6 PB         -2.1476    6.4166    0.1699 P.3       1 GTP         1.9429
      7 O1B        -3.0989    7.4271    0.7398 O.2       1 GTP        -0.8481
      8 O2B        -2.5782    5.7928   -1.2579 O.3       1 GTP        -0.8171
      9 O3A        -1.9206    5.0893    1.0606 O.3       1 GTP        -0.8114
     10 PA         -2.9681    4.0282    1.6824 P.3       1 GTP         1.8017
     11 O1A        -3.9590    4.6293    2.6364 O.2       1 GTP        -0.7846
     12 O2A        -3.6302    3.3503    0.3712 O.3       1 GTP        -0.8074
     13 O5'        -2.0398    2.8621    2.3123 O.3       1 GTP        -0.5669
     14 C5'        -0.8811    2.4285    1.6206 C.3       1 GTP         0.1637
     15 C4'        -0.1994    1.3333    2.4288 C.3       1 GTP         0.1099
     16 O4'        -1.1285    0.2356    2.5840 O.3       1 GTP        -0.4100
     17 C3'         1.0324    0.7610    1.7344 C.3       1 GTP         0.0924
     18 O3'         1.9175    0.2377    2.7247 O.3       1 GTP        -0.5892
     19 C2'         0.4468   -0.3802    0.9263 C.3       1 GTP         0.0635
     20 O2'         1.3993   -1.3703    0.5961 O.3       1 GTP        -0.5749
     21 C1'        -0.6159   -0.9100    1.8769 C.3       1 GTP         0.2557
     22 N9         -1.7127   -1.6108    1.2130 N.pl3     1 GTP        -0.2236
     23 C8         -2.8667   -1.0365    0.7385 C.ar      1 GTP         0.4148
     24 N7         -3.6757   -1.9196    0.1868 N.2       1 GTP        -0.5808
     25 C5         -3.0088   -3.1018    0.3164 C.ar      1 GTP         0.1777
     26 C6         -3.4148   -4.4130   -0.1079 C.ar      1 GTP         0.6505
     27 O6         -4.4752   -4.6480   -0.6732 O.2       1 GTP        -0.5947
     28 N1         -2.4377   -5.3653    0.2144 N.pl3     1 GTP        -0.5110
     29 C2         -1.2132   -5.0902    0.8680 C.ar      1 GTP         0.6844
     30 N2         -0.4066   -6.1772    1.0834 N.pl3     1 GTP        -0.8920
     31 N3         -0.8672   -3.8786    1.2457 N.2       1 GTP        -0.6705
     32 C4         -1.7966   -2.9451    0.9439 C.ar      1 GTP         0.1220
     33 HOG2        0.3171    9.5959    1.9543 H         1 GTP         0.5087
     34 HOG3        2.1256    7.3823   -0.5879 H         1 GTP         0.5087
     35 HOB2       -2.6910    6.3947   -2.0242 H         1 GTP         0.5092
     36 HOA2       -4.1674    3.9080   -0.2308 H         1 GTP         0.5041
     37 H5'        -1.1763    2.0500    0.6366 H         1 GTP         0.0584
     38 H5''       -0.2075    3.2812    1.4874 H         1 GTP         0.0584
     39 H4'         0.0402    1.7079    3.4343 H         1 GTP         0.1192
     40 H3'         1.5907    1.4859    1.1353 H         1 GTP         0.0735
     41 HO3'        2.1521    0.9800    3.3017 H         1 GTP         0.4308
     42 H2'        -0.0017    0.0018    0.0005 H         1 GTP         0.0746
     43 HO2'        0.9369   -2.0558    0.0825 H         1 GTP         0.4224
     44 H1'        -0.1998   -1.6319    2.6178 H         1 GTP         0.1162
     45 H8         -3.0589    0.0244    0.8247 H         1 GTP         0.0741
     46 HN1        -2.6238   -6.3307   -0.0420 H         1 GTP         0.3343
     47 HN21       -0.7237   -7.0672    0.7753 H         1 GTP         0.4229
     48 HN22        0.4646   -6.0344    1.5394 H         1 GTP         0.4229
@<TRIPOS>BOND
     1    1    2 2
     2    1    3 1
     3    1    4 1
     4    1    5 1
     5    3   33 1
     6    4   34 1
     7    5    6 1
     8    6    7 2
     9    6    8 1
    10    6    9 1
    11    8   35 1
    12    9   10 1
    13   10   11 2
    14   10   12 1
    15   10   13 1
    16   12   36 1
    17   13   14 1
    18   14   15 1
    19   14   37 1
    20   14   38 1
    21   15   16 1
    22   15   17 1
    23   15   39 1
    24   16   21 1
    25   17   18 1
    26   17   19 1
    27   17   40 1
    28   18   41 1
    29   19   20 1
    30   19   21 1
    31   19   42 1
    32   20   43 1
    33   21   22 1
    34   21   44 1
    35   22   23 ar
    36   22   32 ar
    37   23   24 ar
    38   23   45 1
    39   24   25 ar
    40   25   26 ar
    41   25   32 ar
    42   26   27 2
    43   26   28 ar
    44   28   29 ar
    45   28   46 1
    46   29   30 1
    47   29   31 ar
    48   30   47 1
    49   30   48 1
    50   31   32 ar
@<TRIPOS>SUBSTRUCTURE
     1 GTP         1 GROUP 0 A     ****
@<TRIPOS>MOLECULE
[[5-(2-amino-6-oxo-1~{H}-purin-9-yl)-3,4-dihydroxy-tetrahydrofuran-2-yl]methoxy-hydroxy-phosphoryl] phosphono hydrogen phosphate
   48    50     1     0     0
SMALL
USER_CHARGES

@<TRIPOS>ATOM
      1 PG         -3.7520    3.7559   -3.9027 P.3       1 GTP         1.8160
      2 O1G        -5.1246    4.2599   -3.5663 O.2       1 GTP        -0.8277
      3 O2G        -3.6857    2.2278   -4.4243 O.3       1 GTP        -0.7983
      4 O3G        -2.9810    4.5822   -5.0584 O.3       1 GTP        -0.7983
      5 O3B        -2.7041    3.7830   -2.6727 O.3       1 GTP        -0.8272
      6 PB         -2.1435    4.9937   -1.7616 P.3       1 GTP         1.9429
      7 O1B        -1.4193    6.0646   -2.5230 O.2       1 GTP        -0.8481
      8 O2B        -3.4419    5.4918   -0.9374 O.3       1 GTP        -0.8171
      9 O3A        -1.2850    4.2479   -0.6156 O.3       1 GTP        -0.8114
     10 PA         -0.4423    4.8273    0.6350 P.3       1 GTP         1.8017
     11 O1A         0.6756    5.7513    0.2478 O.2       1 GTP        -0.7846
     12 O2A        -1.5790    5.5072    1.5639 O.3       1 GTP        -0.8074
     13 O5'         0.0173    3.5130    1.4593 O.3       1 GTP        -0.5669
     14 C5'        -0.8811    2.4285    1.6206 C.3       1 GTP         0.1637
     15 C4'        -0.1994    1.3333    2.4288 C.3       1 GTP         0.1099
     16 O4'        -1.1285    0.2356    2.5840 O.3       1 GTP        -0.4100
     17 C3'         1.0324    0.7610    1.7344 C.3       1 GTP         0.0924
     18 O3'         1.9175    0.2377    2.7247 O.3       1 GTP        -0.5892
     19 C2'         0.4468   -0.3802    0.9263 C.3       1 GTP         0.0635
     20 O2'         1.3993   -1.3703    0.5961 O.3       1 GTP        -0.5749
     21 C1'        -0.6159   -0.9100    1.8769 C.3       1 GTP         0.2557
     22 N9         -1.7127   -1.6108    1.2130 N.pl3     1 GTP        -0.2236
     23 C8         -1.7695   -2.9586    0.9546 C.ar      1 GTP         0.4148
     24 N7         -2.8846   -3.3047    0.3416 N.2       1 GTP        -0.5808
     25 C5         -3.5626   -2.1296    0.2052 C.ar      1 GTP         0.1777
     26 C6         -4.8477   -1.8989   -0.3942 C.ar      1 GTP         0.6505
     27 O6         -5.5373   -2.7819   -0.8881 O.2       1 GTP        -0.5947
     28 N1         -5.1895   -0.5407   -0.3318 N.pl3     1 GTP        -0.5110
     29 C2         -4.3899    0.4774    0.2398 C.ar      1 GTP         0.6844
     30 N2         -4.9233    1.7390    0.1898 N.pl3     1 GTP        -0.8920
     31 N3         -3.2159    0.2369    0.7822 N.2       1 GTP        -0.6705
     32 C4         -2.8678   -1.0679    0.7322 C.ar      1 GTP         0.1220
     33 HOG2       -4.0069    1.5109   -3.8370 H         1 GTP         0.5087
     34 HOG3       -2.8009    5.5364   -4.9200 H         1 GTP         0.5087
     35 HOB2       -4.1842    5.9064   -1.4264 H         1 GTP         0.5092
     36 HOA2       -2.0748    6.2794    1.2177 H         1 GTP         0.5041
     37 H5'        -1.7774    2.7844    2.1388 H         1 GTP         0.0584
     38 H5''       -1.1657    2.0536    0.6322 H         1 GTP         0.0584
     39 H4'         0.0402    1.7079    3.4343 H         1 GTP         0.1192
     40 H3'         1.5907    1.4859    1.1353 H         1 GTP         0.0735
     41 HO3'        2.6839   -0.1150    2.2479 H         1 GTP         0.4308
     42 H2'        -0.0017    0.0018    0.0005 H         1 GTP         0.0746
     43 HO2'        2.0953   -0.9375    0.0709 H         1 GTP         0.4224
     44 H1'        -0.1998   -1.6319    2.6178 H         1 GTP         0.1162
     45 H8         -0.9713   -3.6323    1.2352 H         1 GTP         0.0741
     46 HN1        -6.0831   -0.2651   -0.7290 H         1 GTP         0.3343
     47 HN21       -5.8145    1.8569   -0.2336 H         1 GTP         0.4229
     48 HN22       -4.3986    2.4880    0.5787 H         1 GTP         0.4229
@<TRIPOS>BOND
     1    1    2 2
     2    1    3 1
     3    1    4 1
     4    1    5 1
     5    3   33 1
     6    4   34 1
     7    5    6 1
     8    6    7 2
     9    6    8 1
    10    6    9 1
    11    8   35 1
    12    9   10 1
    13   10   11 2
    14   10   12 1
    15   10   13 1
    16   12   36 1
    17   13   14 1
    18   14   15 1
    19   14   37 1
    20   14   38 1
    21   15   16 1
    22   15   17 1
    23   15   39 1
    24   16   21 1
    25   17   18 1
    26   17   19 1
    27   17   40 1
    28   18   41 1
    29   19   20 1
    30   19   21 1
    31   19   42 1
    32   20   43 1
    33   21   22 1
    34   21   44 1
    35   22   23 ar
    36   22   32 ar
    37   23   24 ar
    38   23   45 1
    39   24   25 ar
    40   25   26 ar
    41   25   32 ar
    42   26   27 2
    43   26   28 ar
    44   28   29 ar
    45   28   46 1
    46   29   30 1
    47   29   31 ar
    48   30   47 1
    49   30   48 1
    50   31   32 ar
@<TRIPOS>SUBSTRUCTURE
     1 GTP         1 GROUP 0 A     ****
@<TRIPOS>MOLECULE
[[5-(2-amino-6-oxo-1~{H}-purin-9-yl)-3,4-dihydroxy-tetrahydrofuran-2-yl]methoxy-hydroxy-phosphoryl] phosphono hydrogen phosphate
   48    50     1     0     0
SMALL
USER_CHARGES

@<TRIPOS>ATOM
      1 PG          1.9603    5.3316    3.6016 P.3       1 GTP         1.8160
      2 O1G         3.1033    5.8756    2.7963 O.2       1 GTP        -0.8277
      3 O2G         2.1834    3.8486    4.2039 O.3       1 GTP        -0.7983
      4 O3G         1.5553    6.2077    4.8981 O.3       1 GTP        -0.7983
      5 O3B         0.5660    5.2074    2.7940 O.3       1 GTP        -0.8272
      6 PB         -0.3522    6.3116    2.0538 P.3       1 GTP         1.9429
      7 O1B        -0.8615    7.4021    2.9496 O.2       1 GTP        -0.8481
      8 O2B         0.5603    6.8070    0.8149 O.3       1 GTP        -0.8171
      9 O3A        -1.4833    5.4343    1.3071 O.3       1 GTP        -0.8114
     10 PA         -2.5920    4.4092    1.8815 P.3       1 GTP         1.8017
     11 O1A        -3.5580    5.0276    2.8499 O.2       1 GTP        -0.7846
     12 O2A        -3.2774    3.8166    0.5413 O.3       1 GTP        -0.8074
     13 O5'        -1.7335    3.1724    2.4745 O.3       1 GTP        -0.5669
     14 C5'        -0.8811    2.4285    1.6206 C.3       1 GTP         0.1637
     15 C4'        -0.1994    1.3333    2.4288 C.3       1 GTP         0.1099
     16 O4'        -1.1285    0.2356    2.5840 O.3       1 GTP        -0.4100
     17 C3'         1.0324    0.7610    1.7344 C.3       1 GTP         0.0924
     18 O3'         1.9175    0.2377    2.7247 O.3       1 GTP        -0.5892
     19 C2'         0.4468   -0.3802    0.9263 C.3       1 GTP         0.0635
     20 O2'         1.3993   -1.3703    0.5961 O.3       1 GTP        -0.5749
     21 C1'        -0.6159   -0.9100    1.8769 C.3       1 GTP         0.2557
     22 N9         -1.7127   -1.6108    1.2130 N.pl3     1 GTP        -0.2236
     23 C8         -2.0873   -2.9139    1.4324 C.ar      1 GTP         0.4148
     24 N7         -3.1135   -3.2727    0.6860 N.2       1 GTP        -0.5808
     25 C5         -3.4017   -2.1526   -0.0362 C.ar      1 GTP         0.1777
     26 C6         -4.4318   -1.9582   -1.0186 C.ar      1 GTP         0.6505
     27 O6         -5.2284   -2.8266   -1.3513 O.2       1 GTP        -0.5947
     28 N1         -4.3916   -0.6538   -1.5306 N.pl3     1 GTP        -0.5110
     29 C2         -3.4693    0.3474   -1.1439 C.ar      1 GTP         0.6844
     30 N2         -3.6143    1.5541   -1.7775 N.pl3     1 GTP        -0.8920
     31 N3         -2.5355    0.1410   -0.2407 N.2       1 GTP        -0.6705
     32 C4         -2.5574   -1.1117    0.2656 C.ar      1 GTP         0.1220
     33 HOG2        2.3448    3.1042    3.5860 H         1 GTP         0.5087
     34 HOG3        1.2693    7.1375    4.7725 H         1 GTP         0.5087
     35 HOB2        0.1732    7.4226    0.1566 H         1 GTP         0.5092
     36 HOA2       -3.9497    3.1075    0.6263 H         1 GTP         0.5041
     37 H5'        -1.4796    1.9923    0.8143 H         1 GTP         0.0584
     38 H5''       -0.1364    3.1037    1.1869 H         1 GTP         0.0584
     39 H4'         0.0402    1.7079    3.4343 H         1 GTP         0.1192
     40 H3'         1.5907    1.4859    1.1353 H         1 GTP         0.0735
     41 HO3'        2.6839   -0.1150    2.2479 H         1 GTP         0.4308
     42 H2'        -0.0017    0.0018    0.0005 H         1 GTP         0.0746
     43 HO2'        2.0953   -0.9375    0.0709 H         1 GTP         0.4224
     44 H1'        -0.1998   -1.6319    2.6178 H         1 GTP         0.1162
     45 H8         -1.5757   -3.5474    2.1443 H         1 GTP         0.0741
     46 HN1        -5.0800   -0.4074   -2.2361 H         1 GTP         0.3343
     47 HN21       -2.9894    2.2891   -1.5392 H         1 GTP         0.4229
     48 HN22       -4.3387    1.6483   -2.4512 H         1 GTP         0.4229
@<TRIPOS>BOND
     1    1    2 2
     2    1    3 1
     3    1    4 1
     4    1    5 1
     5    3   33 1
     6    4   34 1
     7    5    6 1
     8    6    7 2
     9    6    8 1
    10    6    9 1
    11    8   35 1
    12    9   10 1
    13   10   11 2
    14   10   12 1
    15   10   13 1
    16   12   36 1
    17   13   14 1
    18   14   15 1
    19   14   37 1
    20   14   38 1
    21   15   16 1
    22   15   17 1
    23   15   39 1
    24   16   21 1
    25   17   18 1
    26   17   19 1
    27   17   40 1
    28   18   41 1
    29   19   20 1
    30   19   21 1
    31   19   42 1
    32   20   43 1
    33   21   22 1
    34   21   44 1
    35   22   23 ar
    36   22   32 ar
    37   23   24 ar
    38   23   45 1
    39   24   25 ar
    40   25   26 ar
    41   25   32 ar
    42   26   27 2
    43   26   28 ar
    44   28   29 ar
    45   28   46 1
    46   29   30 1
    47   29   31 ar
    48   30   47 1
    49   30   48 1
    50   31   32 ar
@<TRIPOS>SUBSTRUCTURE
     1 GTP         1 GROUP 0 A     ****
@<TRIPOS>MOLECULE
[[5-(2-amino-6-oxo-1~{H}-purin-9-yl)-3,4-dihydroxy-tetrahydrofuran-2-yl]methoxy-hydroxy-phosphoryl] phosphono hydrogen phosphate
   48    50     1     0     0
SMALL
USER_CHARGES

@<TRIPOS>ATOM
      1 PG         -0.3027    7.2471   -3.6844 P.3       1 GTP         1.8160
      2 O1G        -0.1407    6.6131   -5.0345 O.2       1 GTP        -0.8277
      3 O2G         0.8874    8.2477   -3.2438 O.3       1 GTP        -0.7983
      4 O3G        -1.6353    8.1434   -3.5020 O.3       1 GTP        -0.7983
      5 O3B        -0.3940    6.2015   -2.4556 O.3       1 GTP        -0.8272
      6 PB         -1.4356    5.0101   -2.1300 P.3       1 GTP         1.9429
      7 O1B        -2.8620    5.4509   -1.9821 O.2       1 GTP        -0.8481
      8 O2B        -1.1661    3.9290   -3.3012 O.3       1 GTP        -0.8171
      9 O3A        -0.7927    4.2773   -0.8431 O.3       1 GTP        -0.8114
     10 PA         -0.4423    4.8273    0.6350 P.3       1 GTP         1.8017
     11 O1A         0.5440    5.9589    0.6521 O.2       1 GTP        -0.7846
     12 O2A        -1.8939    5.1976    1.2457 O.3       1 GTP        -0.8074
     13 O5'         0.0173    3.5130    1.4593 O.3       1 GTP        -0.5669
     14 C5'        -0.8811    2.4285    1.6206 C.3       1 GTP         0.1637
     15 C4'        -0.1994    1.3333    2.4288 C.3       1 GTP         0.1099
     16 O4'        -1.1285    0.2356    2.5840 O.3       1 GTP        -0.4100
     17 C3'         1.0324    0.7610    1.7344 C.3       1 GTP         0.0924
     18 O3'         1.9175    0.2377    2.7247 O.3       1 GTP        -0.5892
     19 C2'         0.4468   -0.3802    0.9263 C.3       1 GTP         0.0635
     20 O2'         1.3993   -1.3703    0.5961 O.3       1 GTP        -0.5749
     21 C1'        -0.6159   -0.9100    1.8769 C.3       1 GTP         0.2557
     22 N9         -1.7127   -1.6108    1.2130 N.pl3     1 GTP        -0.2236
     23 C8         -2.8667   -1.0365    0.7385 C.ar      1 GTP         0.4148
     24 N7         -3.6757   -1.9196    0.1868 N.2       1 GTP        -0.5808
     25 C5         -3.0088   -3.1018    0.3164 C.ar      1 GTP         0.1777
     26 C6         -3.4148   -4.4130   -0.1079 C.ar      1 GTP         0.6505
     27 O6         -4.4752   -4.6480   -0.6732 O.2       1 GTP        -0.5947
     28 N1         -2.4377   -5.3653    0.2144 N.pl3     1 GTP        -0.5110
     29 C2         -1.2132   -5.0902    0.8680 C.ar      1 GTP         0.6844
     30 N2         -0.4066   -6.1772    1.0834 N.pl3     1 GTP        -0.8920
     31 N3         -0.8672   -3.8786    1.2457 N.2       1 GTP        -0.6705
     32 C4         -1.7966   -2.9451    0.9439 C.ar      1 GTP         0.1220
     33 HOG2        1.0747    9.0359   -3.7967 H         1 GTP         0.5087
     34 HOG3       -2.5123    7.7189   -3.6153 H         1 GTP         0.5087
     35 HOB2       -1.6250    3.0630   -3.2625 H         1 GTP         0.5092
     36 HOA2       -2.4143    5.9167    0.8287 H         1 GTP         0.5041
     37 H5'        -1.7774    2.7844    2.1388 H         1 GTP         0.0584
     38 H5''       -1.1657    2.0536    0.6322 H         1 GTP         0.0584
     39 H4'         0.0402    1.7079    3.4343 H         1 GTP         0.1192
     40 H3'         1.5907    1.4859    1.1353 H         1 GTP         0.0735
     41 HO3'        2.6839   -0.1150    2.2479 H         1 GTP         0.4308
     42 H2'        -0.0017    0.0018    0.0005 H         1 GTP         0.0746
     43 HO2'        2.0953   -0.9375    0.0709 H         1 GTP         0.4224
     44 H1'        -0.1998   -1.6319    2.6178 H         1 GTP         0.1162
     45 H8         -3.0589    0.0244    0.8247 H         1 GTP         0.0741
     46 HN1        -2.6238   -6.3307   -0.0420 H         1 GTP         0.3343
     47 HN21        0.4646   -6.0341    1.5394 H         1 GTP         0.4229
     48 HN22       -0.7235   -7.0673    0.7753 H         1 GTP         0.4229
@<TRIPOS>BOND
     1    1    2 2
     2    1    3 1
     3    1    4 1
     4    1    5 1
     5    3   33 1
     6    4   34 1
     7    5    6 1
     8    6    7 2
     9    6    8 1
    10    6    9 1
    11    8   35 1
    12    9   10 1
    13   10   11 2
    14   10   12 1
    15   10   13 1
    16   12   36 1
    17   13   14 1
    18   14   15 1
    19   14   37 1
    20   14   38 1
    21   15   16 1
    22   15   17 1
    23   15   39 1
    24   16   21 1
    25   17   18 1
    26   17   19 1
    27   17   40 1
    28   18   41 1
    29   19   20 1
    30   19   21 1
    31   19   42 1
    32   20   43 1
    33   21   22 1
    34   21   44 1
    35   22   23 ar
    36   22   32 ar
    37   23   24 ar
    38   23   45 1
    39   24   25 ar
    40   25   26 ar
    41   25   32 ar
    42   26   27 2
    43   26   28 ar
    44   28   29 ar
    45   28   46 1
    46   29   30 1
    47   29   31 ar
    48   30   47 1
    49   30   48 1
    50   31   32 ar
@<TRIPOS>SUBSTRUCTURE
     1 GTP         1 GROUP 0 A     ****
@<TRIPOS>MOLECULE
[[5-(2-amino-6-oxo-1~{H}-purin-9-yl)-3,4-dihydroxy-tetrahydrofuran-2-yl]methoxy-hydroxy-phosphoryl] phosphono hydrogen phosphate
   48    50     1     0     0
SMALL
USER_CHARGES

@<TRIPOS>ATOM
      1 PG          1.1438    6.4650    1.7990 P.3       1 GTP         1.8160
      2 O1G         1.8300    6.9759    0.5665 O.2       1 GTP        -0.8277
      3 O2G         1.9861    5.3904    2.6636 O.3       1 GTP        -0.7983
      4 O3G         0.7498    7.5960    2.8845 O.3       1 GTP        -0.7983
      5 O3B        -0.2613    5.7148    1.5260 O.3       1 GTP        -0.8272
      6 PB         -1.6386    6.2202    0.8493 P.3       1 GTP         1.9429
      7 O1B        -2.2873    7.3803    1.5453 O.2       1 GTP        -0.8481
      8 O2B        -1.2393    6.4788   -0.6956 O.3       1 GTP        -0.8171
      9 O3A        -2.5313    4.8790    0.7447 O.3       1 GTP        -0.8114
     10 PA         -3.0702    3.8634    1.8796 P.3       1 GTP         1.8017
     11 O1A        -3.9589    4.5039    2.9059 O.2       1 GTP        -0.7846
     12 O2A        -3.7801    2.6911    1.0200 O.3       1 GTP        -0.8074
     13 O5'        -1.7335    3.1724    2.4745 O.3       1 GTP        -0.5669
     14 C5'        -0.8811    2.4285    1.6206 C.3       1 GTP         0.1637
     15 C4'        -0.1994    1.3333    2.4288 C.3       1 GTP         0.1099
     16 O4'        -1.1285    0.2356    2.5840 O.3       1 GTP        -0.4100
     17 C3'         1.0324    0.7610    1.7344 C.3       1 GTP         0.0924
     18 O3'         1.9175    0.2377    2.7247 O.3       1 GTP        -0.5892
     19 C2'         0.4468   -0.3802    0.9263 C.3       1 GTP         0.0635
     20 O2'         1.3993   -1.3703    0.5961 O.3       1 GTP        -0.5749
     21 C1'        -0.6159   -0.9100    1.8769 C.3       1 GTP         0.2557
     22 N9         -1.7127   -1.6108    1.2130 N.pl3     1 GTP        -0.2236
     23 C8         -2.8667   -1.0365    0.7385 C.ar      1 GTP         0.4148
     24 N7         -3.6757   -1.9196    0.1868 N.2       1 GTP        -0.5808
     25 C5         -3.0088   -3.1018    0.3164 C.ar      1 GTP         0.1777
     26 C6         -3.4148   -4.4130   -0.1079 C.ar      1 GTP         0.6505
     27 O6         -4.4752   -4.6480   -0.6732 O.2       1 GTP        -0.5947
     28 N1         -2.4377   -5.3653    0.2144 N.pl3     1 GTP        -0.5110
     29 C2         -1.2132   -5.0902    0.8680 C.ar      1 GTP         0.6844
     30 N2         -0.4066   -6.1772    1.0834 N.pl3     1 GTP        -0.8920
     31 N3         -0.8672   -3.8786    1.2457 N.2       1 GTP        -0.6705
     32 C4         -1.7966   -2.9451    0.9439 C.ar      1 GTP         0.1220
     33 HOG2        2.8558    5.6542    3.0323 H         1 GTP         0.5087
     34 HOG3        0.1420    8.3184    2.6183 H         1 GTP         0.5087
     35 HOB2       -1.9455    6.7086   -1.3364 H         1 GTP         0.5092
     36 HOA2       -4.1331    1.9060    1.4900 H         1 GTP         0.5041
     37 H5'        -1.4796    1.9923    0.8143 H         1 GTP         0.0584
     38 H5''       -0.1364    3.1037    1.1869 H         1 GTP         0.0584
     39 H4'         0.0402    1.7079    3.4343 H         1 GTP         0.1192
     40 H3'         1.5907    1.4859    1.1353 H         1 GTP         0.0735
     41 HO3'        2.6839   -0.1150    2.2479 H         1 GTP         0.4308
     42 H2'        -0.0017    0.0018    0.0005 H         1 GTP         0.0746
     43 HO2'        0.9369   -2.0558    0.0825 H         1 GTP         0.4224
     44 H1'        -0.1998   -1.6319    2.6178 H         1 GTP         0.1162
     45 H8         -3.0589    0.0244    0.8247 H         1 GTP         0.0741
     46 HN1        -2.6238   -6.3307   -0.0420 H         1 GTP         0.3343
     47 HN21        0.4646   -6.0341    1.5394 H         1 GTP         0.4229
     48 HN22       -0.7235   -7.0673    0.7753 H         1 GTP         0.4229
@<TRIPOS>BOND
     1    1    2 2
     2    1    3 1
     3    1    4 1
     4    1    5 1
     5    3   33 1
     6    4   34 1
     7    5    6 1
     8    6    7 2
     9    6    8 1
    10    6    9 1
    11    8   35 1
    12    9   10 1
    13   10   11 2
    14   10   12 1
    15   10   13 1
    16   12   36 1
    17   13   14 1
    18   14   15 1
    19   14   37 1
    20   14   38 1
    21   15   16 1
    22   15   17 1
    23   15   39 1
    24   16   21 1
    25   17   18 1
    26   17   19 1
    27   17   40 1
    28   18   41 1
    29   19   20 1
    30   19   21 1
    31   19   42 1
    32   20   43 1
    33   21   22 1
    34   21   44 1
    35   22   23 ar
    36   22   32 ar
    37   23   24 ar
    38   23   45 1
    39   24   25 ar
    40   25   26 ar
    41   25   32 ar
    42   26   27 2
    43   26   28 ar
    44   28   29 ar
    45   28   46 1
    46   29   30 1
    47   29   31 ar
    48   30   47 1
    49   30   48 1
    50   31   32 ar
@<TRIPOS>SUBSTRUCTURE
     1 GTP         1 GROUP 0 A     ****
@<TRIPOS>MOLECULE
[[5-(2-amino-6-oxo-1~{H}-purin-9-yl)-3,4-dihydroxy-tetrahydrofuran-2-yl]methoxy-hydroxy-phosphoryl] phosphono hydrogen phosphate
   48    50     1     0     0
SMALL
USER_CHARGES

@<TRIPOS>ATOM
      1 PG         -2.1459    3.8013   -4.7258 P.3       1 GTP         1.8160
      2 O1G        -3.6277    4.0338   -4.7614 O.2       1 GTP        -0.8277
      3 O2G        -1.6553    2.3788   -5.3154 O.3       1 GTP        -0.7983
      4 O3G        -1.2621    4.8753   -5.5493 O.3       1 GTP        -0.7983
      5 O3B        -1.4921    3.8456   -3.2485 O.3       1 GTP        -0.8272
      6 PB         -1.4356    5.0101   -2.1300 P.3       1 GTP         1.9429
      7 O1B        -0.7482    6.2682   -2.5726 O.2       1 GTP        -0.8481
      8 O2B        -2.9775    5.1892   -1.6787 O.3       1 GTP        -0.8171
      9 O3A        -0.7927    4.2773   -0.8431 O.3       1 GTP        -0.8114
     10 PA         -0.4423    4.8273    0.6350 P.3       1 GTP         1.8017
     11 O1A         0.5440    5.9589    0.6521 O.2       1 GTP        -0.7846
     12 O2A        -1.8939    5.1976    1.2457 O.3       1 GTP        -0.8074
     13 O5'         0.0173    3.5130    1.4593 O.3       1 GTP        -0.5669
     14 C5'        -0.8811    2.4285    1.6206 C.3       1 GTP         0.1637
     15 C4'        -0.1994    1.3333    2.4288 C.3       1 GTP         0.1099
     16 O4'        -1.1285    0.2356    2.5840 O.3       1 GTP        -0.4100
     17 C3'         1.0324    0.7610    1.7344 C.3       1 GTP         0.0924
     18 O3'         1.9175    0.2377    2.7247 O.3       1 GTP        -0.5892
     19 C2'         0.4468   -0.3802    0.9263 C.3       1 GTP         0.0635
     20 O2'         1.3993   -1.3703    0.5961 O.3       1 GTP        -0.5749
     21 C1'        -0.6159   -0.9100    1.8769 C.3       1 GTP         0.2557
     22 N9         -1.7127   -1.6108    1.2130 N.pl3     1 GTP        -0.2236
     23 C8         -2.8667   -1.0365    0.7385 C.ar      1 GTP         0.4148
     24 N7         -3.6757   -1.9196    0.1868 N.2       1 GTP        -0.5808
     25 C5         -3.0088   -3.1018    0.3164 C.ar      1 GTP         0.1777
     26 C6         -3.4148   -4.4130   -0.1079 C.ar      1 GTP         0.6505
     27 O6         -4.4752   -4.6480   -0.6732 O.2       1 GTP        -0.5947
     28 N1         -2.4377   -5.3653    0.2144 N.pl3     1 GTP        -0.5110
     29 C2         -1.2132   -5.0902    0.8680 C.ar      1 GTP         0.6844
     30 N2         -0.4066   -6.1772    1.0834 N.pl3     1 GTP        -0.8920
     31 N3         -0.8672   -3.8786    1.2457 N.2       1 GTP        -0.6705
     32 C4         -1.7966   -2.9451    0.9439 C.ar      1 GTP         0.1220
     33 HOG2       -1.8546    2.1577   -6.2500 H         1 GTP         0.5087
     34 HOG3       -1.3087    5.8220   -5.2966 H         1 GTP         0.5087
     35 HOB2       -3.6251    5.5360   -2.3287 H         1 GTP         0.5092
     36 HOA2       -2.4143    5.9167    0.8287 H         1 GTP         0.5041
     37 H5'        -1.7774    2.7844    2.1388 H         1 GTP         0.0584
     38 H5''       -1.1657    2.0536    0.6322 H         1 GTP         0.0584
     39 H4'         0.0402    1.7079    3.4343 H         1 GTP         0.1192
     40 H3'         1.5907    1.4859    1.1353 H         1 GTP         0.0735
     41 HO3'        2.6839   -0.1150    2.2479 H         1 GTP         0.4308
     42 H2'        -0.0017    0.0018    0.0005 H         1 GTP         0.0746
     43 HO2'        2.0953   -0.9375    0.0709 H         1 GTP         0.4224
     44 H1'        -0.1998   -1.6319    2.6178 H         1 GTP         0.1162
     45 H8         -3.0589    0.0244    0.8247 H         1 GTP         0.0741
     46 HN1        -2.6238   -6.3307   -0.0420 H         1 GTP         0.3343
     47 HN21        0.4646   -6.0341    1.5394 H         1 GTP         0.4229
     48 HN22       -0.7235   -7.0673    0.7753 H         1 GTP         0.4229
@<TRIPOS>BOND
     1    1    2 2
     2    1    3 1
     3    1    4 1
     4    1    5 1
     5    3   33 1
     6    4   34 1
     7    5    6 1
     8    6    7 2
     9    6    8 1
    10    6    9 1
    11    8   35 1
    12    9   10 1
    13   10   11 2
    14   10   12 1
    15   10   13 1
    16   12   36 1
    17   13   14 1
    18   14   15 1
    19   14   37 1
    20   14   38 1
    21   15   16 1
    22   15   17 1
    23   15   39 1
    24   16   21 1
    25   17   18 1
    26   17   19 1
    27   17   40 1
    28   18   41 1
    29   19   20 1
    30   19   21 1
    31   19   42 1
    32   20   43 1
    33   21   22 1
    34   21   44 1
    35   22   23 ar
    36   22   32 ar
    37   23   24 ar
    38   23   45 1
    39   24   25 ar
    40   25   26 ar
    41   25   32 ar
    42   26   27 2
    43   26   28 ar
    44   28   29 ar
    45   28   46 1
    46   29   30 1
    47   29   31 ar
    48   30   47 1
    49   30   48 1
    50   31   32 ar
@<TRIPOS>SUBSTRUCTURE
     1 GTP         1 GROUP 0 A     ****
@<TRIPOS>MOLECULE
[[5-(2-amino-6-oxo-1~{H}-purin-9-yl)-3,4-dihydroxy-tetrahydrofuran-2-yl]methoxy-hydroxy-phosphoryl] phosphono hydrogen phosphate
   48    50     1     0     0
SMALL
USER_CHARGES

@<TRIPOS>ATOM
      1 PG         -0.0894    8.1693   -1.0115 P.3       1 GTP         1.8160
      2 O1G        -0.6331    9.5268   -0.6760 O.2       1 GTP        -0.8277
      3 O2G        -0.3871    7.6580   -2.5154 O.3       1 GTP        -0.7983
      4 O3G         1.5139    8.0181   -0.8727 O.3       1 GTP        -0.7983
      5 O3B        -0.6514    6.9704   -0.0849 O.3       1 GTP        -0.8272
      6 PB         -2.1476    6.4166    0.1699 P.3       1 GTP         1.9429
      7 O1B        -3.0989    7.4271    0.7398 O.2       1 GTP        -0.8481
      8 O2B        -2.5782    5.7928   -1.2579 O.3       1 GTP        -0.8171
      9 O3A        -1.9206    5.0893    1.0606 O.3       1 GTP        -0.8114
     10 PA         -2.9681    4.0282    1.6824 P.3       1 GTP         1.8017
     11 O1A        -3.9590    4.6293    2.6364 O.2       1 GTP        -0.7846
     12 O2A        -3.6302    3.3503    0.3712 O.3       1 GTP        -0.8074
     13 O5'        -2.0398    2.8621    2.3123 O.3       1 GTP        -0.5669
     14 C5'        -0.8811    2.4285    1.6206 C.3       1 GTP         0.1637
     15 C4'        -0.1994    1.3333    2.4288 C.3       1 GTP         0.1099
     16 O4'        -1.1285    0.2356    2.5840 O.3       1 GTP        -0.4100
     17 C3'         1.0324    0.7610    1.7344 C.3       1 GTP         0.0924
     18 O3'         1.9175    0.2377    2.7247 O.3       1 GTP        -0.5892
     19 C2'         0.4468   -0.3802    0.9263 C.3       1 GTP         0.0635
     20 O2'         1.3993   -1.3703    0.5961 O.3       1 GTP        -0.5749
     21 C1'        -0.6159   -0.9100    1.8769 C.3       1 GTP         0.2557
     22 N9         -1.7127   -1.6108    1.2130 N.pl3     1 GTP        -0.2236
     23 C8         -2.8667   -1.0365    0.7385 C.ar      1 GTP         0.4148
     24 N7         -3.6757   -1.9196    0.1868 N.2       1 GTP        -0.5808
     25 C5         -3.0088   -3.1018    0.3164 C.ar      1 GTP         0.1777
     26 C6         -3.4148   -4.4130   -0.1079 C.ar      1 GTP         0.6505
     27 O6         -4.4752   -4.6480   -0.6732 O.2       1 GTP        -0.5947
     28 N1         -2.4377   -5.3653    0.2144 N.pl3     1 GTP        -0.5110
     29 C2         -1.2132   -5.0902    0.8680 C.ar      1 GTP         0.6844
     30 N2         -0.4066   -6.1772    1.0834 N.pl3     1 GTP        -0.8920
     31 N3         -0.8672   -3.8786    1.2457 N.2       1 GTP        -0.6705
     32 C4         -1.7966   -2.9451    0.9439 C.ar      1 GTP         0.1220
     33 HOG2       -0.0500    8.1841   -3.2715 H         1 GTP         0.5087
     34 HOG3        1.9319    8.1761    0.0004 H         1 GTP         0.5087
     35 HOB2       -2.6910    6.3947   -2.0242 H         1 GTP         0.5092
     36 HOA2       -4.1674    3.9080   -0.2308 H         1 GTP         0.5041
     37 H5'        -1.1763    2.0500    0.6366 H         1 GTP         0.0584
     38 H5''       -0.2075    3.2812    1.4874 H         1 GTP         0.0584
     39 H4'         0.0402    1.7079    3.4343 H         1 GTP         0.1192
     40 H3'         1.5907    1.4859    1.1353 H         1 GTP         0.0735
     41 HO3'        2.6839   -0.1150    2.2479 H         1 GTP         0.4308
     42 H2'        -0.0017    0.0018    0.0005 H         1 GTP         0.0746
     43 HO2'        2.0953   -0.9375    0.0709 H         1 GTP         0.4224
     44 H1'        -0.1998   -1.6319    2.6178 H         1 GTP         0.1162
     45 H8         -3.0589    0.0244    0.8247 H         1 GTP         0.0741
     46 HN1        -2.6238   -6.3307   -0.0420 H         1 GTP         0.3343
     47 HN21       -0.7237   -7.0672    0.7753 H         1 GTP         0.4229
     48 HN22        0.4646   -6.0344    1.5394 H         1 GTP         0.4229
@<TRIPOS>BOND
     1    1    2 2
     2    1    3 1
     3    1    4 1
     4    1    5 1
     5    3   33 1
     6    4   34 1
     7    5    6 1
     8    6    7 2
     9    6    8 1
    10    6    9 1
    11    8   35 1
    12    9   10 1
    13   10   11 2
    14   10   12 1
    15   10   13 1
    16   12   36 1
    17   13   14 1
    18   14   15 1
    19   14   37 1
    20   14   38 1
    21   15   16 1
    22   15   17 1
    23   15   39 1
    24   16   21 1
    25   17   18 1
    26   17   19 1
    27   17   40 1
    28   18   41 1
    29   19   20 1
    30   19   21 1
    31   19   42 1
    32   20   43 1
    33   21   22 1
    34   21   44 1
    35   22   23 ar
    36   22   32 ar
    37   23   24 ar
    38   23   45 1
    39   24   25 ar
    40   25   26 ar
    41   25   32 ar
    42   26   27 2
    43   26   28 ar
    44   28   29 ar
    45   28   46 1
    46   29   30 1
    47   29   31 ar
    48   30   47 1
    49   30   48 1
    50   31   32 ar
@<TRIPOS>SUBSTRUCTURE
     1 GTP         1 GROUP 0 A     ****
@<TRIPOS>MOLECULE
[[5-(2-amino-6-oxo-1~{H}-purin-9-yl)-3,4-dihydroxy-tetrahydrofuran-2-yl]methoxy-hydroxy-phosphoryl] phosphono hydrogen phosphate
   48    50     1     0     0
SMALL
USER_CHARGES

@<TRIPOS>ATOM
      1 PG         -0.0707    8.0214    2.4855 P.3       1 GTP         1.8160
      2 O1G         0.2305    6.9389    3.4798 O.2       1 GTP        -0.8277
      3 O2G        -1.0404    9.1990    3.0188 O.3       1 GTP        -0.7983
      4 O3G         1.2193    8.8195    1.9273 O.3       1 GTP        -0.7983
      5 O3B        -0.7985    7.5125    1.1353 O.3       1 GTP        -0.8272
      6 PB         -2.2059    6.7585    0.8888 P.3       1 GTP         1.9429
      7 O1B        -3.4113    7.5153    1.3634 O.2       1 GTP        -0.8481
      8 O2B        -2.1879    6.4106   -0.6897 O.3       1 GTP        -0.8171
      9 O3A        -1.9858    5.3044    1.5550 O.3       1 GTP        -0.8114
     10 PA         -2.9681    4.0282    1.6824 P.3       1 GTP         1.8017
     11 O1A        -4.2362    4.3013    2.4378 O.2       1 GTP        -0.7846
     12 O2A        -3.1908    3.5777    0.1446 O.3       1 GTP        -0.8074
     13 O5'        -2.0398    2.8621    2.3123 O.3       1 GTP        -0.5669
     14 C5'        -0.8811    2.4285    1.6206 C.3       1 GTP         0.1637
     15 C4'        -0.1994    1.3333    2.4288 C.3       1 GTP         0.1099
     16 O4'        -1.1285    0.2356    2.5840 O.3       1 GTP        -0.4100
     17 C3'         1.0324    0.7610    1.7344 C.3       1 GTP         0.0924
     18 O3'         1.9175    0.2377    2.7247 O.3       1 GTP        -0.5892
     19 C2'         0.4468   -0.3802    0.9263 C.3       1 GTP         0.0635
     20 O2'         1.3993   -1.3703    0.5961 O.3       1 GTP        -0.5749
     21 C1'        -0.6159   -0.9100    1.8769 C.3       1 GTP         0.2557
     22 N9         -1.7127   -1.6108    1.2130 N.pl3     1 GTP        -0.2236
     23 C8         -2.5489   -1.0812    0.2607 C.ar      1 GTP         0.4148
     24 N7         -3.4468   -1.9516   -0.1576 N.2       1 GTP        -0.5808
     25 C5         -3.1696   -3.0787    0.5579 C.ar      1 GTP         0.1777
     26 C6         -3.8307   -4.3536    0.5166 C.ar      1 GTP         0.6505
     27 O6         -4.7841   -4.6033   -0.2101 O.2       1 GTP        -0.5947
     28 N1         -3.2356   -5.2522    1.4132 N.pl3     1 GTP        -0.5110
     29 C2         -2.1338   -4.9602    2.2517 C.ar      1 GTP         0.6844
     30 N2         -1.7156   -5.9923    3.0507 N.pl3     1 GTP        -0.8920
     31 N3         -1.5477   -3.7827    2.2686 N.2       1 GTP        -0.6705
     32 C4         -2.1070   -2.9013    1.4104 C.ar      1 GTP         0.1220
     33 HOG2       -0.7594    9.7321    3.7927 H         1 GTP         0.5087
     34 HOG3        1.9183    8.3202    1.4537 H         1 GTP         0.5087
     35 HOB2       -2.2127    7.1461   -1.3382 H         1 GTP         0.5092
     36 HOA2       -3.6542    4.1894   -0.4662 H         1 GTP         0.5041
     37 H5'        -1.1763    2.0500    0.6366 H         1 GTP         0.0584
     38 H5''       -0.2075    3.2812    1.4874 H         1 GTP         0.0584
     39 H4'         0.0402    1.7079    3.4343 H         1 GTP         0.1192
     40 H3'         1.5907    1.4859    1.1353 H         1 GTP         0.0735
     41 HO3'        2.6839   -0.1150    2.2479 H         1 GTP         0.4308
     42 H2'        -0.0017    0.0018    0.0005 H         1 GTP         0.0746
     43 HO2'        2.0953   -0.9375    0.0709 H         1 GTP         0.4224
     44 H1'        -0.1998   -1.6319    2.6178 H         1 GTP         0.1162
     45 H8         -2.4545   -0.0604   -0.0844 H         1 GTP         0.0741
     46 HN1        -3.6270   -6.1884    1.4651 H         1 GTP         0.3343
     47 HN21       -0.9445   -5.8354    3.6574 H         1 GTP         0.4229
     48 HN22       -2.1993   -6.8585    2.9930 H         1 GTP         0.4229
@<TRIPOS>BOND
     1    1    2 2
     2    1    3 1
     3    1    4 1
     4    1    5 1
     5    3   33 1
     6    4   34 1
     7    5    6 1
     8    6    7 2
     9    6    8 1
    10    6    9 1
    11    8   35 1
    12    9   10 1
    13   10   11 2
    14   10   12 1
    15   10   13 1
    16   12   36 1
    17   13   14 1
    18   14   15 1
    19   14   37 1
    20   14   38 1
    21   15   16 1
    22   15   17 1
    23   15   39 1
    24   16   21 1
    25   17   18 1
    26   17   19 1
    27   17   40 1
    28   18   41 1
    29   19   20 1
    30   19   21 1
    31   19   42 1
    32   20   43 1
    33   21   22 1
    34   21   44 1
    35   22   23 ar
    36   22   32 ar
    37   23   24 ar
    38   23   45 1
    39   24   25 ar
    40   25   26 ar
    41   25   32 ar
    42   26   27 2
    43   26   28 ar
    44   28   29 ar
    45   28   46 1
    46   29   30 1
    47   29   31 ar
    48   30   47 1
    49   30   48 1
    50   31   32 ar
@<TRIPOS>SUBSTRUCTURE
     1 GTP         1 GROUP 0 A     ****
@<TRIPOS>MOLECULE
[[5-(2-amino-6-oxo-1~{H}-purin-9-yl)-3,4-dihydroxy-tetrahydrofuran-2-yl]methoxy-hydroxy-phosphoryl] phosphono hydrogen phosphate
   48    50     1     0     0
SMALL
USER_CHARGES

@<TRIPOS>ATOM
      1 PG         -0.3027    7.2471   -3.6844 P.3       1 GTP         1.8160
      2 O1G        -0.1407    6.6131   -5.0345 O.2       1 GTP        -0.8277
      3 O2G         0.8874    8.2477   -3.2438 O.3       1 GTP        -0.7983
      4 O3G        -1.6353    8.1434   -3.5020 O.3       1 GTP        -0.7983
      5 O3B        -0.3940    6.2015   -2.4556 O.3       1 GTP        -0.8272
      6 PB         -1.4356    5.0101   -2.1300 P.3       1 GTP         1.9429
      7 O1B        -2.8620    5.4509   -1.9821 O.2       1 GTP        -0.8481
      8 O2B        -1.1661    3.9290   -3.3012 O.3       1 GTP        -0.8171
      9 O3A        -0.7927    4.2773   -0.8431 O.3       1 GTP        -0.8114
     10 PA         -0.4423    4.8273    0.6350 P.3       1 GTP         1.8017
     11 O1A         0.5440    5.9589    0.6521 O.2       1 GTP        -0.7846
     12 O2A        -1.8939    5.1976    1.2457 O.3       1 GTP        -0.8074
     13 O5'         0.0173    3.5130    1.4593 O.3       1 GTP        -0.5669
     14 C5'        -0.8811    2.4285    1.6206 C.3       1 GTP         0.1637
     15 C4'        -0.1994    1.3333    2.4288 C.3       1 GTP         0.1099
     16 O4'        -1.1285    0.2356    2.5840 O.3       1 GTP        -0.4100
     17 C3'         1.0324    0.7610    1.7344 C.3       1 GTP         0.0924
     18 O3'         1.9175    0.2377    2.7247 O.3       1 GTP        -0.5892
     19 C2'         0.4468   -0.3802    0.9263 C.3       1 GTP         0.0635
     20 O2'         1.3993   -1.3703    0.5961 O.3       1 GTP        -0.5749
     21 C1'        -0.6159   -0.9100    1.8769 C.3       1 GTP         0.2557
     22 N9         -1.7127   -1.6108    1.2130 N.pl3     1 GTP        -0.2236
     23 C8         -1.7695   -2.9586    0.9546 C.ar      1 GTP         0.4148
     24 N7         -2.8846   -3.3047    0.3416 N.2       1 GTP        -0.5808
     25 C5         -3.5626   -2.1296    0.2052 C.ar      1 GTP         0.1777
     26 C6         -4.8477   -1.8989   -0.3942 C.ar      1 GTP         0.6505
     27 O6         -5.5373   -2.7819   -0.8881 O.2       1 GTP        -0.5947
     28 N1         -5.1895   -0.5407   -0.3318 N.pl3     1 GTP        -0.5110
     29 C2         -4.3899    0.4774    0.2398 C.ar      1 GTP         0.6844
     30 N2         -4.9233    1.7390    0.1898 N.pl3     1 GTP        -0.8920
     31 N3         -3.2159    0.2369    0.7822 N.2       1 GTP        -0.6705
     32 C4         -2.8678   -1.0679    0.7322 C.ar      1 GTP         0.1220
     33 HOG2        1.0747    9.0359   -3.7967 H         1 GTP         0.5087
     34 HOG3       -2.5123    7.7189   -3.6153 H         1 GTP         0.5087
     35 HOB2       -1.6250    3.0630   -3.2625 H         1 GTP         0.5092
     36 HOA2       -2.4143    5.9167    0.8287 H         1 GTP         0.5041
     37 H5'        -1.7774    2.7844    2.1388 H         1 GTP         0.0584
     38 H5''       -1.1657    2.0536    0.6322 H         1 GTP         0.0584
     39 H4'         0.0402    1.7079    3.4343 H         1 GTP         0.1192
     40 H3'         1.5907    1.4859    1.1353 H         1 GTP         0.0735
     41 HO3'        2.6839   -0.1150    2.2479 H         1 GTP         0.4308
     42 H2'        -0.0017    0.0018    0.0005 H         1 GTP         0.0746
     43 HO2'        2.0953   -0.9375    0.0709 H         1 GTP         0.4224
     44 H1'        -0.1998   -1.6319    2.6178 H         1 GTP         0.1162
     45 H8         -0.9713   -3.6323    1.2352 H         1 GTP         0.0741
     46 HN1        -6.0831   -0.2651   -0.7290 H         1 GTP         0.3343
     47 HN21       -4.3984    2.4878    0.5788 H         1 GTP         0.4229
     48 HN22       -5.8145    1.8572   -0.2335 H         1 GTP         0.4229
@<TRIPOS>BOND
     1    1    2 2
     2    1    3 1
     3    1    4 1
     4    1    5 1
     5    3   33 1
     6    4   34 1
     7    5    6 1
     8    6    7 2
     9    6    8 1
    10    6    9 1
    11    8   35 1
    12    9   10 1
    13   10   11 2
    14   10   12 1
    15   10   13 1
    16   12   36 1
    17   13   14 1
    18   14   15 1
    19   14   37 1
    20   14   38 1
    21   15   16 1
    22   15   17 1
    23   15   39 1
    24   16   21 1
    25   17   18 1
    26   17   19 1
    27   17   40 1
    28   18   41 1
    29   19   20 1
    30   19   21 1
    31   19   42 1
    32   20   43 1
    33   21   22 1
    34   21   44 1
    35   22   23 ar
    36   22   32 ar
    37   23   24 ar
    38   23   45 1
    39   24   25 ar
    40   25   26 ar
    41   25   32 ar
    42   26   27 2
    43   26   28 ar
    44   28   29 ar
    45   28   46 1
    46   29   30 1
    47   29   31 ar
    48   30   47 1
    49   30   48 1
    50   31   32 ar
@<TRIPOS>SUBSTRUCTURE
     1 GTP         1 GROUP 0 A     ****
@<TRIPOS>MOLECULE
[[5-(2-amino-6-oxo-1~{H}-purin-9-yl)-3,4-dihydroxy-tetrahydrofuran-2-yl]methoxy-hydroxy-phosphoryl] phosphono hydrogen phosphate
   48    50     1     0     0
SMALL
USER_CHARGES

@<TRIPOS>ATOM
      1 PG         -0.7280    6.0583   -1.9522 P.3       1 GTP         1.8160
      2 O1G        -1.2041    4.6883   -2.3361 O.2       1 GTP        -0.8277
      3 O2G         0.8331    6.1587   -1.5462 O.3       1 GTP        -0.7983
      4 O3G        -0.8931    7.1884   -3.0960 O.3       1 GTP        -0.7983
      5 O3B        -1.4923    6.7066   -0.6844 O.3       1 GTP        -0.8272
      6 PB         -1.6386    6.2202    0.8493 P.3       1 GTP         1.9429
      7 O1B        -0.3395    6.0806    1.5867 O.2       1 GTP        -0.8481
      8 O2B        -2.6860    7.2712    1.4909 O.3       1 GTP        -0.8171
      9 O3A        -2.5313    4.8790    0.7447 O.3       1 GTP        -0.8114
     10 PA         -3.0702    3.8634    1.8796 P.3       1 GTP         1.8017
     11 O1A        -3.9589    4.5039    2.9059 O.2       1 GTP        -0.7846
     12 O2A        -3.7801    2.6911    1.0200 O.3       1 GTP        -0.8074
     13 O5'        -1.7335    3.1724    2.4745 O.3       1 GTP        -0.5669
     14 C5'        -0.8811    2.4285    1.6206 C.3       1 GTP         0.1637
     15 C4'        -0.1994    1.3333    2.4288 C.3       1 GTP         0.1099
     16 O4'        -1.1285    0.2356    2.5840 O.3       1 GTP        -0.4100
     17 C3'         1.0324    0.7610    1.7344 C.3       1 GTP         0.0924
     18 O3'         1.9175    0.2377    2.7247 O.3       1 GTP        -0.5892
     19 C2'         0.4468   -0.3802    0.9263 C.3       1 GTP         0.0635
     20 O2'         1.3993   -1.3703    0.5961 O.3       1 GTP        -0.5749
     21 C1'        -0.6159   -0.9100    1.8769 C.3       1 GTP         0.2557
     22 N9         -1.7127   -1.6108    1.2130 N.pl3     1 GTP        -0.2236
     23 C8         -2.5489   -1.0812    0.2607 C.ar      1 GTP         0.4148
     24 N7         -3.4468   -1.9516   -0.1576 N.2       1 GTP        -0.5808
     25 C5         -3.1696   -3.0787    0.5579 C.ar      1 GTP         0.1777
     26 C6         -3.8307   -4.3536    0.5166 C.ar      1 GTP         0.6505
     27 O6         -4.7841   -4.6033   -0.2101 O.2       1 GTP        -0.5947
     28 N1         -3.2356   -5.2522    1.4132 N.pl3     1 GTP        -0.5110
     29 C2         -2.1338   -4.9602    2.2517 C.ar      1 GTP         0.6844
     30 N2         -1.7156   -5.9923    3.0507 N.pl3     1 GTP        -0.8920
     31 N3         -1.5477   -3.7827    2.2686 N.2       1 GTP        -0.6705
     32 C4         -2.1070   -2.9013    1.4104 C.ar      1 GTP         0.1220
     33 HOG2        1.1619    5.6298   -0.7884 H         1 GTP         0.5087
     34 HOG3       -0.4352    7.0654   -3.9547 H         1 GTP         0.5087
     35 HOB2       -2.4208    8.2113    1.5797 H         1 GTP         0.5092
     36 HOA2       -4.1331    1.9060    1.4900 H         1 GTP         0.5041
     37 H5'        -1.4796    1.9923    0.8143 H         1 GTP         0.0584
     38 H5''       -0.1364    3.1037    1.1869 H         1 GTP         0.0584
     39 H4'         0.0402    1.7079    3.4343 H         1 GTP         0.1192
     40 H3'         1.5907    1.4859    1.1353 H         1 GTP         0.0735
     41 HO3'        2.6839   -0.1150    2.2479 H         1 GTP         0.4308
     42 H2'        -0.0017    0.0018    0.0005 H         1 GTP         0.0746
     43 HO2'        2.0953   -0.9375    0.0709 H         1 GTP         0.4224
     44 H1'        -0.1998   -1.6319    2.6178 H         1 GTP         0.1162
     45 H8         -2.4545   -0.0604   -0.0844 H         1 GTP         0.0741
     46 HN1        -3.6270   -6.1884    1.4651 H         1 GTP         0.3343
     47 HN21       -0.9445   -5.8354    3.6574 H         1 GTP         0.4229
     48 HN22       -2.1993   -6.8585    2.9930 H         1 GTP         0.4229
@<TRIPOS>BOND
     1    1    2 2
     2    1    3 1
     3    1    4 1
     4    1    5 1
     5    3   33 1
     6    4   34 1
     7    5    6 1
     8    6    7 2
     9    6    8 1
    10    6    9 1
    11    8   35 1
    12    9   10 1
    13   10   11 2
    14   10   12 1
    15   10   13 1
    16   12   36 1
    17   13   14 1
    18   14   15 1
    19   14   37 1
    20   14   38 1
    21   15   16 1
    22   15   17 1
    23   15   39 1
    24   16   21 1
    25   17   18 1
    26   17   19 1
    27   17   40 1
    28   18   41 1
    29   19   20 1
    30   19   21 1
    31   19   42 1
    32   20   43 1
    33   21   22 1
    34   21   44 1
    35   22   23 ar
    36   22   32 ar
    37   23   24 ar
    38   23   45 1
    39   24   25 ar
    40   25   26 ar
    41   25   32 ar
    42   26   27 2
    43   26   28 ar
    44   28   29 ar
    45   28   46 1
    46   29   30 1
    47   29   31 ar
    48   30   47 1
    49   30   48 1
    50   31   32 ar
@<TRIPOS>SUBSTRUCTURE
     1 GTP         1 GROUP 0 A     ****
@<TRIPOS>MOLECULE
[[5-(2-amino-6-oxo-1~{H}-purin-9-yl)-3,4-dihydroxy-tetrahydrofuran-2-yl]methoxy-hydroxy-phosphoryl] phosphono hydrogen phosphate
   48    50     1     0     0
SMALL
USER_CHARGES

@<TRIPOS>ATOM
      1 PG         -1.9560    2.7275   -3.6411 P.3       1 GTP         1.8160
      2 O1G        -0.9386    1.8629   -2.9567 O.2       1 GTP        -0.8277
      3 O2G        -1.3851    3.6499   -4.8390 O.3       1 GTP        -0.7983
      4 O3G        -3.1819    1.9309   -4.3305 O.3       1 GTP        -0.7983
      5 O3B        -2.7041    3.7830   -2.6727 O.3       1 GTP        -0.8272
      6 PB         -2.1435    4.9937   -1.7616 P.3       1 GTP         1.9429
      7 O1B        -1.4193    6.0646   -2.5230 O.2       1 GTP        -0.8481
      8 O2B        -3.4419    5.4918   -0.9374 O.3       1 GTP        -0.8171
      9 O3A        -1.2850    4.2479   -0.6156 O.3       1 GTP        -0.8114
     10 PA         -0.4423    4.8273    0.6350 P.3       1 GTP         1.8017
     11 O1A         0.6756    5.7513    0.2478 O.2       1 GTP        -0.7846
     12 O2A        -1.5790    5.5072    1.5639 O.3       1 GTP        -0.8074
     13 O5'         0.0173    3.5130    1.4593 O.3       1 GTP        -0.5669
     14 C5'        -0.8811    2.4285    1.6206 C.3       1 GTP         0.1637
     15 C4'        -0.1994    1.3333    2.4288 C.3       1 GTP         0.1099
     16 O4'        -1.1285    0.2356    2.5840 O.3       1 GTP        -0.4100
     17 C3'         1.0324    0.7610    1.7344 C.3       1 GTP         0.0924
     18 O3'         1.9175    0.2377    2.7247 O.3       1 GTP        -0.5892
     19 C2'         0.4468   -0.3802    0.9263 C.3       1 GTP         0.0635
     20 O2'         1.3993   -1.3703    0.5961 O.3       1 GTP        -0.5749
     21 C1'        -0.6159   -0.9100    1.8769 C.3       1 GTP         0.2557
     22 N9         -1.7127   -1.6108    1.2130 N.pl3     1 GTP        -0.2236
     23 C8         -2.8667   -1.0365    0.7385 C.ar      1 GTP         0.4148
     24 N7         -3.6757   -1.9196    0.1868 N.2       1 GTP        -0.5808
     25 C5         -3.0088   -3.1018    0.3164 C.ar      1 GTP         0.1777
     26 C6         -3.4148   -4.4130   -0.1079 C.ar      1 GTP         0.6505
     27 O6         -4.4752   -4.6480   -0.6732 O.2       1 GTP        -0.5947
     28 N1         -2.4377   -5.3653    0.2144 N.pl3     1 GTP        -0.5110
     29 C2         -1.2132   -5.0902    0.8680 C.ar      1 GTP         0.6844
     30 N2         -0.4066   -6.1772    1.0834 N.pl3     1 GTP        -0.8920
     31 N3         -0.8672   -3.8786    1.2457 N.2       1 GTP        -0.6705
     32 C4         -1.7966   -2.9451    0.9439 C.ar      1 GTP         0.1220
     33 HOG2       -0.9608    3.2178   -5.6106 H         1 GTP         0.5087
     34 HOG3       -3.7598    1.3711   -3.7695 H         1 GTP         0.5087
     35 HOB2       -4.1842    5.9064   -1.4264 H         1 GTP         0.5092
     36 HOA2       -2.0748    6.2794    1.2177 H         1 GTP         0.5041
     37 H5'        -1.7774    2.7844    2.1388 H         1 GTP         0.0584
     38 H5''       -1.1657    2.0536    0.6322 H         1 GTP         0.0584
     39 H4'         0.0402    1.7079    3.4343 H         1 GTP         0.1192
     40 H3'         1.5907    1.4859    1.1353 H         1 GTP         0.0735
     41 HO3'        2.1521    0.9800    3.3017 H         1 GTP         0.4308
     42 H2'        -0.0017    0.0018    0.0005 H         1 GTP         0.0746
     43 HO2'        0.9369   -2.0558    0.0825 H         1 GTP         0.4224
     44 H1'        -0.1998   -1.6319    2.6178 H         1 GTP         0.1162
     45 H8         -3.0589    0.0244    0.8247 H         1 GTP         0.0741
     46 HN1        -2.6238   -6.3307   -0.0420 H         1 GTP         0.3343
     47 HN21       -0.7237   -7.0672    0.7753 H         1 GTP         0.4229
     48 HN22        0.4646   -6.0344    1.5394 H         1 GTP         0.4229
@<TRIPOS>BOND
     1    1    2 2
     2    1    3 1
     3    1    4 1
     4    1    5 1
     5    3   33 1
     6    4   34 1
     7    5    6 1
     8    6    7 2
     9    6    8 1
    10    6    9 1
    11    8   35 1
    12    9   10 1
    13   10   11 2
    14   10   12 1
    15   10   13 1
    16   12   36 1
    17   13   14 1
    18   14   15 1
    19   14   37 1
    20   14   38 1
    21   15   16 1
    22   15   17 1
    23   15   39 1
    24   16   21 1
    25   17   18 1
    26   17   19 1
    27   17   40 1
    28   18   41 1
    29   19   20 1
    30   19   21 1
    31   19   42 1
    32   20   43 1
    33   21   22 1
    34   21   44 1
    35   22   23 ar
    36   22   32 ar
    37   23   24 ar
    38   23   45 1
    39   24   25 ar
    40   25   26 ar
    41   25   32 ar
    42   26   27 2
    43   26   28 ar
    44   28   29 ar
    45   28   46 1
    46   29   30 1
    47   29   31 ar
    48   30   47 1
    49   30   48 1
    50   31   32 ar
@<TRIPOS>SUBSTRUCTURE
     1 GTP         1 GROUP 0 A     ****
@<TRIPOS>MOLECULE
[[5-(2-amino-6-oxo-1~{H}-purin-9-yl)-3,4-dihydroxy-tetrahydrofuran-2-yl]methoxy-hydroxy-phosphoryl] phosphono hydrogen phosphate
   48    50     1     0     0
SMALL
USER_CHARGES

@<TRIPOS>ATOM
      1 PG         -4.9676    7.6681   -0.6614 P.3       1 GTP         1.8160
      2 O1G        -6.2499    7.2781   -1.3356 O.2       1 GTP        -0.8277
      3 O2G        -3.8983    8.4337   -1.6006 O.3       1 GTP        -0.7983
      4 O3G        -5.1314    8.6572    0.6065 O.3       1 GTP        -0.7983
      5 O3B        -4.1225    6.4317   -0.0540 O.3       1 GTP        -0.8272
      6 PB         -3.4745    5.1252   -0.7491 P.3       1 GTP         1.9429
      7 O1B        -4.4614    4.2313   -1.4404 O.2       1 GTP        -0.8481
      8 O2B        -2.3093    5.7268   -1.6944 O.3       1 GTP        -0.8171
      9 O3A        -2.6221    4.4398    0.4384 O.3       1 GTP        -0.8114
     10 PA         -3.0702    3.8634    1.8796 P.3       1 GTP         1.8017
     11 O1A        -3.7062    4.8832    2.7789 O.2       1 GTP        -0.7846
     12 O2A        -4.0303    2.6186    1.4978 O.3       1 GTP        -0.8074
     13 O5'        -1.7335    3.1724    2.4745 O.3       1 GTP        -0.5669
     14 C5'        -0.8811    2.4285    1.6206 C.3       1 GTP         0.1637
     15 C4'        -0.1994    1.3333    2.4288 C.3       1 GTP         0.1099
     16 O4'        -1.1285    0.2356    2.5840 O.3       1 GTP        -0.4100
     17 C3'         1.0324    0.7610    1.7344 C.3       1 GTP         0.0924
     18 O3'         1.9175    0.2377    2.7247 O.3       1 GTP        -0.5892
     19 C2'         0.4468   -0.3802    0.9263 C.3       1 GTP         0.0635
     20 O2'         1.3993   -1.3703    0.5961 O.3       1 GTP        -0.5749
     21 C1'        -0.6159   -0.9100    1.8769 C.3       1 GTP         0.2557
     22 N9         -1.7127   -1.6108    1.2130 N.pl3     1 GTP        -0.2236
     23 C8         -2.8667   -1.0365    0.7385 C.ar      1 GTP         0.4148
     24 N7         -3.6757   -1.9196    0.1868 N.2       1 GTP        -0.5808
     25 C5         -3.0088   -3.1018    0.3164 C.ar      1 GTP         0.1777
     26 C6         -3.4148   -4.4130   -0.1079 C.ar      1 GTP         0.6505
     27 O6         -4.4752   -4.6480   -0.6732 O.2       1 GTP        -0.5947
     28 N1         -2.4377   -5.3653    0.2144 N.pl3     1 GTP        -0.5110
     29 C2         -1.2132   -5.0902    0.8680 C.ar      1 GTP         0.6844
     30 N2         -0.4066   -6.1772    1.0834 N.pl3     1 GTP        -0.8920
     31 N3         -0.8672   -3.8786    1.2457 N.2       1 GTP        -0.6705
     32 C4         -1.7966   -2.9451    0.9439 C.ar      1 GTP         0.1220
     33 HOG2       -3.5561    7.9789   -2.3994 H         1 GTP         0.5087
     34 HOG3       -5.5468    9.5357    0.4729 H         1 GTP         0.5087
     35 HOB2       -1.7061    5.1070   -2.1572 H         1 GTP         0.5092
     36 HOA2       -4.8723    2.7961    1.0272 H         1 GTP         0.5041
     37 H5'        -1.4796    1.9923    0.8143 H         1 GTP         0.0584
     38 H5''       -0.1364    3.1037    1.1869 H         1 GTP         0.0584
     39 H4'         0.0402    1.7079    3.4343 H         1 GTP         0.1192
     40 H3'         1.5907    1.4859    1.1353 H         1 GTP         0.0735
     41 HO3'        2.6839   -0.1150    2.2479 H         1 GTP         0.4308
     42 H2'        -0.0017    0.0018    0.0005 H         1 GTP         0.0746
     43 HO2'        2.0953   -0.9375    0.0709 H         1 GTP         0.4224
     44 H1'        -0.1998   -1.6319    2.6178 H         1 GTP         0.1162
     45 H8         -3.0589    0.0244    0.8247 H         1 GTP         0.0741
     46 HN1        -2.6238   -6.3307   -0.0420 H         1 GTP         0.3343
     47 HN21        0.4646   -6.0341    1.5394 H         1 GTP         0.4229
     48 HN22       -0.7235   -7.0673    0.7753 H         1 GTP         0.4229
@<TRIPOS>BOND
     1    1    2 2
     2    1    3 1
     3    1    4 1
     4    1    5 1
     5    3   33 1
     6    4   34 1
     7    5    6 1
     8    6    7 2
     9    6    8 1
    10    6    9 1
    11    8   35 1
    12    9   10 1
    13   10   11 2
    14   10   12 1
    15   10   13 1
    16   12   36 1
    17   13   14 1
    18   14   15 1
    19   14   37 1
    20   14   38 1
    21   15   16 1
    22   15   17 1
    23   15   39 1
    24   16   21 1
    25   17   18 1
    26   17   19 1
    27   17   40 1
    28   18   41 1
    29   19   20 1
    30   19   21 1
    31   19   42 1
    32   20   43 1
    33   21   22 1
    34   21   44 1
    35   22   23 ar
    36   22   32 ar
    37   23   24 ar
    38   23   45 1
    39   24   25 ar
    40   25   26 ar
    41   25   32 ar
    42   26   27 2
    43   26   28 ar
    44   28   29 ar
    45   28   46 1
    46   29   30 1
    47   29   31 ar
    48   30   47 1
    49   30   48 1
    50   31   32 ar
@<TRIPOS>SUBSTRUCTURE
     1 GTP         1 GROUP 0 A     ****
@<TRIPOS>MOLECULE
[[5-(2-amino-6-oxo-1~{H}-purin-9-yl)-3,4-dihydroxy-tetrahydrofuran-2-yl]methoxy-hydroxy-phosphoryl] phosphono hydrogen phosphate
   48    50     1     0     0
SMALL
USER_CHARGES

@<TRIPOS>ATOM
      1 PG         -2.9854    4.8725   -3.8468 P.3       1 GTP         1.8160
      2 O1G        -2.5625    3.6584   -4.6203 O.2       1 GTP        -0.8277
      3 O2G        -2.3835    6.2749   -4.3786 O.3       1 GTP        -0.7983
      4 O3G        -4.5792    5.1388   -3.8039 O.3       1 GTP        -0.7983
      5 O3B        -2.5758    4.8520   -2.2837 O.3       1 GTP        -0.8272
      6 PB         -1.1406    4.7616   -1.5473 P.3       1 GTP         1.9429
      7 O1B        -0.3525    3.5252   -1.8651 O.2       1 GTP        -0.8481
      8 O2B        -0.4195    6.1565   -1.9312 O.3       1 GTP        -0.8171
      9 O3A        -1.4932    4.9848    0.0124 O.3       1 GTP        -0.8114
     10 PA         -0.5527    5.0214    1.3254 P.3       1 GTP         1.8017
     11 O1A         0.4988    6.0924    1.2989 O.2       1 GTP        -0.7846
     12 O2A        -1.6150    5.1587    2.5377 O.3       1 GTP        -0.8074
     13 O5'         0.0173    3.5130    1.4593 O.3       1 GTP        -0.5669
     14 C5'        -0.8811    2.4285    1.6206 C.3       1 GTP         0.1637
     15 C4'        -0.1994    1.3333    2.4288 C.3       1 GTP         0.1099
     16 O4'        -1.1285    0.2356    2.5840 O.3       1 GTP        -0.4100
     17 C3'         1.0324    0.7610    1.7344 C.3       1 GTP         0.0924
     18 O3'         1.9175    0.2377    2.7247 O.3       1 GTP        -0.5892
     19 C2'         0.4468   -0.3802    0.9263 C.3       1 GTP         0.0635
     20 O2'         1.3993   -1.3703    0.5961 O.3       1 GTP        -0.5749
     21 C1'        -0.6159   -0.9100    1.8769 C.3       1 GTP         0.2557
     22 N9         -1.7127   -1.6108    1.2130 N.pl3     1 GTP        -0.2236
     23 C8         -2.0873   -2.9139    1.4324 C.ar      1 GTP         0.4148
     24 N7         -3.1135   -3.2727    0.6860 N.2       1 GTP        -0.5808
     25 C5         -3.4017   -2.1526   -0.0362 C.ar      1 GTP         0.1777
     26 C6         -4.4318   -1.9582   -1.0186 C.ar      1 GTP         0.6505
     27 O6         -5.2284   -2.8266   -1.3513 O.2       1 GTP        -0.5947
     28 N1         -4.3916   -0.6538   -1.5306 N.pl3     1 GTP        -0.5110
     29 C2         -3.4693    0.3474   -1.1439 C.ar      1 GTP         0.6844
     30 N2         -3.6143    1.5541   -1.7775 N.pl3     1 GTP        -0.8920
     31 N3         -2.5355    0.1410   -0.2407 N.2       1 GTP        -0.6705
     32 C4         -2.5574   -1.1117    0.2656 C.ar      1 GTP         0.1220
     33 HOG2       -1.4106    6.3976   -4.3976 H         1 GTP         0.5087
     34 HOG3       -5.0602    5.2778   -4.6474 H         1 GTP         0.5087
     35 HOB2        0.4429    6.3745   -1.5178 H         1 GTP         0.5092
     36 HOA2       -1.2863    5.1327    3.4614 H         1 GTP         0.5041
     37 H5'        -1.7774    2.7844    2.1388 H         1 GTP         0.0584
     38 H5''       -1.1657    2.0536    0.6322 H         1 GTP         0.0584
     39 H4'         0.0402    1.7079    3.4343 H         1 GTP         0.1192
     40 H3'         1.5907    1.4859    1.1353 H         1 GTP         0.0735
     41 HO3'        2.6839   -0.1150    2.2479 H         1 GTP         0.4308
     42 H2'        -0.0017    0.0018    0.0005 H         1 GTP         0.0746
     43 HO2'        2.0953   -0.9375    0.0709 H         1 GTP         0.4224
     44 H1'        -0.1998   -1.6319    2.6178 H         1 GTP         0.1162
     45 H8         -1.5757   -3.5474    2.1443 H         1 GTP         0.0741
     46 HN1        -5.0800   -0.4074   -2.2361 H         1 GTP         0.3343
     47 HN21       -2.9894    2.2891   -1.5392 H         1 GTP         0.4229
     48 HN22       -4.3387    1.6483   -2.4512 H         1 GTP         0.4229
@<TRIPOS>BOND
     1    1    2 2
     2    1    3 1
     3    1    4 1
     4    1    5 1
     5    3   33 1
     6    4   34 1
     7    5    6 1
     8    6    7 2
     9    6    8 1
    10    6    9 1
    11    8   35 1
    12    9   10 1
    13   10   11 2
    14   10   12 1
    15   10   13 1
    16   12   36 1
    17   13   14 1
    18   14   15 1
    19   14   37 1
    20   14   38 1
    21   15   16 1
    22   15   17 1
    23   15   39 1
    24   16   21 1
    25   17   18 1
    26   17   19 1
    27   17   40 1
    28   18   41 1
    29   19   20 1
    30   19   21 1
    31   19   42 1
    32   20   43 1
    33   21   22 1
    34   21   44 1
    35   22   23 ar
    36   22   32 ar
    37   23   24 ar
    38   23   45 1
    39   24   25 ar
    40   25   26 ar
    41   25   32 ar
    42   26   27 2
    43   26   28 ar
    44   28   29 ar
    45   28   46 1
    46   29   30 1
    47   29   31 ar
    48   30   47 1
    49   30   48 1
    50   31   32 ar
@<TRIPOS>SUBSTRUCTURE
     1 GTP         1 GROUP 0 A     ****
@<TRIPOS>MOLECULE
[[5-(2-amino-6-oxo-1~{H}-purin-9-yl)-3,4-dihydroxy-tetrahydrofuran-2-yl]methoxy-hydroxy-phosphoryl] phosphono hydrogen phosphate
   48    50     1     0     0
SMALL
USER_CHARGES

@<TRIPOS>ATOM
      1 PG         -4.1270    8.8436    1.7044 P.3       1 GTP         1.8160
      2 O1G        -4.6781    9.2699    0.3757 O.2       1 GTP        -0.8277
      3 O2G        -2.9729    9.7978    2.3121 O.3       1 GTP        -0.7983
      4 O3G        -5.2105    8.7544    2.9006 O.3       1 GTP        -0.7983
      5 O3B        -3.4502    7.3761    1.7137 O.3       1 GTP        -0.8272
      6 PB         -2.2059    6.7585    0.8888 P.3       1 GTP         1.9429
      7 O1B        -2.3768    6.7716   -0.6017 O.2       1 GTP        -0.8481
      8 O2B        -0.9280    7.5785    1.4434 O.3       1 GTP        -0.8171
      9 O3A        -1.9858    5.3044    1.5550 O.3       1 GTP        -0.8114
     10 PA         -2.9681    4.0282    1.6824 P.3       1 GTP         1.8017
     11 O1A        -4.2362    4.3013    2.4378 O.2       1 GTP        -0.7846
     12 O2A        -3.1908    3.5777    0.1446 O.3       1 GTP        -0.8074
     13 O5'        -2.0398    2.8621    2.3123 O.3       1 GTP        -0.5669
     14 C5'        -0.8811    2.4285    1.6206 C.3       1 GTP         0.1637
     15 C4'        -0.1994    1.3333    2.4288 C.3       1 GTP         0.1099
     16 O4'        -1.1285    0.2356    2.5840 O.3       1 GTP        -0.4100
     17 C3'         1.0324    0.7610    1.7344 C.3       1 GTP         0.0924
     18 O3'         1.9175    0.2377    2.7247 O.3       1 GTP        -0.5892
     19 C2'         0.4468   -0.3802    0.9263 C.3       1 GTP         0.0635
     20 O2'         1.3993   -1.3703    0.5961 O.3       1 GTP        -0.5749
     21 C1'        -0.6159   -0.9100    1.8769 C.3       1 GTP         0.2557
     22 N9         -1.7127   -1.6108    1.2130 N.pl3     1 GTP        -0.2236
     23 C8         -2.5489   -1.0812    0.2607 C.ar      1 GTP         0.4148
     24 N7         -3.4468   -1.9516   -0.1576 N.2       1 GTP        -0.5808
     25 C5         -3.1696   -3.0787    0.5579 C.ar      1 GTP         0.1777
     26 C6         -3.8307   -4.3536    0.5166 C.ar      1 GTP         0.6505
     27 O6         -4.7841   -4.6033   -0.2101 O.2       1 GTP        -0.5947
     28 N1         -3.2356   -5.2522    1.4132 N.pl3     1 GTP        -0.5110
     29 C2         -2.1338   -4.9602    2.2517 C.ar      1 GTP         0.6844
     30 N2         -1.7156   -5.9923    3.0507 N.pl3     1 GTP        -0.8920
     31 N3         -1.5477   -3.7827    2.2686 N.2       1 GTP        -0.6705
     32 C4         -2.1070   -2.9013    1.4104 C.ar      1 GTP         0.1220
     33 HOG2       -2.1453    9.9266    1.8016 H         1 GTP         0.5087
     34 HOG3       -5.9704    8.1411    2.8082 H         1 GTP         0.5087
     35 HOB2       -0.0302    7.3128    1.1511 H         1 GTP         0.5092
     36 HOA2       -3.6542    4.1894   -0.4662 H         1 GTP         0.5041
     37 H5'        -1.1763    2.0500    0.6366 H         1 GTP         0.0584
     38 H5''       -0.2075    3.2812    1.4874 H         1 GTP         0.0584
     39 H4'         0.0402    1.7079    3.4343 H         1 GTP         0.1192
     40 H3'         1.5907    1.4859    1.1353 H         1 GTP         0.0735
     41 HO3'        2.6839   -0.1150    2.2479 H         1 GTP         0.4308
     42 H2'        -0.0017    0.0018    0.0005 H         1 GTP         0.0746
     43 HO2'        2.0953   -0.9375    0.0709 H         1 GTP         0.4224
     44 H1'        -0.1998   -1.6319    2.6178 H         1 GTP         0.1162
     45 H8         -2.4545   -0.0604   -0.0844 H         1 GTP         0.0741
     46 HN1        -3.6270   -6.1884    1.4651 H         1 GTP         0.3343
     47 HN21       -0.9445   -5.8354    3.6574 H         1 GTP         0.4229
     48 HN22       -2.1993   -6.8585    2.9930 H         1 GTP         0.4229
@<TRIPOS>BOND
     1    1    2 2
     2    1    3 1
     3    1    4 1
     4    1    5 1
     5    3   33 1
     6    4   34 1
     7    5    6 1
     8    6    7 2
     9    6    8 1
    10    6    9 1
    11    8   35 1
    12    9   10 1
    13   10   11 2
    14   10   12 1
    15   10   13 1
    16   12   36 1
    17   13   14 1
    18   14   15 1
    19   14   37 1
    20   14   38 1
    21   15   16 1
    22   15   17 1
    23   15   39 1
    24   16   21 1
    25   17   18 1
    26   17   19 1
    27   17   40 1
    28   18   41 1
    29   19   20 1
    30   19   21 1
    31   19   42 1
    32   20   43 1
    33   21   22 1
    34   21   44 1
    35   22   23 ar
    36   22   32 ar
    37   23   24 ar
    38   23   45 1
    39   24   25 ar
    40   25   26 ar
    41   25   32 ar
    42   26   27 2
    43   26   28 ar
    44   28   29 ar
    45   28   46 1
    46   29   30 1
    47   29   31 ar
    48   30   47 1
    49   30   48 1
    50   31   32 ar
@<TRIPOS>SUBSTRUCTURE
     1 GTP         1 GROUP 0 A     ****
@<TRIPOS>MOLECULE
[[5-(2-amino-6-oxo-1~{H}-purin-9-yl)-3,4-dihydroxy-tetrahydrofuran-2-yl]methoxy-hydroxy-phosphoryl] phosphono hydrogen phosphate
   48    50     1     0     0
SMALL
USER_CHARGES

@<TRIPOS>ATOM
      1 PG         -1.1090    6.9443   -1.2925 P.3       1 GTP         1.8160
      2 O1G        -0.3325    6.6995   -0.0322 O.2       1 GTP        -0.8277
      3 O2G        -2.0825    8.2339   -1.2648 O.3       1 GTP        -0.7983
      4 O3G        -0.2126    7.1774   -2.6172 O.3       1 GTP        -0.7983
      5 O3B        -2.0917    5.7360   -1.7238 O.3       1 GTP        -0.8272
      6 PB         -3.3424    5.0437   -0.9709 P.3       1 GTP         1.9429
      7 O1B        -4.4751    5.9756   -0.6557 O.2       1 GTP        -0.8481
      8 O2B        -3.7229    3.7929   -1.9216 O.3       1 GTP        -0.8171
      9 O3A        -2.6685    4.3073    0.2980 O.3       1 GTP        -0.8114
     10 PA         -3.3131    3.4211    1.4850 P.3       1 GTP         1.8017
     11 O1A        -4.3319    4.1496    2.3125 O.2       1 GTP        -0.7846
     12 O2A        -3.8882    2.1240    0.7078 O.3       1 GTP        -0.8074
     13 O5'        -2.0398    2.8621    2.3123 O.3       1 GTP        -0.5669
     14 C5'        -0.8811    2.4285    1.6206 C.3       1 GTP         0.1637
     15 C4'        -0.1994    1.3333    2.4288 C.3       1 GTP         0.1099
     16 O4'        -1.1285    0.2356    2.5840 O.3       1 GTP        -0.4100
     17 C3'         1.0324    0.7610    1.7344 C.3       1 GTP         0.0924
     18 O3'         1.9175    0.2377    2.7247 O.3       1 GTP        -0.5892
     19 C2'         0.4468   -0.3802    0.9263 C.3       1 GTP         0.0635
     20 O2'         1.3993   -1.3703    0.5961 O.3       1 GTP        -0.5749
     21 C1'        -0.6159   -0.9100    1.8769 C.3       1 GTP         0.2557
     22 N9         -1.7127   -1.6108    1.2130 N.pl3     1 GTP        -0.2236
     23 C8         -2.5489   -1.0812    0.2607 C.ar      1 GTP         0.4148
     24 N7         -3.4468   -1.9516   -0.1576 N.2       1 GTP        -0.5808
     25 C5         -3.1696   -3.0787    0.5579 C.ar      1 GTP         0.1777
     26 C6         -3.8307   -4.3536    0.5166 C.ar      1 GTP         0.6505
     27 O6         -4.7841   -4.6033   -0.2101 O.2       1 GTP        -0.5947
     28 N1         -3.2356   -5.2522    1.4132 N.pl3     1 GTP        -0.5110
     29 C2         -2.1338   -4.9602    2.2517 C.ar      1 GTP         0.6844
     30 N2         -1.7156   -5.9923    3.0507 N.pl3     1 GTP        -0.8920
     31 N3         -1.5477   -3.7827    2.2686 N.2       1 GTP        -0.6705
     32 C4         -2.1070   -2.9013    1.4104 C.ar      1 GTP         0.1220
     33 HOG2       -2.7986    8.2744   -0.5958 H         1 GTP         0.5087
     34 HOG3        0.4181    7.9283   -2.6377 H         1 GTP         0.5087
     35 HOB2       -4.0739    3.9694   -2.8204 H         1 GTP         0.5092
     36 HOA2       -4.6162    2.2428    0.0614 H         1 GTP         0.5041
     37 H5'        -1.1763    2.0500    0.6366 H         1 GTP         0.0584
     38 H5''       -0.2075    3.2812    1.4874 H         1 GTP         0.0584
     39 H4'         0.0402    1.7079    3.4343 H         1 GTP         0.1192
     40 H3'         1.5907    1.4859    1.1353 H         1 GTP         0.0735
     41 HO3'        2.6839   -0.1150    2.2479 H         1 GTP         0.4308
     42 H2'        -0.0017    0.0018    0.0005 H         1 GTP         0.0746
     43 HO2'        0.9369   -2.0558    0.0825 H         1 GTP         0.4224
     44 H1'        -0.1998   -1.6319    2.6178 H         1 GTP         0.1162
     45 H8         -2.4545   -0.0604   -0.0844 H         1 GTP         0.0741
     46 HN1        -3.6270   -6.1884    1.4651 H         1 GTP         0.3343
     47 HN21       -2.1995   -6.8583    2.9929 H         1 GTP         0.4229
     48 HN22       -0.9445   -5.8356    3.6575 H         1 GTP         0.4229
@<TRIPOS>BOND
     1    1    2 2
     2    1    3 1
     3    1    4 1
     4    1    5 1
     5    3   33 1
     6    4   34 1
     7    5    6 1
     8    6    7 2
     9    6    8 1
    10    6    9 1
    11    8   35 1
    12    9   10 1
    13   10   11 2
    14   10   12 1
    15   10   13 1
    16   12   36 1
    17   13   14 1
    18   14   15 1
    19   14   37 1
    20   14   38 1
    21   15   16 1
    22   15   17 1
    23   15   39 1
    24   16   21 1
    25   17   18 1
    26   17   19 1
    27   17   40 1
    28   18   41 1
    29   19   20 1
    30   19   21 1
    31   19   42 1
    32   20   43 1
    33   21   22 1
    34   21   44 1
    35   22   23 ar
    36   22   32 ar
    37   23   24 ar
    38   23   45 1
    39   24   25 ar
    40   25   26 ar
    41   25   32 ar
    42   26   27 2
    43   26   28 ar
    44   28   29 ar
    45   28   46 1
    46   29   30 1
    47   29   31 ar
    48   30   47 1
    49   30   48 1
    50   31   32 ar
@<TRIPOS>SUBSTRUCTURE
     1 GTP         1 GROUP 0 A     ****
@<TRIPOS>MOLECULE
[[5-(2-amino-6-oxo-1~{H}-purin-9-yl)-3,4-dihydroxy-tetrahydrofuran-2-yl]methoxy-hydroxy-phosphoryl] phosphono hydrogen phosphate
   48    50     1     0     0
SMALL
USER_CHARGES

@<TRIPOS>ATOM
      1 PG         -2.5039    5.9932   -3.3964 P.3       1 GTP         1.8160
      2 O1G        -3.3122    5.1161   -4.3066 O.2       1 GTP        -0.8277
      3 O2G        -0.9723    6.2358   -3.8514 O.3       1 GTP        -0.7983
      4 O3G        -3.0791    7.4905   -3.1963 O.3       1 GTP        -0.7983
      5 O3B        -2.3679    5.4480   -1.8812 O.3       1 GTP        -0.8272
      6 PB         -3.4745    5.1252   -0.7491 P.3       1 GTP         1.9429
      7 O1B        -4.3194    6.2987   -0.3492 O.2       1 GTP        -0.8481
      8 O2B        -4.2870    3.8636   -1.3501 O.3       1 GTP        -0.8171
      9 O3A        -2.6221    4.4398    0.4384 O.3       1 GTP        -0.8114
     10 PA         -3.0702    3.8634    1.8796 P.3       1 GTP         1.8017
     11 O1A        -3.7062    4.8832    2.7789 O.2       1 GTP        -0.7846
     12 O2A        -4.0303    2.6186    1.4978 O.3       1 GTP        -0.8074
     13 O5'        -1.7335    3.1724    2.4745 O.3       1 GTP        -0.5669
     14 C5'        -0.8811    2.4285    1.6206 C.3       1 GTP         0.1637
     15 C4'        -0.1994    1.3333    2.4288 C.3       1 GTP         0.1099
     16 O4'        -1.1285    0.2356    2.5840 O.3       1 GTP        -0.4100
     17 C3'         1.0324    0.7610    1.7344 C.3       1 GTP         0.0924
     18 O3'         1.9175    0.2377    2.7247 O.3       1 GTP        -0.5892
     19 C2'         0.4468   -0.3802    0.9263 C.3       1 GTP         0.0635
     20 O2'         1.3993   -1.3703    0.5961 O.3       1 GTP        -0.5749
     21 C1'        -0.6159   -0.9100    1.8769 C.3       1 GTP         0.2557
     22 N9         -1.7127   -1.6108    1.2130 N.pl3     1 GTP        -0.2236
     23 C8         -2.8667   -1.0365    0.7385 C.ar      1 GTP         0.4148
     24 N7         -3.6757   -1.9196    0.1868 N.2       1 GTP        -0.5808
     25 C5         -3.0088   -3.1018    0.3164 C.ar      1 GTP         0.1777
     26 C6         -3.4148   -4.4130   -0.1079 C.ar      1 GTP         0.6505
     27 O6         -4.4752   -4.6480   -0.6732 O.2       1 GTP        -0.5947
     28 N1         -2.4377   -5.3653    0.2144 N.pl3     1 GTP        -0.5110
     29 C2         -1.2132   -5.0902    0.8680 C.ar      1 GTP         0.6844
     30 N2         -0.4066   -6.1772    1.0834 N.pl3     1 GTP        -0.8920
     31 N3         -0.8672   -3.8786    1.2457 N.2       1 GTP        -0.6705
     32 C4         -1.7966   -2.9451    0.9439 C.ar      1 GTP         0.1220
     33 HOG2       -0.7955    6.6575   -4.7192 H         1 GTP         0.5087
     34 HOG3       -3.9771    7.6077   -2.8196 H         1 GTP         0.5087
     35 HOB2       -4.8265    3.9885   -2.1597 H         1 GTP         0.5092
     36 HOA2       -4.8723    2.7961    1.0272 H         1 GTP         0.5041
     37 H5'        -1.4796    1.9923    0.8143 H         1 GTP         0.0584
     38 H5''       -0.1364    3.1037    1.1869 H         1 GTP         0.0584
     39 H4'         0.0402    1.7079    3.4343 H         1 GTP         0.1192
     40 H3'         1.5907    1.4859    1.1353 H         1 GTP         0.0735
     41 HO3'        2.6839   -0.1150    2.2479 H         1 GTP         0.4308
     42 H2'        -0.0017    0.0018    0.0005 H         1 GTP         0.0746
     43 HO2'        2.0953   -0.9375    0.0709 H         1 GTP         0.4224
     44 H1'        -0.1998   -1.6319    2.6178 H         1 GTP         0.1162
     45 H8         -3.0589    0.0244    0.8247 H         1 GTP         0.0741
     46 HN1        -2.6238   -6.3307   -0.0420 H         1 GTP         0.3343
     47 HN21       -0.7237   -7.0672    0.7753 H         1 GTP         0.4229
     48 HN22        0.4646   -6.0344    1.5394 H         1 GTP         0.4229
@<TRIPOS>BOND
     1    1    2 2
     2    1    3 1
     3    1    4 1
     4    1    5 1
     5    3   33 1
     6    4   34 1
     7    5    6 1
     8    6    7 2
     9    6    8 1
    10    6    9 1
    11    8   35 1
    12    9   10 1
    13   10   11 2
    14   10   12 1
    15   10   13 1
    16   12   36 1
    17   13   14 1
    18   14   15 1
    19   14   37 1
    20   14   38 1
    21   15   16 1
    22   15   17 1
    23   15   39 1
    24   16   21 1
    25   17   18 1
    26   17   19 1
    27   17   40 1
    28   18   41 1
    29   19   20 1
    30   19   21 1
    31   19   42 1
    32   20   43 1
    33   21   22 1
    34   21   44 1
    35   22   23 ar
    36   22   32 ar
    37   23   24 ar
    38   23   45 1
    39   24   25 ar
    40   25   26 ar
    41   25   32 ar
    42   26   27 2
    43   26   28 ar
    44   28   29 ar
    45   28   46 1
    46   29   30 1
    47   29   31 ar
    48   30   47 1
    49   30   48 1
    50   31   32 ar
@<TRIPOS>SUBSTRUCTURE
     1 GTP         1 GROUP 0 A     ****
@<TRIPOS>MOLECULE
[[5-(2-amino-6-oxo-1~{H}-purin-9-yl)-3,4-dihydroxy-tetrahydrofuran-2-yl]methoxy-hydroxy-phosphoryl] phosphono hydrogen phosphate
   48    50     1     0     0
SMALL
USER_CHARGES

@<TRIPOS>ATOM
      1 PG         -0.3027    7.2471   -3.6844 P.3       1 GTP         1.8160
      2 O1G        -1.5046    8.1307   -3.8447 O.2       1 GTP        -0.8277
      3 O2G         0.0403    6.3099   -4.9556 O.3       1 GTP        -0.7983
      4 O3G         1.0872    8.0227   -3.4023 O.3       1 GTP        -0.7983
      5 O3B        -0.3940    6.2015   -2.4556 O.3       1 GTP        -0.8272
      6 PB         -1.4356    5.0101   -2.1300 P.3       1 GTP         1.9429
      7 O1B        -2.8620    5.4509   -1.9821 O.2       1 GTP        -0.8481
      8 O2B        -1.1661    3.9290   -3.3012 O.3       1 GTP        -0.8171
      9 O3A        -0.7927    4.2773   -0.8431 O.3       1 GTP        -0.8114
     10 PA         -0.4423    4.8273    0.6350 P.3       1 GTP         1.8017
     11 O1A         0.5440    5.9589    0.6521 O.2       1 GTP        -0.7846
     12 O2A        -1.8939    5.1976    1.2457 O.3       1 GTP        -0.8074
     13 O5'         0.0173    3.5130    1.4593 O.3       1 GTP        -0.5669
     14 C5'        -0.8811    2.4285    1.6206 C.3       1 GTP         0.1637
     15 C4'        -0.1994    1.3333    2.4288 C.3       1 GTP         0.1099
     16 O4'        -1.1285    0.2356    2.5840 O.3       1 GTP        -0.4100
     17 C3'         1.0324    0.7610    1.7344 C.3       1 GTP         0.0924
     18 O3'         1.9175    0.2377    2.7247 O.3       1 GTP        -0.5892
     19 C2'         0.4468   -0.3802    0.9263 C.3       1 GTP         0.0635
     20 O2'         1.3993   -1.3703    0.5961 O.3       1 GTP        -0.5749
     21 C1'        -0.6159   -0.9100    1.8769 C.3       1 GTP         0.2557
     22 N9         -1.7127   -1.6108    1.2130 N.pl3     1 GTP        -0.2236
     23 C8         -2.0873   -2.9139    1.4324 C.ar      1 GTP         0.4148
     24 N7         -3.1135   -3.2727    0.6860 N.2       1 GTP        -0.5808
     25 C5         -3.4017   -2.1526   -0.0362 C.ar      1 GTP         0.1777
     26 C6         -4.4318   -1.9582   -1.0186 C.ar      1 GTP         0.6505
     27 O6         -5.2284   -2.8266   -1.3513 O.2       1 GTP        -0.5947
     28 N1         -4.3916   -0.6538   -1.5306 N.pl3     1 GTP        -0.5110
     29 C2         -3.4693    0.3474   -1.1439 C.ar      1 GTP         0.6844
     30 N2         -3.6143    1.5541   -1.7775 N.pl3     1 GTP        -0.8920
     31 N3         -2.5355    0.1410   -0.2407 N.2       1 GTP        -0.6705
     32 C4         -2.5574   -1.1117    0.2656 C.ar      1 GTP         0.1220
     33 HOG2       -0.6276    5.6596   -5.2604 H         1 GTP         0.5087
     34 HOG3        1.4153    8.6658   -4.0663 H         1 GTP         0.5087
     35 HOB2       -1.6250    3.0630   -3.2625 H         1 GTP         0.5092
     36 HOA2       -2.4143    5.9167    0.8287 H         1 GTP         0.5041
     37 H5'        -1.7774    2.7844    2.1388 H         1 GTP         0.0584
     38 H5''       -1.1657    2.0536    0.6322 H         1 GTP         0.0584
     39 H4'         0.0402    1.7079    3.4343 H         1 GTP         0.1192
     40 H3'         1.5907    1.4859    1.1353 H         1 GTP         0.0735
     41 HO3'        2.6839   -0.1150    2.2479 H         1 GTP         0.4308
     42 H2'        -0.0017    0.0018    0.0005 H         1 GTP         0.0746
     43 HO2'        0.9369   -2.0558    0.0825 H         1 GTP         0.4224
     44 H1'        -0.1998   -1.6319    2.6178 H         1 GTP         0.1162
     45 H8         -1.5757   -3.5474    2.1443 H         1 GTP         0.0741
     46 HN1        -5.0800   -0.4074   -2.2361 H         1 GTP         0.3343
     47 HN21       -2.9894    2.2891   -1.5392 H         1 GTP         0.4229
     48 HN22       -4.3387    1.6483   -2.4512 H         1 GTP         0.4229
@<TRIPOS>BOND
     1    1    2 2
     2    1    3 1
     3    1    4 1
     4    1    5 1
     5    3   33 1
     6    4   34 1
     7    5    6 1
     8    6    7 2
     9    6    8 1
    10    6    9 1
    11    8   35 1
    12    9   10 1
    13   10   11 2
    14   10   12 1
    15   10   13 1
    16   12   36 1
    17   13   14 1
    18   14   15 1
    19   14   37 1
    20   14   38 1
    21   15   16 1
    22   15   17 1
    23   15   39 1
    24   16   21 1
    25   17   18 1
    26   17   19 1
    27   17   40 1
    28   18   41 1
    29   19   20 1
    30   19   21 1
    31   19   42 1
    32   20   43 1
    33   21   22 1
    34   21   44 1
    35   22   23 ar
    36   22   32 ar
    37   23   24 ar
    38   23   45 1
    39   24   25 ar
    40   25   26 ar
    41   25   32 ar
    42   26   27 2
    43   26   28 ar
    44   28   29 ar
    45   28   46 1
    46   29   30 1
    47   29   31 ar
    48   30   47 1
    49   30   48 1
    50   31   32 ar
@<TRIPOS>SUBSTRUCTURE
     1 GTP         1 GROUP 0 A     ****
@<TRIPOS>MOLECULE
[[5-(2-amino-6-oxo-1~{H}-purin-9-yl)-3,4-dihydroxy-tetrahydrofuran-2-yl]methoxy-hydroxy-phosphoryl] phosphono hydrogen phosphate
   48    50     1     0     0
SMALL
USER_CHARGES

@<TRIPOS>ATOM
      1 PG         -3.8744    3.8914   -2.2347 P.3       1 GTP         1.8160
      2 O1G        -4.4813    3.7288   -0.8722 O.2       1 GTP        -0.8277
      3 O2G        -3.3627    2.5255   -2.9306 O.3       1 GTP        -0.7983
      4 O3G        -4.8506    4.5388   -3.3485 O.3       1 GTP        -0.7983
      5 O3B        -2.5758    4.8520   -2.2837 O.3       1 GTP        -0.8272
      6 PB         -1.1406    4.7616   -1.5473 P.3       1 GTP         1.9429
      7 O1B        -0.3525    3.5252   -1.8651 O.2       1 GTP        -0.8481
      8 O2B        -0.4195    6.1565   -1.9312 O.3       1 GTP        -0.8171
      9 O3A        -1.4932    4.9848    0.0124 O.3       1 GTP        -0.8114
     10 PA         -0.5527    5.0214    1.3254 P.3       1 GTP         1.8017
     11 O1A         0.4988    6.0924    1.2989 O.2       1 GTP        -0.7846
     12 O2A        -1.6150    5.1587    2.5377 O.3       1 GTP        -0.8074
     13 O5'         0.0173    3.5130    1.4593 O.3       1 GTP        -0.5669
     14 C5'        -0.8811    2.4285    1.6206 C.3       1 GTP         0.1637
     15 C4'        -0.1994    1.3333    2.4288 C.3       1 GTP         0.1099
     16 O4'        -1.1285    0.2356    2.5840 O.3       1 GTP        -0.4100
     17 C3'         1.0324    0.7610    1.7344 C.3       1 GTP         0.0924
     18 O3'         1.9175    0.2377    2.7247 O.3       1 GTP        -0.5892
     19 C2'         0.4468   -0.3802    0.9263 C.3       1 GTP         0.0635
     20 O2'         1.3993   -1.3703    0.5961 O.3       1 GTP        -0.5749
     21 C1'        -0.6159   -0.9100    1.8769 C.3       1 GTP         0.2557
     22 N9         -1.7127   -1.6108    1.2130 N.pl3     1 GTP        -0.2236
     23 C8         -2.5489   -1.0812    0.2607 C.ar      1 GTP         0.4148
     24 N7         -3.4468   -1.9516   -0.1576 N.2       1 GTP        -0.5808
     25 C5         -3.1696   -3.0787    0.5579 C.ar      1 GTP         0.1777
     26 C6         -3.8307   -4.3536    0.5166 C.ar      1 GTP         0.6505
     27 O6         -4.7841   -4.6033   -0.2101 O.2       1 GTP        -0.5947
     28 N1         -3.2356   -5.2522    1.4132 N.pl3     1 GTP        -0.5110
     29 C2         -2.1338   -4.9602    2.2517 C.ar      1 GTP         0.6844
     30 N2         -1.7156   -5.9923    3.0507 N.pl3     1 GTP        -0.8920
     31 N3         -1.5477   -3.7827    2.2686 N.2       1 GTP        -0.6705
     32 C4         -2.1070   -2.9013    1.4104 C.ar      1 GTP         0.1220
     33 HOG2       -2.6707    1.9943   -2.4824 H         1 GTP         0.5087
     34 HOG3       -5.6881    4.0792   -3.5708 H         1 GTP         0.5087
     35 HOB2       -0.1793    6.3248   -2.8672 H         1 GTP         0.5092
     36 HOA2       -1.2863    5.1327    3.4614 H         1 GTP         0.5041
     37 H5'        -1.7774    2.7844    2.1388 H         1 GTP         0.0584
     38 H5''       -1.1657    2.0536    0.6322 H         1 GTP         0.0584
     39 H4'         0.0402    1.7079    3.4343 H         1 GTP         0.1192
     40 H3'         1.5907    1.4859    1.1353 H         1 GTP         0.0735
     41 HO3'        2.6839   -0.1150    2.2479 H         1 GTP         0.4308
     42 H2'        -0.0017    0.0018    0.0005 H         1 GTP         0.0746
     43 HO2'        2.0953   -0.9375    0.0709 H         1 GTP         0.4224
     44 H1'        -0.1998   -1.6319    2.6178 H         1 GTP         0.1162
     45 H8         -2.4545   -0.0604   -0.0844 H         1 GTP         0.0741
     46 HN1        -3.6270   -6.1884    1.4651 H         1 GTP         0.3343
     47 HN21       -0.9445   -5.8354    3.6574 H         1 GTP         0.4229
     48 HN22       -2.1993   -6.8585    2.9930 H         1 GTP         0.4229
@<TRIPOS>BOND
     1    1    2 2
     2    1    3 1
     3    1    4 1
     4    1    5 1
     5    3   33 1
     6    4   34 1
     7    5    6 1
     8    6    7 2
     9    6    8 1
    10    6    9 1
    11    8   35 1
    12    9   10 1
    13   10   11 2
    14   10   12 1
    15   10   13 1
    16   12   36 1
    17   13   14 1
    18   14   15 1
    19   14   37 1
    20   14   38 1
    21   15   16 1
    22   15   17 1
    23   15   39 1
    24   16   21 1
    25   17   18 1
    26   17   19 1
    27   17   40 1
    28   18   41 1
    29   19   20 1
    30   19   21 1
    31   19   42 1
    32   20   43 1
    33   21   22 1
    34   21   44 1
    35   22   23 ar
    36   22   32 ar
    37   23   24 ar
    38   23   45 1
    39   24   25 ar
    40   25   26 ar
    41   25   32 ar
    42   26   27 2
    43   26   28 ar
    44   28   29 ar
    45   28   46 1
    46   29   30 1
    47   29   31 ar
    48   30   47 1
    49   30   48 1
    50   31   32 ar
@<TRIPOS>SUBSTRUCTURE
     1 GTP         1 GROUP 0 A     ****
@<TRIPOS>MOLECULE
[[5-(2-amino-6-oxo-1~{H}-purin-9-yl)-3,4-dihydroxy-tetrahydrofuran-2-yl]methoxy-hydroxy-phosphoryl] phosphono hydrogen phosphate
   48    50     1     0     0
SMALL
USER_CHARGES

@<TRIPOS>ATOM
      1 PG         -0.8647    8.0463   -1.3348 P.3       1 GTP         1.8160
      2 O1G        -1.5228    9.3216   -0.8972 O.2       1 GTP        -0.8277
      3 O2G        -0.9112    7.7546   -2.9237 O.3       1 GTP        -0.7983
      4 O3G         0.7066    7.9259   -0.9756 O.3       1 GTP        -0.7983
      5 O3B        -1.4923    6.7066   -0.6844 O.3       1 GTP        -0.8272
      6 PB         -1.6386    6.2202    0.8493 P.3       1 GTP         1.9429
      7 O1B        -0.3395    6.0806    1.5867 O.2       1 GTP        -0.8481
      8 O2B        -2.6860    7.2712    1.4909 O.3       1 GTP        -0.8171
      9 O3A        -2.5313    4.8790    0.7447 O.3       1 GTP        -0.8114
     10 PA         -3.0702    3.8634    1.8796 P.3       1 GTP         1.8017
     11 O1A        -3.9589    4.5039    2.9059 O.2       1 GTP        -0.7846
     12 O2A        -3.7801    2.6911    1.0200 O.3       1 GTP        -0.8074
     13 O5'        -1.7335    3.1724    2.4745 O.3       1 GTP        -0.5669
     14 C5'        -0.8811    2.4285    1.6206 C.3       1 GTP         0.1637
     15 C4'        -0.1994    1.3333    2.4288 C.3       1 GTP         0.1099
     16 O4'        -1.1285    0.2356    2.5840 O.3       1 GTP        -0.4100
     17 C3'         1.0324    0.7610    1.7344 C.3       1 GTP         0.0924
     18 O3'         1.9175    0.2377    2.7247 O.3       1 GTP        -0.5892
     19 C2'         0.4468   -0.3802    0.9263 C.3       1 GTP         0.0635
     20 O2'         1.3993   -1.3703    0.5961 O.3       1 GTP        -0.5749
     21 C1'        -0.6159   -0.9100    1.8769 C.3       1 GTP         0.2557
     22 N9         -1.7127   -1.6108    1.2130 N.pl3     1 GTP        -0.2236
     23 C8         -2.8667   -1.0365    0.7385 C.ar      1 GTP         0.4148
     24 N7         -3.6757   -1.9196    0.1868 N.2       1 GTP        -0.5808
     25 C5         -3.0088   -3.1018    0.3164 C.ar      1 GTP         0.1777
     26 C6         -3.4148   -4.4130   -0.1079 C.ar      1 GTP         0.6505
     27 O6         -4.4752   -4.6480   -0.6732 O.2       1 GTP        -0.5947
     28 N1         -2.4377   -5.3653    0.2144 N.pl3     1 GTP        -0.5110
     29 C2         -1.2132   -5.0902    0.8680 C.ar      1 GTP         0.6844
     30 N2         -0.4066   -6.1772    1.0834 N.pl3     1 GTP        -0.8920
     31 N3         -0.8672   -3.8786    1.2457 N.2       1 GTP        -0.6705
     32 C4         -1.7966   -2.9451    0.9439 C.ar      1 GTP         0.1220
     33 HOG2       -1.7826    7.6743   -3.3667 H         1 GTP         0.5087
     34 HOG3        1.3291    8.5913   -1.3387 H         1 GTP         0.5087
     35 HOB2       -3.0068    7.1230    2.4059 H         1 GTP         0.5092
     36 HOA2       -4.1331    1.9060    1.4900 H         1 GTP         0.5041
     37 H5'        -1.4796    1.9923    0.8143 H         1 GTP         0.0584
     38 H5''       -0.1364    3.1037    1.1869 H         1 GTP         0.0584
     39 H4'         0.0402    1.7079    3.4343 H         1 GTP         0.1192
     40 H3'         1.5907    1.4859    1.1353 H         1 GTP         0.0735
     41 HO3'        2.6839   -0.1150    2.2479 H         1 GTP         0.4308
     42 H2'        -0.0017    0.0018    0.0005 H         1 GTP         0.0746
     43 HO2'        2.0953   -0.9375    0.0709 H         1 GTP         0.4224
     44 H1'        -0.1998   -1.6319    2.6178 H         1 GTP         0.1162
     45 H8         -3.0589    0.0244    0.8247 H         1 GTP         0.0741
     46 HN1        -2.6238   -6.3307   -0.0420 H         1 GTP         0.3343
     47 HN21        0.4646   -6.0341    1.5394 H         1 GTP         0.4229
     48 HN22       -0.7235   -7.0673    0.7753 H         1 GTP         0.4229
@<TRIPOS>BOND
     1    1    2 2
     2    1    3 1
     3    1    4 1
     4    1    5 1
     5    3   33 1
     6    4   34 1
     7    5    6 1
     8    6    7 2
     9    6    8 1
    10    6    9 1
    11    8   35 1
    12    9   10 1
    13   10   11 2
    14   10   12 1
    15   10   13 1
    16   12   36 1
    17   13   14 1
    18   14   15 1
    19   14   37 1
    20   14   38 1
    21   15   16 1
    22   15   17 1
    23   15   39 1
    24   16   21 1
    25   17   18 1
    26   17   19 1
    27   17   40 1
    28   18   41 1
    29   19   20 1
    30   19   21 1
    31   19   42 1
    32   20   43 1
    33   21   22 1
    34   21   44 1
    35   22   23 ar
    36   22   32 ar
    37   23   24 ar
    38   23   45 1
    39   24   25 ar
    40   25   26 ar
    41   25   32 ar
    42   26   27 2
    43   26   28 ar
    44   28   29 ar
    45   28   46 1
    46   29   30 1
    47   29   31 ar
    48   30   47 1
    49   30   48 1
    50   31   32 ar
@<TRIPOS>SUBSTRUCTURE
     1 GTP         1 GROUP 0 A     ****
@<TRIPOS>MOLECULE
[[5-(2-amino-6-oxo-1~{H}-purin-9-yl)-3,4-dihydroxy-tetrahydrofuran-2-yl]methoxy-hydroxy-phosphoryl] phosphono hydrogen phosphate
   48    50     1     0     0
SMALL
USER_CHARGES

@<TRIPOS>ATOM
      1 PG          1.3098    6.5763   -0.3693 P.3       1 GTP         1.8160
      2 O1G         2.5612    5.8657    0.0550 O.2       1 GTP        -0.8277
      3 O2G         1.5378    7.9016   -1.2656 O.3       1 GTP        -0.7983
      4 O3G         0.2857    5.6939   -1.2554 O.3       1 GTP        -0.7983
      5 O3B         0.3844    7.0967    0.8491 O.3       1 GTP        -0.8272
      6 PB         -0.3522    6.3116    2.0538 P.3       1 GTP         1.9429
      7 O1B         0.5703    5.5488    2.9583 O.2       1 GTP        -0.8481
      8 O2B        -1.2374    7.4546    2.7771 O.3       1 GTP        -0.8171
      9 O3A        -1.4833    5.4343    1.3071 O.3       1 GTP        -0.8114
     10 PA         -2.5920    4.4092    1.8815 P.3       1 GTP         1.8017
     11 O1A        -3.5580    5.0276    2.8499 O.2       1 GTP        -0.7846
     12 O2A        -3.2774    3.8166    0.5413 O.3       1 GTP        -0.8074
     13 O5'        -1.7335    3.1724    2.4745 O.3       1 GTP        -0.5669
     14 C5'        -0.8811    2.4285    1.6206 C.3       1 GTP         0.1637
     15 C4'        -0.1994    1.3333    2.4288 C.3       1 GTP         0.1099
     16 O4'        -1.1285    0.2356    2.5840 O.3       1 GTP        -0.4100
     17 C3'         1.0324    0.7610    1.7344 C.3       1 GTP         0.0924
     18 O3'         1.9175    0.2377    2.7247 O.3       1 GTP        -0.5892
     19 C2'         0.4468   -0.3802    0.9263 C.3       1 GTP         0.0635
     20 O2'         1.3993   -1.3703    0.5961 O.3       1 GTP        -0.5749
     21 C1'        -0.6159   -0.9100    1.8769 C.3       1 GTP         0.2557
     22 N9         -1.7127   -1.6108    1.2130 N.pl3     1 GTP        -0.2236
     23 C8         -2.0873   -2.9139    1.4324 C.ar      1 GTP         0.4148
     24 N7         -3.1135   -3.2727    0.6860 N.2       1 GTP        -0.5808
     25 C5         -3.4017   -2.1526   -0.0362 C.ar      1 GTP         0.1777
     26 C6         -4.4318   -1.9582   -1.0186 C.ar      1 GTP         0.6505
     27 O6         -5.2284   -2.8266   -1.3513 O.2       1 GTP        -0.5947
     28 N1         -4.3916   -0.6538   -1.5306 N.pl3     1 GTP        -0.5110
     29 C2         -3.4693    0.3474   -1.1439 C.ar      1 GTP         0.6844
     30 N2         -3.6143    1.5541   -1.7775 N.pl3     1 GTP        -0.8920
     31 N3         -2.5355    0.1410   -0.2407 N.2       1 GTP        -0.6705
     32 C4         -2.5574   -1.1117    0.2656 C.ar      1 GTP         0.1220
     33 HOG2        2.0040    7.8197   -2.1247 H         1 GTP         0.5087
     34 HOG3       -0.0874    4.8718   -0.8718 H         1 GTP         0.5087
     35 HOB2       -0.7791    8.1895    3.2376 H         1 GTP         0.5092
     36 HOA2       -3.9497    3.1075    0.6263 H         1 GTP         0.5041
     37 H5'        -1.4796    1.9923    0.8143 H         1 GTP         0.0584
     38 H5''       -0.1364    3.1037    1.1869 H         1 GTP         0.0584
     39 H4'         0.0402    1.7079    3.4343 H         1 GTP         0.1192
     40 H3'         1.5907    1.4859    1.1353 H         1 GTP         0.0735
     41 HO3'        2.6839   -0.1150    2.2479 H         1 GTP         0.4308
     42 H2'        -0.0017    0.0018    0.0005 H         1 GTP         0.0746
     43 HO2'        2.0953   -0.9375    0.0709 H         1 GTP         0.4224
     44 H1'        -0.1998   -1.6319    2.6178 H         1 GTP         0.1162
     45 H8         -1.5757   -3.5474    2.1443 H         1 GTP         0.0741
     46 HN1        -5.0800   -0.4074   -2.2361 H         1 GTP         0.3343
     47 HN21       -2.9894    2.2891   -1.5392 H         1 GTP         0.4229
     48 HN22       -4.3387    1.6483   -2.4512 H         1 GTP         0.4229
@<TRIPOS>BOND
     1    1    2 2
     2    1    3 1
     3    1    4 1
     4    1    5 1
     5    3   33 1
     6    4   34 1
     7    5    6 1
     8    6    7 2
     9    6    8 1
    10    6    9 1
    11    8   35 1
    12    9   10 1
    13   10   11 2
    14   10   12 1
    15   10   13 1
    16   12   36 1
    17   13   14 1
    18   14   15 1
    19   14   37 1
    20   14   38 1
    21   15   16 1
    22   15   17 1
    23   15   39 1
    24   16   21 1
    25   17   18 1
    26   17   19 1
    27   17   40 1
    28   18   41 1
    29   19   20 1
    30   19   21 1
    31   19   42 1
    32   20   43 1
    33   21   22 1
    34   21   44 1
    35   22   23 ar
    36   22   32 ar
    37   23   24 ar
    38   23   45 1
    39   24   25 ar
    40   25   26 ar
    41   25   32 ar
    42   26   27 2
    43   26   28 ar
    44   28   29 ar
    45   28   46 1
    46   29   30 1
    47   29   31 ar
    48   30   47 1
    49   30   48 1
    50   31   32 ar
@<TRIPOS>SUBSTRUCTURE
     1 GTP         1 GROUP 0 A     ****
@<TRIPOS>MOLECULE
[[5-(2-amino-6-oxo-1~{H}-purin-9-yl)-3,4-dihydroxy-tetrahydrofuran-2-yl]methoxy-hydroxy-phosphoryl] phosphono hydrogen phosphate
   48    50     1     0     0
SMALL
USER_CHARGES

@<TRIPOS>ATOM
      1 PG          0.1934    6.6445    2.8438 P.3       1 GTP         1.8160
      2 O1G        -0.3471    7.6464    3.8210 O.2       1 GTP        -0.8277
      3 O2G         1.0330    7.2656    1.6105 O.3       1 GTP        -0.7983
      4 O3G         1.2015    5.5478    3.4713 O.3       1 GTP        -0.7983
      5 O3B        -0.9299    5.7364    2.1191 O.3       1 GTP        -0.8272
      6 PB         -2.1856    6.1230    1.1788 P.3       1 GTP         1.9429
      7 O1B        -3.1975    7.0215    1.8267 O.2       1 GTP        -0.8481
      8 O2B        -1.4994    6.7110   -0.1616 O.3       1 GTP        -0.8171
      9 O3A        -2.7414    4.6945    0.6717 O.3       1 GTP        -0.8114
     10 PA         -3.3131    3.4211    1.4850 P.3       1 GTP         1.8017
     11 O1A        -4.5255    3.7180    2.3189 O.2       1 GTP        -0.7846
     12 O2A        -3.5540    2.3192    0.3253 O.3       1 GTP        -0.8074
     13 O5'        -2.0398    2.8621    2.3123 O.3       1 GTP        -0.5669
     14 C5'        -0.8811    2.4285    1.6206 C.3       1 GTP         0.1637
     15 C4'        -0.1994    1.3333    2.4288 C.3       1 GTP         0.1099
     16 O4'        -1.1285    0.2356    2.5840 O.3       1 GTP        -0.4100
     17 C3'         1.0324    0.7610    1.7344 C.3       1 GTP         0.0924
     18 O3'         1.9175    0.2377    2.7247 O.3       1 GTP        -0.5892
     19 C2'         0.4468   -0.3802    0.9263 C.3       1 GTP         0.0635
     20 O2'         1.3993   -1.3703    0.5961 O.3       1 GTP        -0.5749
     21 C1'        -0.6159   -0.9100    1.8769 C.3       1 GTP         0.2557
     22 N9         -1.7127   -1.6108    1.2130 N.pl3     1 GTP        -0.2236
     23 C8         -2.5489   -1.0812    0.2607 C.ar      1 GTP         0.4148
     24 N7         -3.4468   -1.9516   -0.1576 N.2       1 GTP        -0.5808
     25 C5         -3.1696   -3.0787    0.5579 C.ar      1 GTP         0.1777
     26 C6         -3.8307   -4.3536    0.5166 C.ar      1 GTP         0.6505
     27 O6         -4.7841   -4.6033   -0.2101 O.2       1 GTP        -0.5947
     28 N1         -3.2356   -5.2522    1.4132 N.pl3     1 GTP        -0.5110
     29 C2         -2.1338   -4.9602    2.2517 C.ar      1 GTP         0.6844
     30 N2         -1.7156   -5.9923    3.0507 N.pl3     1 GTP        -0.8920
     31 N3         -1.5477   -3.7827    2.2686 N.2       1 GTP        -0.6705
     32 C4         -2.1070   -2.9013    1.4104 C.ar      1 GTP         0.1220
     33 HOG2        0.5896    7.8954    1.0032 H         1 GTP         0.5087
     34 HOG3        0.8767    4.9571    4.1839 H         1 GTP         0.5087
     35 HOB2       -2.0693    6.9324   -0.9286 H         1 GTP         0.5092
     36 HOA2       -4.2273    2.4971   -0.3654 H         1 GTP         0.5041
     37 H5'        -1.1763    2.0500    0.6366 H         1 GTP         0.0584
     38 H5''       -0.2075    3.2812    1.4874 H         1 GTP         0.0584
     39 H4'         0.0402    1.7079    3.4343 H         1 GTP         0.1192
     40 H3'         1.5907    1.4859    1.1353 H         1 GTP         0.0735
     41 HO3'        2.6839   -0.1150    2.2479 H         1 GTP         0.4308
     42 H2'        -0.0017    0.0018    0.0005 H         1 GTP         0.0746
     43 HO2'        2.0953   -0.9375    0.0709 H         1 GTP         0.4224
     44 H1'        -0.1998   -1.6319    2.6178 H         1 GTP         0.1162
     45 H8         -2.4545   -0.0604   -0.0844 H         1 GTP         0.0741
     46 HN1        -3.6270   -6.1884    1.4651 H         1 GTP         0.3343
     47 HN21       -0.9445   -5.8354    3.6574 H         1 GTP         0.4229
     48 HN22       -2.1993   -6.8585    2.9930 H         1 GTP         0.4229
@<TRIPOS>BOND
     1    1    2 2
     2    1    3 1
     3    1    4 1
     4    1    5 1
     5    3   33 1
     6    4   34 1
     7    5    6 1
     8    6    7 2
     9    6    8 1
    10    6    9 1
    11    8   35 1
    12    9   10 1
    13   10   11 2
    14   10   12 1
    15   10   13 1
    16   12   36 1
    17   13   14 1
    18   14   15 1
    19   14   37 1
    20   14   38 1
    21   15   16 1
    22   15   17 1
    23   15   39 1
    24   16   21 1
    25   17   18 1
    26   17   19 1
    27   17   40 1
    28   18   41 1
    29   19   20 1
    30   19   21 1
    31   19   42 1
    32   20   43 1
    33   21   22 1
    34   21   44 1
    35   22   23 ar
    36   22   32 ar
    37   23   24 ar
    38   23   45 1
    39   24   25 ar
    40   25   26 ar
    41   25   32 ar
    42   26   27 2
    43   26   28 ar
    44   28   29 ar
    45   28   46 1
    46   29   30 1
    47   29   31 ar
    48   30   47 1
    49   30   48 1
    50   31   32 ar
@<TRIPOS>SUBSTRUCTURE
     1 GTP         1 GROUP 0 A     ****
@<TRIPOS>MOLECULE
[[5-(2-amino-6-oxo-1~{H}-purin-9-yl)-3,4-dihydroxy-tetrahydrofuran-2-yl]methoxy-hydroxy-phosphoryl] phosphono hydrogen phosphate
   48    50     1     0     0
SMALL
USER_CHARGES

@<TRIPOS>ATOM
      1 PG         -5.2950    7.2551   -0.9449 P.3       1 GTP         1.8160
      2 O1G        -4.5253    8.3336   -1.6489 O.2       1 GTP        -0.8277
      3 O2G        -6.2020    7.7518    0.2970 O.3       1 GTP        -0.7983
      4 O3G        -6.3389    6.4399   -1.8714 O.3       1 GTP        -0.7983
      5 O3B        -4.3829    6.0847   -0.3047 O.3       1 GTP        -0.8272
      6 PB         -3.3424    5.0437   -0.9709 P.3       1 GTP         1.9429
      7 O1B        -3.9419    4.1376   -2.0056 O.2       1 GTP        -0.8481
      8 O2B        -2.1353    5.9833   -1.4936 O.3       1 GTP        -0.8171
      9 O3A        -2.6685    4.3073    0.2980 O.3       1 GTP        -0.8114
     10 PA         -3.3131    3.4211    1.4850 P.3       1 GTP         1.8017
     11 O1A        -4.3319    4.1496    2.3125 O.2       1 GTP        -0.7846
     12 O2A        -3.8882    2.1240    0.7078 O.3       1 GTP        -0.8074
     13 O5'        -2.0398    2.8621    2.3123 O.3       1 GTP        -0.5669
     14 C5'        -0.8811    2.4285    1.6206 C.3       1 GTP         0.1637
     15 C4'        -0.1994    1.3333    2.4288 C.3       1 GTP         0.1099
     16 O4'        -1.1285    0.2356    2.5840 O.3       1 GTP        -0.4100
     17 C3'         1.0324    0.7610    1.7344 C.3       1 GTP         0.0924
     18 O3'         1.9175    0.2377    2.7247 O.3       1 GTP        -0.5892
     19 C2'         0.4468   -0.3802    0.9263 C.3       1 GTP         0.0635
     20 O2'         1.3993   -1.3703    0.5961 O.3       1 GTP        -0.5749
     21 C1'        -0.6159   -0.9100    1.8769 C.3       1 GTP         0.2557
     22 N9         -1.7127   -1.6108    1.2130 N.pl3     1 GTP        -0.2236
     23 C8         -2.5489   -1.0812    0.2607 C.ar      1 GTP         0.4148
     24 N7         -3.4468   -1.9516   -0.1576 N.2       1 GTP        -0.5808
     25 C5         -3.1696   -3.0787    0.5579 C.ar      1 GTP         0.1777
     26 C6         -3.8307   -4.3536    0.5166 C.ar      1 GTP         0.6505
     27 O6         -4.7841   -4.6033   -0.2101 O.2       1 GTP        -0.5947
     28 N1         -3.2356   -5.2522    1.4132 N.pl3     1 GTP        -0.5110
     29 C2         -2.1338   -4.9602    2.2517 C.ar      1 GTP         0.6844
     30 N2         -1.7156   -5.9923    3.0507 N.pl3     1 GTP        -0.8920
     31 N3         -1.5477   -3.7827    2.2686 N.2       1 GTP        -0.6705
     32 C4         -2.1070   -2.9013    1.4104 C.ar      1 GTP         0.1220
     33 HOG2       -6.9117    8.4089    0.1341 H         1 GTP         0.5087
     34 HOG3       -5.9999    5.9493   -2.6502 H         1 GTP         0.5087
     35 HOB2       -1.3294    5.5609   -1.8599 H         1 GTP         0.5092
     36 HOA2       -4.6162    2.2428    0.0614 H         1 GTP         0.5041
     37 H5'        -1.1763    2.0500    0.6366 H         1 GTP         0.0584
     38 H5''       -0.2075    3.2812    1.4874 H         1 GTP         0.0584
     39 H4'         0.0402    1.7079    3.4343 H         1 GTP         0.1192
     40 H3'         1.5907    1.4859    1.1353 H         1 GTP         0.0735
     41 HO3'        2.1521    0.9800    3.3017 H         1 GTP         0.4308
     42 H2'        -0.0017    0.0018    0.0005 H         1 GTP         0.0746
     43 HO2'        2.0953   -0.9375    0.0709 H         1 GTP         0.4224
     44 H1'        -0.1998   -1.6319    2.6178 H         1 GTP         0.1162
     45 H8         -2.4545   -0.0604   -0.0844 H         1 GTP         0.0741
     46 HN1        -3.6270   -6.1884    1.4651 H         1 GTP         0.3343
     47 HN21       -0.9445   -5.8354    3.6574 H         1 GTP         0.4229
     48 HN22       -2.1993   -6.8585    2.9930 H         1 GTP         0.4229
@<TRIPOS>BOND
     1    1    2 2
     2    1    3 1
     3    1    4 1
     4    1    5 1
     5    3   33 1
     6    4   34 1
     7    5    6 1
     8    6    7 2
     9    6    8 1
    10    6    9 1
    11    8   35 1
    12    9   10 1
    13   10   11 2
    14   10   12 1
    15   10   13 1
    16   12   36 1
    17   13   14 1
    18   14   15 1
    19   14   37 1
    20   14   38 1
    21   15   16 1
    22   15   17 1
    23   15   39 1
    24   16   21 1
    25   17   18 1
    26   17   19 1
    27   17   40 1
    28   18   41 1
    29   19   20 1
    30   19   21 1
    31   19   42 1
    32   20   43 1
    33   21   22 1
    34   21   44 1
    35   22   23 ar
    36   22   32 ar
    37   23   24 ar
    38   23   45 1
    39   24   25 ar
    40   25   26 ar
    41   25   32 ar
    42   26   27 2
    43   26   28 ar
    44   28   29 ar
    45   28   46 1
    46   29   30 1
    47   29   31 ar
    48   30   47 1
    49   30   48 1
    50   31   32 ar
@<TRIPOS>SUBSTRUCTURE
     1 GTP         1 GROUP 0 A     ****
@<TRIPOS>MOLECULE
[[5-(2-amino-6-oxo-1~{H}-purin-9-yl)-3,4-dihydroxy-tetrahydrofuran-2-yl]methoxy-hydroxy-phosphoryl] phosphono hydrogen phosphate
   48    50     1     0     0
SMALL
USER_CHARGES

@<TRIPOS>ATOM
      1 PG          0.8315    7.1615    0.8271 P.3       1 GTP         1.8160
      2 O1G         0.6028    6.2694   -0.3573 O.2       1 GTP        -0.8277
      3 O2G         2.0340    6.7120    1.8087 O.3       1 GTP        -0.7983
      4 O3G         1.1896    8.6970    0.4713 O.3       1 GTP        -0.7983
      5 O3B        -0.4363    7.3021    1.8195 O.3       1 GTP        -0.8272
      6 PB         -1.2587    6.2081    2.6780 P.3       1 GTP         1.9429
      7 O1B        -0.4369    5.4577    3.6843 O.2       1 GTP        -0.8481
      8 O2B        -2.4986    7.0468    3.2882 O.3       1 GTP        -0.8171
      9 O3A        -1.9858    5.3044    1.5550 O.3       1 GTP        -0.8114
     10 PA         -2.9681    4.0282    1.6824 P.3       1 GTP         1.8017
     11 O1A        -4.2362    4.3013    2.4378 O.2       1 GTP        -0.7846
     12 O2A        -3.1908    3.5777    0.1446 O.3       1 GTP        -0.8074
     13 O5'        -2.0398    2.8621    2.3123 O.3       1 GTP        -0.5669
     14 C5'        -0.8811    2.4285    1.6206 C.3       1 GTP         0.1637
     15 C4'        -0.1994    1.3333    2.4288 C.3       1 GTP         0.1099
     16 O4'        -1.1285    0.2356    2.5840 O.3       1 GTP        -0.4100
     17 C3'         1.0324    0.7610    1.7344 C.3       1 GTP         0.0924
     18 O3'         1.9175    0.2377    2.7247 O.3       1 GTP        -0.5892
     19 C2'         0.4468   -0.3802    0.9263 C.3       1 GTP         0.0635
     20 O2'         1.3993   -1.3703    0.5961 O.3       1 GTP        -0.5749
     21 C1'        -0.6159   -0.9100    1.8769 C.3       1 GTP         0.2557
     22 N9         -1.7127   -1.6108    1.2130 N.pl3     1 GTP        -0.2236
     23 C8         -2.0873   -2.9139    1.4324 C.ar      1 GTP         0.4148
     24 N7         -3.1135   -3.2727    0.6860 N.2       1 GTP        -0.5808
     25 C5         -3.4017   -2.1526   -0.0362 C.ar      1 GTP         0.1777
     26 C6         -4.4318   -1.9582   -1.0186 C.ar      1 GTP         0.6505
     27 O6         -5.2284   -2.8266   -1.3513 O.2       1 GTP        -0.5947
     28 N1         -4.3916   -0.6538   -1.5306 N.pl3     1 GTP        -0.5110
     29 C2         -3.4693    0.3474   -1.1439 C.ar      1 GTP         0.6844
     30 N2         -3.6143    1.5541   -1.7775 N.pl3     1 GTP        -0.8920
     31 N3         -2.5355    0.1410   -0.2407 N.2       1 GTP        -0.6705
     32 C4         -2.5574   -1.1117    0.2656 C.ar      1 GTP         0.1220
     33 HOG2        1.9888    5.8345    2.2445 H         1 GTP         0.5087
     34 HOG3        1.9904    8.8864   -0.0624 H         1 GTP         0.5087
     35 HOB2       -2.3168    7.7535    3.9437 H         1 GTP         0.5092
     36 HOA2       -3.6542    4.1894   -0.4662 H         1 GTP         0.5041
     37 H5'        -1.1763    2.0500    0.6366 H         1 GTP         0.0584
     38 H5''       -0.2075    3.2812    1.4874 H         1 GTP         0.0584
     39 H4'         0.0402    1.7079    3.4343 H         1 GTP         0.1192
     40 H3'         1.5907    1.4859    1.1353 H         1 GTP         0.0735
     41 HO3'        2.6839   -0.1150    2.2479 H         1 GTP         0.4308
     42 H2'        -0.0017    0.0018    0.0005 H         1 GTP         0.0746
     43 HO2'        0.9369   -2.0558    0.0825 H         1 GTP         0.4224
     44 H1'        -0.1998   -1.6319    2.6178 H         1 GTP         0.1162
     45 H8         -1.5757   -3.5474    2.1443 H         1 GTP         0.0741
     46 HN1        -5.0800   -0.4074   -2.2361 H         1 GTP         0.3343
     47 HN21       -2.9894    2.2891   -1.5392 H         1 GTP         0.4229
     48 HN22       -4.3387    1.6483   -2.4512 H         1 GTP         0.4229
@<TRIPOS>BOND
     1    1    2 2
     2    1    3 1
     3    1    4 1
     4    1    5 1
     5    3   33 1
     6    4   34 1
     7    5    6 1
     8    6    7 2
     9    6    8 1
    10    6    9 1
    11    8   35 1
    12    9   10 1
    13   10   11 2
    14   10   12 1
    15   10   13 1
    16   12   36 1
    17   13   14 1
    18   14   15 1
    19   14   37 1
    20   14   38 1
    21   15   16 1
    22   15   17 1
    23   15   39 1
    24   16   21 1
    25   17   18 1
    26   17   19 1
    27   17   40 1
    28   18   41 1
    29   19   20 1
    30   19   21 1
    31   19   42 1
    32   20   43 1
    33   21   22 1
    34   21   44 1
    35   22   23 ar
    36   22   32 ar
    37   23   24 ar
    38   23   45 1
    39   24   25 ar
    40   25   26 ar
    41   25   32 ar
    42   26   27 2
    43   26   28 ar
    44   28   29 ar
    45   28   46 1
    46   29   30 1
    47   29   31 ar
    48   30   47 1
    49   30   48 1
    50   31   32 ar
@<TRIPOS>SUBSTRUCTURE
     1 GTP         1 GROUP 0 A     ****
@<TRIPOS>MOLECULE
[[5-(2-amino-6-oxo-1~{H}-purin-9-yl)-3,4-dihydroxy-tetrahydrofuran-2-yl]methoxy-hydroxy-phosphoryl] phosphono hydrogen phosphate
   48    50     1     0     0
SMALL
USER_CHARGES

@<TRIPOS>ATOM
      1 PG          0.5841   -2.8978   -3.3280 P.3       1 GTP         1.8160
      2 O1G        -0.7372   -2.3862   -3.8214 O.2       1 GTP        -0.8277
      3 O2G         0.7023   -3.0738   -1.7259 O.3       1 GTP        -0.7983
      4 O3G         1.0161   -4.3470   -3.8990 O.3       1 GTP        -0.7983
      5 O3B         1.8500   -1.9653   -3.7019 O.3       1 GTP        -0.8272
      6 PB          2.1995   -0.4292   -3.3434 P.3       1 GTP         1.9429
      7 O1B         2.3014   -0.1384   -1.8750 O.2       1 GTP        -0.8481
      8 O2B         3.5359   -0.1256   -4.2007 O.3       1 GTP        -0.8171
      9 O3A         1.0853    0.4174   -4.1486 O.3       1 GTP        -0.8114
     10 PA          0.8237    2.0080   -4.2558 P.3       1 GTP         1.8017
     11 O1A         1.9775    2.7842   -4.8213 O.2       1 GTP        -0.7846
     12 O2A        -0.5354    2.1015   -5.1282 O.3       1 GTP        -0.8074
     13 O5'         0.3750    2.4476   -2.7645 O.3       1 GTP        -0.5669
     14 C5'        -0.7794    1.8744   -2.1748 C.3       1 GTP         0.1637
     15 C4'        -0.9699    2.4597   -0.7819 C.3       1 GTP         0.1099
     16 O4'        -2.1475    1.8640   -0.2014 O.3       1 GTP        -0.4100
     17 C3'         0.1697    2.1347    0.1695 C.3       1 GTP         0.0924
     18 O3'         0.1809    3.0982    1.2223 O.3       1 GTP        -0.5892
     19 C2'        -0.2543    0.7880    0.7187 C.3       1 GTP         0.0635
     20 O2'         0.3606    0.4944    1.9582 O.3       1 GTP        -0.5749
     21 C1'        -1.7682    0.9516    0.8548 C.3       1 GTP         0.2557
     22 N9         -2.5926   -0.2553    0.7436 N.pl3     1 GTP        -0.2236
     23 C8         -2.2188   -1.5242    1.1136 C.ar      1 GTP         0.4148
     24 N7         -3.1705   -2.4105    0.8954 N.2       1 GTP        -0.5808
     25 C5         -4.1890   -1.6749    0.3655 C.ar      1 GTP         0.1777
     26 C6         -5.4857   -2.1175   -0.0667 C.ar      1 GTP         0.6505
     27 O6         -5.8619   -3.2814   -0.0104 O.2       1 GTP        -0.5947
     28 N1         -6.2422   -1.0420   -0.5529 N.pl3     1 GTP        -0.5110
     29 C2         -5.8042    0.3021   -0.6166 C.ar      1 GTP         0.6844
     30 N2         -6.7124    1.1908   -1.1303 N.pl3     1 GTP        -0.8920
     31 N3         -4.6101    0.6789   -0.2133 N.2       1 GTP        -0.6705
     32 C4         -3.8645   -0.3441    0.2595 C.ar      1 GTP         0.1220
     33 HOG2        0.5824   -2.2878   -1.1515 H         1 GTP         0.5087
     34 HOG3        0.4383   -5.1192   -3.7203 H         1 GTP         0.5087
     35 HOB2        4.3634   -0.6010   -3.9741 H         1 GTP         0.5092
     36 HOA2       -0.9448    2.9805   -5.2756 H         1 GTP         0.5041
     37 H5'        -1.6469    2.0965   -2.8047 H         1 GTP         0.0584
     38 H5''       -0.6476    0.7890   -2.1189 H         1 GTP         0.0584
     39 H4'        -1.1469    3.5409   -0.8523 H         1 GTP         0.1192
     40 H3'         1.1601    2.1310   -0.2934 H         1 GTP         0.0735
     41 HO3'        0.9173    2.8584    1.8048 H         1 GTP         0.4308
     42 H2'        -0.0024   -0.0091    0.0062 H         1 GTP         0.0746
     43 HO2'        1.3225    0.4909    1.8095 H         1 GTP         0.4224
     44 H1'        -2.0584    1.4255    1.8301 H         1 GTP         0.1162
     45 H8         -1.2450   -1.7377    1.5330 H         1 GTP         0.0741
     46 HN1        -7.1805   -1.2438   -0.8866 H         1 GTP         0.3343
     47 HN21       -6.4505    2.1471   -1.1951 H         1 GTP         0.4229
     48 HN22       -7.5984    0.8452   -1.4185 H         1 GTP         0.4229
@<TRIPOS>BOND
     1    1    2 2
     2    1    3 1
     3    1    4 1
     4    1    5 1
     5    3   33 1
     6    4   34 1
     7    5    6 1
     8    6    7 2
     9    6    8 1
    10    6    9 1
    11    8   35 1
    12    9   10 1
    13   10   11 2
    14   10   12 1
    15   10   13 1
    16   12   36 1
    17   13   14 1
    18   14   15 1
    19   14   37 1
    20   14   38 1
    21   15   16 1
    22   15   17 1
    23   15   39 1
    24   16   21 1
    25   17   18 1
    26   17   19 1
    27   17   40 1
    28   18   41 1
    29   19   20 1
    30   19   21 1
    31   19   42 1
    32   20   43 1
    33   21   22 1
    34   21   44 1
    35   22   23 ar
    36   22   32 ar
    37   23   24 ar
    38   23   45 1
    39   24   25 ar
    40   25   26 ar
    41   25   32 ar
    42   26   27 2
    43   26   28 ar
    44   28   29 ar
    45   28   46 1
    46   29   30 1
    47   29   31 ar
    48   30   47 1
    49   30   48 1
    50   31   32 ar
@<TRIPOS>SUBSTRUCTURE
     1 GTP         1 GROUP 0 A     ****
@<TRIPOS>MOLECULE
[[5-(2-amino-6-oxo-1~{H}-purin-9-yl)-3,4-dihydroxy-tetrahydrofuran-2-yl]methoxy-hydroxy-phosphoryl] phosphono hydrogen phosphate
   48    50     1     0     0
SMALL
USER_CHARGES

@<TRIPOS>ATOM
      1 PG         -0.8647    8.0463   -1.3348 P.3       1 GTP         1.8160
      2 O1G         0.5874    8.2686   -1.0299 O.2       1 GTP        -0.8277
      3 O2G        -1.8627    9.2147   -0.8342 O.3       1 GTP        -0.7983
      4 O3G        -1.2213    7.8929   -2.9039 O.3       1 GTP        -0.7983
      5 O3B        -1.4923    6.7066   -0.6844 O.3       1 GTP        -0.8272
      6 PB         -1.6386    6.2202    0.8493 P.3       1 GTP         1.9429
      7 O1B        -0.3395    6.0806    1.5867 O.2       1 GTP        -0.8481
      8 O2B        -2.6860    7.2712    1.4909 O.3       1 GTP        -0.8171
      9 O3A        -2.5313    4.8790    0.7447 O.3       1 GTP        -0.8114
     10 PA         -3.0702    3.8634    1.8796 P.3       1 GTP         1.8017
     11 O1A        -3.9589    4.5039    2.9059 O.2       1 GTP        -0.7846
     12 O2A        -3.7801    2.6911    1.0200 O.3       1 GTP        -0.8074
     13 O5'        -1.7335    3.1724    2.4745 O.3       1 GTP        -0.5669
     14 C5'        -0.8811    2.4285    1.6206 C.3       1 GTP         0.1637
     15 C4'        -0.1994    1.3333    2.4288 C.3       1 GTP         0.1099
     16 O4'        -1.1285    0.2356    2.5840 O.3       1 GTP        -0.4100
     17 C3'         1.0324    0.7610    1.7344 C.3       1 GTP         0.0924
     18 O3'         1.9175    0.2377    2.7247 O.3       1 GTP        -0.5892
     19 C2'         0.4468   -0.3802    0.9263 C.3       1 GTP         0.0635
     20 O2'         1.3993   -1.3703    0.5961 O.3       1 GTP        -0.5749
     21 C1'        -0.6159   -0.9100    1.8769 C.3       1 GTP         0.2557
     22 N9         -1.7127   -1.6108    1.2130 N.pl3     1 GTP        -0.2236
     23 C8         -2.5489   -1.0812    0.2607 C.ar      1 GTP         0.4148
     24 N7         -3.4468   -1.9516   -0.1576 N.2       1 GTP        -0.5808
     25 C5         -3.1696   -3.0787    0.5579 C.ar      1 GTP         0.1777
     26 C6         -3.8307   -4.3536    0.5166 C.ar      1 GTP         0.6505
     27 O6         -4.7841   -4.6033   -0.2101 O.2       1 GTP        -0.5947
     28 N1         -3.2356   -5.2522    1.4132 N.pl3     1 GTP        -0.5110
     29 C2         -2.1338   -4.9602    2.2517 C.ar      1 GTP         0.6844
     30 N2         -1.7156   -5.9923    3.0507 N.pl3     1 GTP        -0.8920
     31 N3         -1.5477   -3.7827    2.2686 N.2       1 GTP        -0.6705
     32 C4         -2.1070   -2.9013    1.4104 C.ar      1 GTP         0.1220
     33 HOG2       -1.9051    9.4256    0.1227 H         1 GTP         0.5087
     34 HOG3       -1.0140    8.6336   -3.5125 H         1 GTP         0.5087
     35 HOB2       -3.0068    7.1230    2.4059 H         1 GTP         0.5092
     36 HOA2       -4.1331    1.9060    1.4900 H         1 GTP         0.5041
     37 H5'        -1.4796    1.9923    0.8143 H         1 GTP         0.0584
     38 H5''       -0.1364    3.1037    1.1869 H         1 GTP         0.0584
     39 H4'         0.0402    1.7079    3.4343 H         1 GTP         0.1192
     40 H3'         1.5907    1.4859    1.1353 H         1 GTP         0.0735
     41 HO3'        2.6839   -0.1150    2.2479 H         1 GTP         0.4308
     42 H2'        -0.0017    0.0018    0.0005 H         1 GTP         0.0746
     43 HO2'        2.0953   -0.9375    0.0709 H         1 GTP         0.4224
     44 H1'        -0.1998   -1.6319    2.6178 H         1 GTP         0.1162
     45 H8         -2.4545   -0.0604   -0.0844 H         1 GTP         0.0741
     46 HN1        -3.6270   -6.1884    1.4651 H         1 GTP         0.3343
     47 HN21       -0.9445   -5.8354    3.6574 H         1 GTP         0.4229
     48 HN22       -2.1993   -6.8585    2.9930 H         1 GTP         0.4229
@<TRIPOS>BOND
     1    1    2 2
     2    1    3 1
     3    1    4 1
     4    1    5 1
     5    3   33 1
     6    4   34 1
     7    5    6 1
     8    6    7 2
     9    6    8 1
    10    6    9 1
    11    8   35 1
    12    9   10 1
    13   10   11 2
    14   10   12 1
    15   10   13 1
    16   12   36 1
    17   13   14 1
    18   14   15 1
    19   14   37 1
    20   14   38 1
    21   15   16 1
    22   15   17 1
    23   15   39 1
    24   16   21 1
    25   17   18 1
    26   17   19 1
    27   17   40 1
    28   18   41 1
    29   19   20 1
    30   19   21 1
    31   19   42 1
    32   20   43 1
    33   21   22 1
    34   21   44 1
    35   22   23 ar
    36   22   32 ar
    37   23   24 ar
    38   23   45 1
    39   24   25 ar
    40   25   26 ar
    41   25   32 ar
    42   26   27 2
    43   26   28 ar
    44   28   29 ar
    45   28   46 1
    46   29   30 1
    47   29   31 ar
    48   30   47 1
    49   30   48 1
    50   31   32 ar
@<TRIPOS>SUBSTRUCTURE
     1 GTP         1 GROUP 0 A     ****
@<TRIPOS>MOLECULE
[[5-(2-amino-6-oxo-1~{H}-purin-9-yl)-3,4-dihydroxy-tetrahydrofuran-2-yl]methoxy-hydroxy-phosphoryl] phosphono hydrogen phosphate
   48    50     1     0     0
SMALL
USER_CHARGES

@<TRIPOS>ATOM
      1 PG         -0.3027    7.2471   -3.6844 P.3       1 GTP         1.8160
      2 O1G        -1.5046    8.1307   -3.8447 O.2       1 GTP        -0.8277
      3 O2G         0.0403    6.3099   -4.9556 O.3       1 GTP        -0.7983
      4 O3G         1.0872    8.0227   -3.4023 O.3       1 GTP        -0.7983
      5 O3B        -0.3940    6.2015   -2.4556 O.3       1 GTP        -0.8272
      6 PB         -1.4356    5.0101   -2.1300 P.3       1 GTP         1.9429
      7 O1B        -2.8620    5.4509   -1.9821 O.2       1 GTP        -0.8481
      8 O2B        -1.1661    3.9290   -3.3012 O.3       1 GTP        -0.8171
      9 O3A        -0.7927    4.2773   -0.8431 O.3       1 GTP        -0.8114
     10 PA         -0.4423    4.8273    0.6350 P.3       1 GTP         1.8017
     11 O1A         0.5440    5.9589    0.6521 O.2       1 GTP        -0.7846
     12 O2A        -1.8939    5.1976    1.2457 O.3       1 GTP        -0.8074
     13 O5'         0.0173    3.5130    1.4593 O.3       1 GTP        -0.5669
     14 C5'        -0.8811    2.4285    1.6206 C.3       1 GTP         0.1637
     15 C4'        -0.1994    1.3333    2.4288 C.3       1 GTP         0.1099
     16 O4'        -1.1285    0.2356    2.5840 O.3       1 GTP        -0.4100
     17 C3'         1.0324    0.7610    1.7344 C.3       1 GTP         0.0924
     18 O3'         1.9175    0.2377    2.7247 O.3       1 GTP        -0.5892
     19 C2'         0.4468   -0.3802    0.9263 C.3       1 GTP         0.0635
     20 O2'         1.3993   -1.3703    0.5961 O.3       1 GTP        -0.5749
     21 C1'        -0.6159   -0.9100    1.8769 C.3       1 GTP         0.2557
     22 N9         -1.7127   -1.6108    1.2130 N.pl3     1 GTP        -0.2236
     23 C8         -2.5489   -1.0812    0.2607 C.ar      1 GTP         0.4148
     24 N7         -3.4468   -1.9516   -0.1576 N.2       1 GTP        -0.5808
     25 C5         -3.1696   -3.0787    0.5579 C.ar      1 GTP         0.1777
     26 C6         -3.8307   -4.3536    0.5166 C.ar      1 GTP         0.6505
     27 O6         -4.7841   -4.6033   -0.2101 O.2       1 GTP        -0.5947
     28 N1         -3.2356   -5.2522    1.4132 N.pl3     1 GTP        -0.5110
     29 C2         -2.1338   -4.9602    2.2517 C.ar      1 GTP         0.6844
     30 N2         -1.7156   -5.9923    3.0507 N.pl3     1 GTP        -0.8920
     31 N3         -1.5477   -3.7827    2.2686 N.2       1 GTP        -0.6705
     32 C4         -2.1070   -2.9013    1.4104 C.ar      1 GTP         0.1220
     33 HOG2        0.2357    6.7328   -5.8187 H         1 GTP         0.5087
     34 HOG3        1.1624    8.5869   -2.6035 H         1 GTP         0.5087
     35 HOB2       -1.6250    3.0630   -3.2625 H         1 GTP         0.5092
     36 HOA2       -2.4143    5.9167    0.8287 H         1 GTP         0.5041
     37 H5'        -1.7774    2.7844    2.1388 H         1 GTP         0.0584
     38 H5''       -1.1657    2.0536    0.6322 H         1 GTP         0.0584
     39 H4'         0.0402    1.7079    3.4343 H         1 GTP         0.1192
     40 H3'         1.5907    1.4859    1.1353 H         1 GTP         0.0735
     41 HO3'        2.6839   -0.1150    2.2479 H         1 GTP         0.4308
     42 H2'        -0.0017    0.0018    0.0005 H         1 GTP         0.0746
     43 HO2'        0.9369   -2.0558    0.0825 H         1 GTP         0.4224
     44 H1'        -0.1998   -1.6319    2.6178 H         1 GTP         0.1162
     45 H8         -2.4545   -0.0604   -0.0844 H         1 GTP         0.0741
     46 HN1        -3.6270   -6.1884    1.4651 H         1 GTP         0.3343
     47 HN21       -0.9445   -5.8354    3.6574 H         1 GTP         0.4229
     48 HN22       -2.1993   -6.8585    2.9930 H         1 GTP         0.4229
@<TRIPOS>BOND
     1    1    2 2
     2    1    3 1
     3    1    4 1
     4    1    5 1
     5    3   33 1
     6    4   34 1
     7    5    6 1
     8    6    7 2
     9    6    8 1
    10    6    9 1
    11    8   35 1
    12    9   10 1
    13   10   11 2
    14   10   12 1
    15   10   13 1
    16   12   36 1
    17   13   14 1
    18   14   15 1
    19   14   37 1
    20   14   38 1
    21   15   16 1
    22   15   17 1
    23   15   39 1
    24   16   21 1
    25   17   18 1
    26   17   19 1
    27   17   40 1
    28   18   41 1
    29   19   20 1
    30   19   21 1
    31   19   42 1
    32   20   43 1
    33   21   22 1
    34   21   44 1
    35   22   23 ar
    36   22   32 ar
    37   23   24 ar
    38   23   45 1
    39   24   25 ar
    40   25   26 ar
    41   25   32 ar
    42   26   27 2
    43   26   28 ar
    44   28   29 ar
    45   28   46 1
    46   29   30 1
    47   29   31 ar
    48   30   47 1
    49   30   48 1
    50   31   32 ar
@<TRIPOS>SUBSTRUCTURE
     1 GTP         1 GROUP 0 A     ****
@<TRIPOS>MOLECULE
[[5-(2-amino-6-oxo-1~{H}-purin-9-yl)-3,4-dihydroxy-tetrahydrofuran-2-yl]methoxy-hydroxy-phosphoryl] phosphono hydrogen phosphate
   48    50     1     0     0
SMALL
USER_CHARGES

@<TRIPOS>ATOM
      1 PG          0.5841   -2.8978   -3.3280 P.3       1 GTP         1.8160
      2 O1G         0.3658   -3.0957   -1.8569 O.2       1 GTP        -0.8277
      3 O2G         0.8445   -4.2489   -4.1758 O.3       1 GTP        -0.7983
      4 O3G        -0.6373   -2.1892   -4.1145 O.3       1 GTP        -0.7983
      5 O3B         1.8500   -1.9653   -3.7019 O.3       1 GTP        -0.8272
      6 PB          2.1995   -0.4292   -3.3434 P.3       1 GTP         1.9429
      7 O1B         2.3014   -0.1384   -1.8750 O.2       1 GTP        -0.8481
      8 O2B         3.5359   -0.1256   -4.2007 O.3       1 GTP        -0.8171
      9 O3A         1.0853    0.4174   -4.1486 O.3       1 GTP        -0.8114
     10 PA          0.8237    2.0080   -4.2558 P.3       1 GTP         1.8017
     11 O1A         1.9775    2.7842   -4.8213 O.2       1 GTP        -0.7846
     12 O2A        -0.5354    2.1015   -5.1282 O.3       1 GTP        -0.8074
     13 O5'         0.3750    2.4476   -2.7645 O.3       1 GTP        -0.5669
     14 C5'        -0.7794    1.8744   -2.1748 C.3       1 GTP         0.1637
     15 C4'        -0.9699    2.4597   -0.7819 C.3       1 GTP         0.1099
     16 O4'        -2.1475    1.8640   -0.2014 O.3       1 GTP        -0.4100
     17 C3'         0.1697    2.1347    0.1695 C.3       1 GTP         0.0924
     18 O3'         0.1809    3.0982    1.2223 O.3       1 GTP        -0.5892
     19 C2'        -0.2543    0.7880    0.7187 C.3       1 GTP         0.0635
     20 O2'         0.3606    0.4944    1.9582 O.3       1 GTP        -0.5749
     21 C1'        -1.7682    0.9516    0.8548 C.3       1 GTP         0.2557
     22 N9         -2.5926   -0.2553    0.7436 N.pl3     1 GTP        -0.2236
     23 C8         -2.1292   -1.5330    0.5451 C.ar      1 GTP         0.4148
     24 N7         -3.1061   -2.4167    0.4857 N.2       1 GTP        -0.5808
     25 C5         -4.2348   -1.6702    0.6529 C.ar      1 GTP         0.1777
     26 C6         -5.6038   -2.1053    0.6765 C.ar      1 GTP         0.6505
     27 O6         -5.9501   -3.2720    0.5410 O.2       1 GTP        -0.5947
     28 N1         -6.4680   -1.0192    0.8736 N.pl3     1 GTP        -0.5110
     29 C2         -6.0643    0.3281    1.0298 C.ar      1 GTP         0.6844
     30 N2         -7.0824    1.2278    1.2106 N.pl3     1 GTP        -0.8920
     31 N3         -4.8022    0.6979    1.0037 N.2       1 GTP        -0.6705
     32 C4         -3.9522   -0.3354    0.8146 C.ar      1 GTP         0.1220
     33 HOG2        1.6153   -4.8112   -3.9486 H         1 GTP         0.5087
     34 HOG3       -0.9170   -1.2886   -3.8444 H         1 GTP         0.5087
     35 HOB2        4.3634   -0.6010   -3.9741 H         1 GTP         0.5092
     36 HOA2       -0.9448    2.9805   -5.2756 H         1 GTP         0.5041
     37 H5'        -1.6469    2.0965   -2.8047 H         1 GTP         0.0584
     38 H5''       -0.6476    0.7890   -2.1189 H         1 GTP         0.0584
     39 H4'        -1.1469    3.5409   -0.8523 H         1 GTP         0.1192
     40 H3'         1.1601    2.1310   -0.2934 H         1 GTP         0.0735
     41 HO3'        0.9173    2.8584    1.8048 H         1 GTP         0.4308
     42 H2'        -0.0024   -0.0091    0.0062 H         1 GTP         0.0746
     43 HO2'        1.3225    0.4909    1.8095 H         1 GTP         0.4224
     44 H1'        -2.0584    1.4255    1.8301 H         1 GTP         0.1162
     45 H8         -1.0747   -1.7545    0.4515 H         1 GTP         0.0741
     46 HN1        -7.4645   -1.2151    0.9069 H         1 GTP         0.3343
     47 HN21       -6.8484    2.1867    1.3250 H         1 GTP         0.4229
     48 HN22       -8.0158    0.8871    1.2204 H         1 GTP         0.4229
@<TRIPOS>BOND
     1    1    2 2
     2    1    3 1
     3    1    4 1
     4    1    5 1
     5    3   33 1
     6    4   34 1
     7    5    6 1
     8    6    7 2
     9    6    8 1
    10    6    9 1
    11    8   35 1
    12    9   10 1
    13   10   11 2
    14   10   12 1
    15   10   13 1
    16   12   36 1
    17   13   14 1
    18   14   15 1
    19   14   37 1
    20   14   38 1
    21   15   16 1
    22   15   17 1
    23   15   39 1
    24   16   21 1
    25   17   18 1
    26   17   19 1
    27   17   40 1
    28   18   41 1
    29   19   20 1
    30   19   21 1
    31   19   42 1
    32   20   43 1
    33   21   22 1
    34   21   44 1
    35   22   23 ar
    36   22   32 ar
    37   23   24 ar
    38   23   45 1
    39   24   25 ar
    40   25   26 ar
    41   25   32 ar
    42   26   27 2
    43   26   28 ar
    44   28   29 ar
    45   28   46 1
    46   29   30 1
    47   29   31 ar
    48   30   47 1
    49   30   48 1
    50   31   32 ar
@<TRIPOS>SUBSTRUCTURE
     1 GTP         1 GROUP 0 A     ****
@<TRIPOS>MOLECULE
[[5-(2-amino-6-oxo-1~{H}-purin-9-yl)-3,4-dihydroxy-tetrahydrofuran-2-yl]methoxy-hydroxy-phosphoryl] phosphono hydrogen phosphate
   48    50     1     0     0
SMALL
USER_CHARGES

@<TRIPOS>ATOM
      1 PG         -3.7520    3.7559   -3.9027 P.3       1 GTP         1.8160
      2 O1G        -3.3468    4.5818   -5.0880 O.2       1 GTP        -0.8277
      3 O2G        -5.1540    4.1739   -3.2162 O.3       1 GTP        -0.7983
      4 O3G        -3.9319    2.1765   -4.1954 O.3       1 GTP        -0.7983
      5 O3B        -2.7041    3.7830   -2.6727 O.3       1 GTP        -0.8272
      6 PB         -2.1435    4.9937   -1.7616 P.3       1 GTP         1.9429
      7 O1B        -1.4193    6.0646   -2.5230 O.2       1 GTP        -0.8481
      8 O2B        -3.4419    5.4918   -0.9374 O.3       1 GTP        -0.8171
      9 O3A        -1.2850    4.2479   -0.6156 O.3       1 GTP        -0.8114
     10 PA         -0.4423    4.8273    0.6350 P.3       1 GTP         1.8017
     11 O1A         0.6756    5.7513    0.2478 O.2       1 GTP        -0.7846
     12 O2A        -1.5790    5.5072    1.5639 O.3       1 GTP        -0.8074
     13 O5'         0.0173    3.5130    1.4593 O.3       1 GTP        -0.5669
     14 C5'        -0.8811    2.4285    1.6206 C.3       1 GTP         0.1637
     15 C4'        -0.1994    1.3333    2.4288 C.3       1 GTP         0.1099
     16 O4'        -1.1285    0.2356    2.5840 O.3       1 GTP        -0.4100
     17 C3'         1.0324    0.7610    1.7344 C.3       1 GTP         0.0924
     18 O3'         1.9175    0.2377    2.7247 O.3       1 GTP        -0.5892
     19 C2'         0.4468   -0.3802    0.9263 C.3       1 GTP         0.0635
     20 O2'         1.3993   -1.3703    0.5961 O.3       1 GTP        -0.5749
     21 C1'        -0.6159   -0.9100    1.8769 C.3       1 GTP         0.2557
     22 N9         -1.7127   -1.6108    1.2130 N.pl3     1 GTP        -0.2236
     23 C8         -2.8667   -1.0365    0.7385 C.ar      1 GTP         0.4148
     24 N7         -3.6757   -1.9196    0.1868 N.2       1 GTP        -0.5808
     25 C5         -3.0088   -3.1018    0.3164 C.ar      1 GTP         0.1777
     26 C6         -3.4148   -4.4130   -0.1079 C.ar      1 GTP         0.6505
     27 O6         -4.4752   -4.6480   -0.6732 O.2       1 GTP        -0.5947
     28 N1         -2.4377   -5.3653    0.2144 N.pl3     1 GTP        -0.5110
     29 C2         -1.2132   -5.0902    0.8680 C.ar      1 GTP         0.6844
     30 N2         -0.4066   -6.1772    1.0834 N.pl3     1 GTP        -0.8920
     31 N3         -0.8672   -3.8786    1.2457 N.2       1 GTP        -0.6705
     32 C4         -1.7966   -2.9451    0.9439 C.ar      1 GTP         0.1220
     33 HOG2       -5.9743    4.1414   -3.7530 H         1 GTP         0.5087
     34 HOG3       -3.1635    1.6643   -4.5259 H         1 GTP         0.5087
     35 HOB2       -4.1842    5.9064   -1.4264 H         1 GTP         0.5092
     36 HOA2       -2.0748    6.2794    1.2177 H         1 GTP         0.5041
     37 H5'        -1.7774    2.7844    2.1388 H         1 GTP         0.0584
     38 H5''       -1.1657    2.0536    0.6322 H         1 GTP         0.0584
     39 H4'         0.0402    1.7079    3.4343 H         1 GTP         0.1192
     40 H3'         1.5907    1.4859    1.1353 H         1 GTP         0.0735
     41 HO3'        2.1521    0.9800    3.3017 H         1 GTP         0.4308
     42 H2'        -0.0017    0.0018    0.0005 H         1 GTP         0.0746
     43 HO2'        0.9369   -2.0558    0.0825 H         1 GTP         0.4224
     44 H1'        -0.1998   -1.6319    2.6178 H         1 GTP         0.1162
     45 H8         -3.0589    0.0244    0.8247 H         1 GTP         0.0741
     46 HN1        -2.6238   -6.3307   -0.0420 H         1 GTP         0.3343
     47 HN21       -0.7237   -7.0672    0.7753 H         1 GTP         0.4229
     48 HN22        0.4646   -6.0344    1.5394 H         1 GTP         0.4229
@<TRIPOS>BOND
     1    1    2 2
     2    1    3 1
     3    1    4 1
     4    1    5 1
     5    3   33 1
     6    4   34 1
     7    5    6 1
     8    6    7 2
     9    6    8 1
    10    6    9 1
    11    8   35 1
    12    9   10 1
    13   10   11 2
    14   10   12 1
    15   10   13 1
    16   12   36 1
    17   13   14 1
    18   14   15 1
    19   14   37 1
    20   14   38 1
    21   15   16 1
    22   15   17 1
    23   15   39 1
    24   16   21 1
    25   17   18 1
    26   17   19 1
    27   17   40 1
    28   18   41 1
    29   19   20 1
    30   19   21 1
    31   19   42 1
    32   20   43 1
    33   21   22 1
    34   21   44 1
    35   22   23 ar
    36   22   32 ar
    37   23   24 ar
    38   23   45 1
    39   24   25 ar
    40   25   26 ar
    41   25   32 ar
    42   26   27 2
    43   26   28 ar
    44   28   29 ar
    45   28   46 1
    46   29   30 1
    47   29   31 ar
    48   30   47 1
    49   30   48 1
    50   31   32 ar
@<TRIPOS>SUBSTRUCTURE
     1 GTP         1 GROUP 0 A     ****
@<TRIPOS>MOLECULE
[[5-(2-amino-6-oxo-1~{H}-purin-9-yl)-3,4-dihydroxy-tetrahydrofuran-2-yl]methoxy-hydroxy-phosphoryl] phosphono hydrogen phosphate
   48    50     1     0     0
SMALL
USER_CHARGES

@<TRIPOS>ATOM
      1 PG         -0.6526    2.8115   -4.7115 P.3       1 GTP         1.8160
      2 O1G         0.1936    3.7223   -5.5514 O.2       1 GTP        -0.8277
      3 O2G        -2.1496    2.5549   -5.2637 O.3       1 GTP        -0.7983
      4 O3G        -0.0645    1.3195   -4.5101 O.3       1 GTP        -0.7983
      5 O3B        -0.8891    3.3192   -3.1956 O.3       1 GTP        -0.8272
      6 PB          0.1415    3.6335   -1.9917 P.3       1 GTP         1.9429
      7 O1B         0.9811    2.4647   -1.5674 O.2       1 GTP        -0.8481
      8 O2B         0.9666    4.9216   -2.5142 O.3       1 GTP        -0.8171
      9 O3A        -0.7927    4.2773   -0.8431 O.3       1 GTP        -0.8114
     10 PA         -0.4423    4.8273    0.6350 P.3       1 GTP         1.8017
     11 O1A         0.5440    5.9589    0.6521 O.2       1 GTP        -0.7846
     12 O2A        -1.8939    5.1976    1.2457 O.3       1 GTP        -0.8074
     13 O5'         0.0173    3.5130    1.4593 O.3       1 GTP        -0.5669
     14 C5'        -0.8811    2.4285    1.6206 C.3       1 GTP         0.1637
     15 C4'        -0.1994    1.3333    2.4288 C.3       1 GTP         0.1099
     16 O4'        -1.1285    0.2356    2.5840 O.3       1 GTP        -0.4100
     17 C3'         1.0324    0.7610    1.7344 C.3       1 GTP         0.0924
     18 O3'         1.9175    0.2377    2.7247 O.3       1 GTP        -0.5892
     19 C2'         0.4468   -0.3802    0.9263 C.3       1 GTP         0.0635
     20 O2'         1.3993   -1.3703    0.5961 O.3       1 GTP        -0.5749
     21 C1'        -0.6159   -0.9100    1.8769 C.3       1 GTP         0.2557
     22 N9         -1.7127   -1.6108    1.2130 N.pl3     1 GTP        -0.2236
     23 C8         -3.0375   -1.2493    1.2452 C.ar      1 GTP         0.4148
     24 N7         -3.7986   -2.0732    0.5519 N.2       1 GTP        -0.5808
     25 C5         -2.9221   -2.9947    0.0601 C.ar      1 GTP         0.1777
     26 C6         -3.1909   -4.1355   -0.7707 C.ar      1 GTP         0.6505
     27 O6         -4.3086   -4.4427   -1.1652 O.2       1 GTP        -0.5947
     28 N1         -2.0085   -4.8320   -1.0576 N.pl3     1 GTP        -0.5110
     29 C2         -0.7182   -4.4742   -0.5998 C.ar      1 GTP         0.6844
     30 N2          0.2972   -5.3016   -1.0037 N.pl3     1 GTP        -0.8920
     31 N3         -0.5015   -3.4231    0.1607 N.2       1 GTP        -0.6705
     32 C4         -1.6297   -2.7374    0.4490 C.ar      1 GTP         0.1220
     33 HOG2       -2.2664    2.1507   -6.1497 H         1 GTP         0.5087
     34 HOG3        0.8111    1.2079   -4.0824 H         1 GTP         0.5087
     35 HOB2        1.5995    5.3587   -1.9056 H         1 GTP         0.5092
     36 HOA2       -1.9540    5.4950    2.1784 H         1 GTP         0.5041
     37 H5'        -1.7774    2.7844    2.1388 H         1 GTP         0.0584
     38 H5''       -1.1657    2.0536    0.6322 H         1 GTP         0.0584
     39 H4'         0.0402    1.7079    3.4343 H         1 GTP         0.1192
     40 H3'         1.5907    1.4859    1.1353 H         1 GTP         0.0735
     41 HO3'        2.6839   -0.1150    2.2479 H         1 GTP         0.4308
     42 H2'        -0.0017    0.0018    0.0005 H         1 GTP         0.0746
     43 HO2'        2.0953   -0.9375    0.0709 H         1 GTP         0.4224
     44 H1'        -0.1998   -1.6319    2.6178 H         1 GTP         0.1162
     45 H8         -3.3837   -0.3807    1.7887 H         1 GTP         0.0741
     46 HN1        -2.0841   -5.6603   -1.6411 H         1 GTP         0.3343
     47 HN21        1.2221   -5.0911   -0.7073 H         1 GTP         0.4229
     48 HN22        0.0702   -6.0804   -1.5775 H         1 GTP         0.4229
@<TRIPOS>BOND
     1    1    2 2
     2    1    3 1
     3    1    4 1
     4    1    5 1
     5    3   33 1
     6    4   34 1
     7    5    6 1
     8    6    7 2
     9    6    8 1
    10    6    9 1
    11    8   35 1
    12    9   10 1
    13   10   11 2
    14   10   12 1
    15   10   13 1
    16   12   36 1
    17   13   14 1
    18   14   15 1
    19   14   37 1
    20   14   38 1
    21   15   16 1
    22   15   17 1
    23   15   39 1
    24   16   21 1
    25   17   18 1
    26   17   19 1
    27   17   40 1
    28   18   41 1
    29   19   20 1
    30   19   21 1
    31   19   42 1
    32   20   43 1
    33   21   22 1
    34   21   44 1
    35   22   23 ar
    36   22   32 ar
    37   23   24 ar
    38   23   45 1
    39   24   25 ar
    40   25   26 ar
    41   25   32 ar
    42   26   27 2
    43   26   28 ar
    44   28   29 ar
    45   28   46 1
    46   29   30 1
    47   29   31 ar
    48   30   47 1
    49   30   48 1
    50   31   32 ar
@<TRIPOS>SUBSTRUCTURE
     1 GTP         1 GROUP 0 A     ****
@<TRIPOS>MOLECULE
[[5-(2-amino-6-oxo-1~{H}-purin-9-yl)-3,4-dihydroxy-tetrahydrofuran-2-yl]methoxy-hydroxy-phosphoryl] phosphono hydrogen phosphate
   48    50     1     0     0
SMALL
USER_CHARGES

@<TRIPOS>ATOM
      1 PG          0.7267    3.9531   -4.3280 P.3       1 GTP         1.8160
      2 O1G         1.6705    2.7915   -4.4330 O.2       1 GTP        -0.8277
      3 O2G         1.3763    5.4010   -4.6333 O.3       1 GTP        -0.7983
      4 O3G        -0.5474    3.8948   -5.3210 O.3       1 GTP        -0.7983
      5 O3B         0.0483    4.1405   -2.8732 O.3       1 GTP        -0.8272
      6 PB          0.6870    4.4007   -1.4122 P.3       1 GTP         1.9429
      7 O1B         1.6228    3.3273   -0.9397 O.2       1 GTP        -0.8481
      8 O2B         1.3345    5.8772   -1.5296 O.3       1 GTP        -0.8171
      9 O3A        -0.5977    4.6720   -0.4728 O.3       1 GTP        -0.8114
     10 PA         -0.7172    5.0023    1.1041 P.3       1 GTP         1.8017
     11 O1A        -0.0100    6.2579    1.5245 O.2       1 GTP        -0.7846
     12 O2A        -2.3148    5.0188    1.3585 O.3       1 GTP        -0.8074
     13 O5'        -0.2067    3.6555    1.8414 O.3       1 GTP        -0.5669
     14 C5'        -0.8811    2.4285    1.6206 C.3       1 GTP         0.1637
     15 C4'        -0.1994    1.3333    2.4288 C.3       1 GTP         0.1099
     16 O4'        -1.1285    0.2356    2.5840 O.3       1 GTP        -0.4100
     17 C3'         1.0324    0.7610    1.7344 C.3       1 GTP         0.0924
     18 O3'         1.9175    0.2377    2.7247 O.3       1 GTP        -0.5892
     19 C2'         0.4468   -0.3802    0.9263 C.3       1 GTP         0.0635
     20 O2'         1.3993   -1.3703    0.5961 O.3       1 GTP        -0.5749
     21 C1'        -0.6159   -0.9100    1.8769 C.3       1 GTP         0.2557
     22 N9         -1.7127   -1.6108    1.2130 N.pl3     1 GTP        -0.2236
     23 C8         -2.5489   -1.0812    0.2607 C.ar      1 GTP         0.4148
     24 N7         -3.4468   -1.9516   -0.1576 N.2       1 GTP        -0.5808
     25 C5         -3.1696   -3.0787    0.5579 C.ar      1 GTP         0.1777
     26 C6         -3.8307   -4.3536    0.5166 C.ar      1 GTP         0.6505
     27 O6         -4.7841   -4.6033   -0.2101 O.2       1 GTP        -0.5947
     28 N1         -3.2356   -5.2522    1.4132 N.pl3     1 GTP        -0.5110
     29 C2         -2.1338   -4.9602    2.2517 C.ar      1 GTP         0.6844
     30 N2         -1.7156   -5.9923    3.0507 N.pl3     1 GTP        -0.8920
     31 N3         -1.5477   -3.7827    2.2686 N.2       1 GTP        -0.6705
     32 C4         -2.1070   -2.9013    1.4104 C.ar      1 GTP         0.1220
     33 HOG2        2.1192    5.7156   -4.0755 H         1 GTP         0.5087
     34 HOG3       -0.3937    3.8661   -6.2893 H         1 GTP         0.5087
     35 HOB2        1.7080    6.2970   -0.7256 H         1 GTP         0.5092
     36 HOA2       -2.8581    5.7061    0.9176 H         1 GTP         0.5041
     37 H5'        -1.9258    2.5374    1.9293 H         1 GTP         0.0584
     38 H5''       -0.8476    2.1925    0.5521 H         1 GTP         0.0584
     39 H4'         0.0402    1.7079    3.4343 H         1 GTP         0.1192
     40 H3'         1.5907    1.4859    1.1353 H         1 GTP         0.0735
     41 HO3'        2.6839   -0.1150    2.2479 H         1 GTP         0.4308
     42 H2'        -0.0017    0.0018    0.0005 H         1 GTP         0.0746
     43 HO2'        0.9369   -2.0558    0.0825 H         1 GTP         0.4224
     44 H1'        -0.1998   -1.6319    2.6178 H         1 GTP         0.1162
     45 H8         -2.4545   -0.0604   -0.0844 H         1 GTP         0.0741
     46 HN1        -3.6270   -6.1884    1.4651 H         1 GTP         0.3343
     47 HN21       -0.9445   -5.8354    3.6574 H         1 GTP         0.4229
     48 HN22       -2.1993   -6.8585    2.9930 H         1 GTP         0.4229
@<TRIPOS>BOND
     1    1    2 2
     2    1    3 1
     3    1    4 1
     4    1    5 1
     5    3   33 1
     6    4   34 1
     7    5    6 1
     8    6    7 2
     9    6    8 1
    10    6    9 1
    11    8   35 1
    12    9   10 1
    13   10   11 2
    14   10   12 1
    15   10   13 1
    16   12   36 1
    17   13   14 1
    18   14   15 1
    19   14   37 1
    20   14   38 1
    21   15   16 1
    22   15   17 1
    23   15   39 1
    24   16   21 1
    25   17   18 1
    26   17   19 1
    27   17   40 1
    28   18   41 1
    29   19   20 1
    30   19   21 1
    31   19   42 1
    32   20   43 1
    33   21   22 1
    34   21   44 1
    35   22   23 ar
    36   22   32 ar
    37   23   24 ar
    38   23   45 1
    39   24   25 ar
    40   25   26 ar
    41   25   32 ar
    42   26   27 2
    43   26   28 ar
    44   28   29 ar
    45   28   46 1
    46   29   30 1
    47   29   31 ar
    48   30   47 1
    49   30   48 1
    50   31   32 ar
@<TRIPOS>SUBSTRUCTURE
     1 GTP         1 GROUP 0 A     ****
@<TRIPOS>MOLECULE
[[5-(2-amino-6-oxo-1~{H}-purin-9-yl)-3,4-dihydroxy-tetrahydrofuran-2-yl]methoxy-hydroxy-phosphoryl] phosphono hydrogen phosphate
   48    50     1     0     0
SMALL
USER_CHARGES

@<TRIPOS>ATOM
      1 PG         -3.7954    4.4309   -2.4325 P.3       1 GTP         1.8160
      2 O1G        -3.4418    5.3967   -3.5248 O.2       1 GTP        -0.8277
      3 O2G        -5.1653    3.6037   -2.6583 O.3       1 GTP        -0.7983
      4 O3G        -2.6992    3.2758   -2.1555 O.3       1 GTP        -0.7983
      5 O3B        -3.9939    5.1036   -0.9765 O.3       1 GTP        -0.8272
      6 PB         -2.9909    5.9523   -0.0362 P.3       1 GTP         1.9429
      7 O1B        -2.4782    7.2197   -0.6541 O.2       1 GTP        -0.8481
      8 O2B        -3.8172    6.1414    1.3402 O.3       1 GTP        -0.8171
      9 O3A        -1.8648    4.8783    0.3938 O.3       1 GTP        -0.8114
     10 PA         -0.5527    5.0214    1.3254 P.3       1 GTP         1.8017
     11 O1A         0.4439    6.0303    0.8330 O.2       1 GTP        -0.7846
     12 O2A        -1.1691    5.3492    2.7848 O.3       1 GTP        -0.8074
     13 O5'         0.0173    3.5130    1.4593 O.3       1 GTP        -0.5669
     14 C5'        -0.8811    2.4285    1.6206 C.3       1 GTP         0.1637
     15 C4'        -0.1994    1.3333    2.4288 C.3       1 GTP         0.1099
     16 O4'        -1.1285    0.2356    2.5840 O.3       1 GTP        -0.4100
     17 C3'         1.0324    0.7610    1.7344 C.3       1 GTP         0.0924
     18 O3'         1.9175    0.2377    2.7247 O.3       1 GTP        -0.5892
     19 C2'         0.4468   -0.3802    0.9263 C.3       1 GTP         0.0635
     20 O2'         1.3993   -1.3703    0.5961 O.3       1 GTP        -0.5749
     21 C1'        -0.6159   -0.9100    1.8769 C.3       1 GTP         0.2557
     22 N9         -1.7127   -1.6108    1.2130 N.pl3     1 GTP        -0.2236
     23 C8         -2.5489   -1.0812    0.2607 C.ar      1 GTP         0.4148
     24 N7         -3.4468   -1.9516   -0.1576 N.2       1 GTP        -0.5808
     25 C5         -3.1696   -3.0787    0.5579 C.ar      1 GTP         0.1777
     26 C6         -3.8307   -4.3536    0.5166 C.ar      1 GTP         0.6505
     27 O6         -4.7841   -4.6033   -0.2101 O.2       1 GTP        -0.5947
     28 N1         -3.2356   -5.2522    1.4132 N.pl3     1 GTP        -0.5110
     29 C2         -2.1338   -4.9602    2.2517 C.ar      1 GTP         0.6844
     30 N2         -1.7156   -5.9923    3.0507 N.pl3     1 GTP        -0.8920
     31 N3         -1.5477   -3.7827    2.2686 N.2       1 GTP        -0.6705
     32 C4         -2.1070   -2.9013    1.4104 C.ar      1 GTP         0.1220
     33 HOG2       -5.2478    3.0278   -3.4479 H         1 GTP         0.5087
     34 HOG3       -1.7922    3.5363   -1.8879 H         1 GTP         0.5087
     35 HOB2       -4.6318    6.6876    1.3336 H         1 GTP         0.5092
     36 HOA2       -1.6601    6.1882    2.9145 H         1 GTP         0.5041
     37 H5'        -1.7774    2.7844    2.1388 H         1 GTP         0.0584
     38 H5''       -1.1657    2.0536    0.6322 H         1 GTP         0.0584
     39 H4'         0.0402    1.7079    3.4343 H         1 GTP         0.1192
     40 H3'         1.5907    1.4859    1.1353 H         1 GTP         0.0735
     41 HO3'        2.6839   -0.1150    2.2479 H         1 GTP         0.4308
     42 H2'        -0.0017    0.0018    0.0005 H         1 GTP         0.0746
     43 HO2'        2.0953   -0.9375    0.0709 H         1 GTP         0.4224
     44 H1'        -0.1998   -1.6319    2.6178 H         1 GTP         0.1162
     45 H8         -2.4545   -0.0604   -0.0844 H         1 GTP         0.0741
     46 HN1        -3.6270   -6.1884    1.4651 H         1 GTP         0.3343
     47 HN21       -2.1995   -6.8583    2.9929 H         1 GTP         0.4229
     48 HN22       -0.9445   -5.8356    3.6575 H         1 GTP         0.4229
@<TRIPOS>BOND
     1    1    2 2
     2    1    3 1
     3    1    4 1
     4    1    5 1
     5    3   33 1
     6    4   34 1
     7    5    6 1
     8    6    7 2
     9    6    8 1
    10    6    9 1
    11    8   35 1
    12    9   10 1
    13   10   11 2
    14   10   12 1
    15   10   13 1
    16   12   36 1
    17   13   14 1
    18   14   15 1
    19   14   37 1
    20   14   38 1
    21   15   16 1
    22   15   17 1
    23   15   39 1
    24   16   21 1
    25   17   18 1
    26   17   19 1
    27   17   40 1
    28   18   41 1
    29   19   20 1
    30   19   21 1
    31   19   42 1
    32   20   43 1
    33   21   22 1
    34   21   44 1
    35   22   23 ar
    36   22   32 ar
    37   23   24 ar
    38   23   45 1
    39   24   25 ar
    40   25   26 ar
    41   25   32 ar
    42   26   27 2
    43   26   28 ar
    44   28   29 ar
    45   28   46 1
    46   29   30 1
    47   29   31 ar
    48   30   47 1
    49   30   48 1
    50   31   32 ar
@<TRIPOS>SUBSTRUCTURE
     1 GTP         1 GROUP 0 A     ****
@<TRIPOS>MOLECULE
[[5-(2-amino-6-oxo-1~{H}-purin-9-yl)-3,4-dihydroxy-tetrahydrofuran-2-yl]methoxy-hydroxy-phosphoryl] phosphono hydrogen phosphate
   48    50     1     0     0
SMALL
USER_CHARGES

@<TRIPOS>ATOM
      1 PG         -0.3263    3.0499   -4.0355 P.3       1 GTP         1.8160
      2 O1G         0.6132    2.2826   -3.1525 O.2       1 GTP        -0.8277
      3 O2G         0.3617    4.1912   -4.9497 O.3       1 GTP        -0.7983
      4 O3G        -1.1489    2.1574   -5.1029 O.3       1 GTP        -0.7983
      5 O3B        -1.4921    3.8456   -3.2485 O.3       1 GTP        -0.8272
      6 PB         -1.4356    5.0101   -2.1300 P.3       1 GTP         1.9429
      7 O1B        -0.7482    6.2682   -2.5726 O.2       1 GTP        -0.8481
      8 O2B        -2.9775    5.1892   -1.6787 O.3       1 GTP        -0.8171
      9 O3A        -0.7927    4.2773   -0.8431 O.3       1 GTP        -0.8114
     10 PA         -0.4423    4.8273    0.6350 P.3       1 GTP         1.8017
     11 O1A         0.5440    5.9589    0.6521 O.2       1 GTP        -0.7846
     12 O2A        -1.8939    5.1976    1.2457 O.3       1 GTP        -0.8074
     13 O5'         0.0173    3.5130    1.4593 O.3       1 GTP        -0.5669
     14 C5'        -0.8811    2.4285    1.6206 C.3       1 GTP         0.1637
     15 C4'        -0.1994    1.3333    2.4288 C.3       1 GTP         0.1099
     16 O4'        -1.1285    0.2356    2.5840 O.3       1 GTP        -0.4100
     17 C3'         1.0324    0.7610    1.7344 C.3       1 GTP         0.0924
     18 O3'         1.9175    0.2377    2.7247 O.3       1 GTP        -0.5892
     19 C2'         0.4468   -0.3802    0.9263 C.3       1 GTP         0.0635
     20 O2'         1.3993   -1.3703    0.5961 O.3       1 GTP        -0.5749
     21 C1'        -0.6159   -0.9100    1.8769 C.3       1 GTP         0.2557
     22 N9         -1.7127   -1.6108    1.2130 N.pl3     1 GTP        -0.2236
     23 C8         -2.5489   -1.0812    0.2607 C.ar      1 GTP         0.4148
     24 N7         -3.4468   -1.9516   -0.1576 N.2       1 GTP        -0.5808
     25 C5         -3.1696   -3.0787    0.5579 C.ar      1 GTP         0.1777
     26 C6         -3.8307   -4.3536    0.5166 C.ar      1 GTP         0.6505
     27 O6         -4.7841   -4.6033   -0.2101 O.2       1 GTP        -0.5947
     28 N1         -3.2356   -5.2522    1.4132 N.pl3     1 GTP        -0.5110
     29 C2         -2.1338   -4.9602    2.2517 C.ar      1 GTP         0.6844
     30 N2         -1.7156   -5.9923    3.0507 N.pl3     1 GTP        -0.8920
     31 N3         -1.5477   -3.7827    2.2686 N.2       1 GTP        -0.6705
     32 C4         -2.1070   -2.9013    1.4104 C.ar      1 GTP         0.1220
     33 HOG2        0.8437    4.9245   -4.5115 H         1 GTP         0.5087
     34 HOG3       -0.6521    1.6351   -5.7681 H         1 GTP         0.5087
     35 HOB2       -3.4790    4.4012   -1.3793 H         1 GTP         0.5092
     36 HOA2       -2.4143    5.9167    0.8287 H         1 GTP         0.5041
     37 H5'        -1.7774    2.7844    2.1388 H         1 GTP         0.0584
     38 H5''       -1.1657    2.0536    0.6322 H         1 GTP         0.0584
     39 H4'         0.0402    1.7079    3.4343 H         1 GTP         0.1192
     40 H3'         1.5907    1.4859    1.1353 H         1 GTP         0.0735
     41 HO3'        2.6839   -0.1150    2.2479 H         1 GTP         0.4308
     42 H2'        -0.0017    0.0018    0.0005 H         1 GTP         0.0746
     43 HO2'        0.9369   -2.0558    0.0825 H         1 GTP         0.4224
     44 H1'        -0.1998   -1.6319    2.6178 H         1 GTP         0.1162
     45 H8         -2.4545   -0.0604   -0.0844 H         1 GTP         0.0741
     46 HN1        -3.6270   -6.1884    1.4651 H         1 GTP         0.3343
     47 HN21       -0.9445   -5.8354    3.6574 H         1 GTP         0.4229
     48 HN22       -2.1993   -6.8585    2.9930 H         1 GTP         0.4229
@<TRIPOS>BOND
     1    1    2 2
     2    1    3 1
     3    1    4 1
     4    1    5 1
     5    3   33 1
     6    4   34 1
     7    5    6 1
     8    6    7 2
     9    6    8 1
    10    6    9 1
    11    8   35 1
    12    9   10 1
    13   10   11 2
    14   10   12 1
    15   10   13 1
    16   12   36 1
    17   13   14 1
    18   14   15 1
    19   14   37 1
    20   14   38 1
    21   15   16 1
    22   15   17 1
    23   15   39 1
    24   16   21 1
    25   17   18 1
    26   17   19 1
    27   17   40 1
    28   18   41 1
    29   19   20 1
    30   19   21 1
    31   19   42 1
    32   20   43 1
    33   21   22 1
    34   21   44 1
    35   22   23 ar
    36   22   32 ar
    37   23   24 ar
    38   23   45 1
    39   24   25 ar
    40   25   26 ar
    41   25   32 ar
    42   26   27 2
    43   26   28 ar
    44   28   29 ar
    45   28   46 1
    46   29   30 1
    47   29   31 ar
    48   30   47 1
    49   30   48 1
    50   31   32 ar
@<TRIPOS>SUBSTRUCTURE
     1 GTP         1 GROUP 0 A     ****
@<TRIPOS>MOLECULE
[[5-(2-amino-6-oxo-1~{H}-purin-9-yl)-3,4-dihydroxy-tetrahydrofuran-2-yl]methoxy-hydroxy-phosphoryl] phosphono hydrogen phosphate
   48    50     1     0     0
SMALL
USER_CHARGES

@<TRIPOS>ATOM
      1 PG         -1.9796    6.5103   -3.1379 P.3       1 GTP         1.8160
      2 O1G        -2.8426    7.7323   -3.2521 O.2       1 GTP        -0.8277
      3 O2G        -2.2719    5.3537   -4.2281 O.3       1 GTP        -0.7983
      4 O3G        -0.3918    6.7745   -3.2855 O.3       1 GTP        -0.7983
      5 O3B        -2.0917    5.7360   -1.7238 O.3       1 GTP        -0.8272
      6 PB         -3.3424    5.0437   -0.9709 P.3       1 GTP         1.9429
      7 O1B        -4.4751    5.9756   -0.6557 O.2       1 GTP        -0.8481
      8 O2B        -3.7229    3.7929   -1.9216 O.3       1 GTP        -0.8171
      9 O3A        -2.6685    4.3073    0.2980 O.3       1 GTP        -0.8114
     10 PA         -3.3131    3.4211    1.4850 P.3       1 GTP         1.8017
     11 O1A        -4.3319    4.1496    2.3125 O.2       1 GTP        -0.7846
     12 O2A        -3.8882    2.1240    0.7078 O.3       1 GTP        -0.8074
     13 O5'        -2.0398    2.8621    2.3123 O.3       1 GTP        -0.5669
     14 C5'        -0.8811    2.4285    1.6206 C.3       1 GTP         0.1637
     15 C4'        -0.1994    1.3333    2.4288 C.3       1 GTP         0.1099
     16 O4'        -1.1285    0.2356    2.5840 O.3       1 GTP        -0.4100
     17 C3'         1.0324    0.7610    1.7344 C.3       1 GTP         0.0924
     18 O3'         1.9175    0.2377    2.7247 O.3       1 GTP        -0.5892
     19 C2'         0.4468   -0.3802    0.9263 C.3       1 GTP         0.0635
     20 O2'         1.3993   -1.3703    0.5961 O.3       1 GTP        -0.5749
     21 C1'        -0.6159   -0.9100    1.8769 C.3       1 GTP         0.2557
     22 N9         -1.7127   -1.6108    1.2130 N.pl3     1 GTP        -0.2236
     23 C8         -2.5489   -1.0812    0.2607 C.ar      1 GTP         0.4148
     24 N7         -3.4468   -1.9516   -0.1576 N.2       1 GTP        -0.5808
     25 C5         -3.1696   -3.0787    0.5579 C.ar      1 GTP         0.1777
     26 C6         -3.8307   -4.3536    0.5166 C.ar      1 GTP         0.6505
     27 O6         -4.7841   -4.6033   -0.2101 O.2       1 GTP        -0.5947
     28 N1         -3.2356   -5.2522    1.4132 N.pl3     1 GTP        -0.5110
     29 C2         -2.1338   -4.9602    2.2517 C.ar      1 GTP         0.6844
     30 N2         -1.7156   -5.9923    3.0507 N.pl3     1 GTP        -0.8920
     31 N3         -1.5477   -3.7827    2.2686 N.2       1 GTP        -0.6705
     32 C4         -2.1070   -2.9013    1.4104 C.ar      1 GTP         0.1220
     33 HOG2       -3.1640    4.9474   -4.2622 H         1 GTP         0.5087
     34 HOG3       -0.0510    7.1666   -4.1174 H         1 GTP         0.5087
     35 HOB2       -4.0739    3.9694   -2.8204 H         1 GTP         0.5092
     36 HOA2       -4.6162    2.2428    0.0614 H         1 GTP         0.5041
     37 H5'        -1.1763    2.0500    0.6366 H         1 GTP         0.0584
     38 H5''       -0.2075    3.2812    1.4874 H         1 GTP         0.0584
     39 H4'         0.0402    1.7079    3.4343 H         1 GTP         0.1192
     40 H3'         1.5907    1.4859    1.1353 H         1 GTP         0.0735
     41 HO3'        2.6839   -0.1150    2.2479 H         1 GTP         0.4308
     42 H2'        -0.0017    0.0018    0.0005 H         1 GTP         0.0746
     43 HO2'        0.9369   -2.0558    0.0825 H         1 GTP         0.4224
     44 H1'        -0.1998   -1.6319    2.6178 H         1 GTP         0.1162
     45 H8         -2.4545   -0.0604   -0.0844 H         1 GTP         0.0741
     46 HN1        -3.6270   -6.1884    1.4651 H         1 GTP         0.3343
     47 HN21       -2.1995   -6.8583    2.9929 H         1 GTP         0.4229
     48 HN22       -0.9445   -5.8356    3.6575 H         1 GTP         0.4229
@<TRIPOS>BOND
     1    1    2 2
     2    1    3 1
     3    1    4 1
     4    1    5 1
     5    3   33 1
     6    4   34 1
     7    5    6 1
     8    6    7 2
     9    6    8 1
    10    6    9 1
    11    8   35 1
    12    9   10 1
    13   10   11 2
    14   10   12 1
    15   10   13 1
    16   12   36 1
    17   13   14 1
    18   14   15 1
    19   14   37 1
    20   14   38 1
    21   15   16 1
    22   15   17 1
    23   15   39 1
    24   16   21 1
    25   17   18 1
    26   17   19 1
    27   17   40 1
    28   18   41 1
    29   19   20 1
    30   19   21 1
    31   19   42 1
    32   20   43 1
    33   21   22 1
    34   21   44 1
    35   22   23 ar
    36   22   32 ar
    37   23   24 ar
    38   23   45 1
    39   24   25 ar
    40   25   26 ar
    41   25   32 ar
    42   26   27 2
    43   26   28 ar
    44   28   29 ar
    45   28   46 1
    46   29   30 1
    47   29   31 ar
    48   30   47 1
    49   30   48 1
    50   31   32 ar
@<TRIPOS>SUBSTRUCTURE
     1 GTP         1 GROUP 0 A     ****
@<TRIPOS>MOLECULE
[[5-(2-amino-6-oxo-1~{H}-purin-9-yl)-3,4-dihydroxy-tetrahydrofuran-2-yl]methoxy-hydroxy-phosphoryl] phosphono hydrogen phosphate
   48    50     1     0     0
SMALL
USER_CHARGES

@<TRIPOS>ATOM
      1 PG          1.5074    8.2588    0.8481 P.3       1 GTP         1.8160
      2 O1G         2.7981    7.8820    1.5139 O.2       1 GTP        -0.8277
      3 O2G         0.7417    9.5273    1.4933 O.3       1 GTP        -0.7983
      4 O3G         1.6295    8.6482   -0.7159 O.3       1 GTP        -0.7983
      5 O3B         0.3844    7.0967    0.8491 O.3       1 GTP        -0.8272
      6 PB         -0.3522    6.3116    2.0538 P.3       1 GTP         1.9429
      7 O1B         0.5703    5.5488    2.9583 O.2       1 GTP        -0.8481
      8 O2B        -1.2374    7.4546    2.7771 O.3       1 GTP        -0.8171
      9 O3A        -1.4833    5.4343    1.3071 O.3       1 GTP        -0.8114
     10 PA         -2.5920    4.4092    1.8815 P.3       1 GTP         1.8017
     11 O1A        -3.5580    5.0276    2.8499 O.2       1 GTP        -0.7846
     12 O2A        -3.2774    3.8166    0.5413 O.3       1 GTP        -0.8074
     13 O5'        -1.7335    3.1724    2.4745 O.3       1 GTP        -0.5669
     14 C5'        -0.8811    2.4285    1.6206 C.3       1 GTP         0.1637
     15 C4'        -0.1994    1.3333    2.4288 C.3       1 GTP         0.1099
     16 O4'        -1.1285    0.2356    2.5840 O.3       1 GTP        -0.4100
     17 C3'         1.0324    0.7610    1.7344 C.3       1 GTP         0.0924
     18 O3'         1.9175    0.2377    2.7247 O.3       1 GTP        -0.5892
     19 C2'         0.4468   -0.3802    0.9263 C.3       1 GTP         0.0635
     20 O2'         1.3993   -1.3703    0.5961 O.3       1 GTP        -0.5749
     21 C1'        -0.6159   -0.9100    1.8769 C.3       1 GTP         0.2557
     22 N9         -1.7127   -1.6108    1.2130 N.pl3     1 GTP        -0.2236
     23 C8         -2.0873   -2.9139    1.4324 C.ar      1 GTP         0.4148
     24 N7         -3.1135   -3.2727    0.6860 N.2       1 GTP        -0.5808
     25 C5         -3.4017   -2.1526   -0.0362 C.ar      1 GTP         0.1777
     26 C6         -4.4318   -1.9582   -1.0186 C.ar      1 GTP         0.6505
     27 O6         -5.2284   -2.8266   -1.3513 O.2       1 GTP        -0.5947
     28 N1         -4.3916   -0.6538   -1.5306 N.pl3     1 GTP        -0.5110
     29 C2         -3.4693    0.3474   -1.1439 C.ar      1 GTP         0.6844
     30 N2         -3.6143    1.5541   -1.7775 N.pl3     1 GTP        -0.8920
     31 N3         -2.5355    0.1410   -0.2407 N.2       1 GTP        -0.6705
     32 C4         -2.5574   -1.1117    0.2656 C.ar      1 GTP         0.1220
     33 HOG2        0.4600    9.4851    2.4319 H         1 GTP         0.5087
     34 HOG3        2.2002    9.4030   -0.9742 H         1 GTP         0.5087
     35 HOB2       -1.8537    7.1946    3.4946 H         1 GTP         0.5092
     36 HOA2       -3.9497    3.1075    0.6263 H         1 GTP         0.5041
     37 H5'        -1.4796    1.9923    0.8143 H         1 GTP         0.0584
     38 H5''       -0.1364    3.1037    1.1869 H         1 GTP         0.0584
     39 H4'         0.0402    1.7079    3.4343 H         1 GTP         0.1192
     40 H3'         1.5907    1.4859    1.1353 H         1 GTP         0.0735
     41 HO3'        2.6839   -0.1150    2.2479 H         1 GTP         0.4308
     42 H2'        -0.0017    0.0018    0.0005 H         1 GTP         0.0746
     43 HO2'        2.0953   -0.9375    0.0709 H         1 GTP         0.4224
     44 H1'        -0.1998   -1.6319    2.6178 H         1 GTP         0.1162
     45 H8         -1.5757   -3.5474    2.1443 H         1 GTP         0.0741
     46 HN1        -5.0800   -0.4074   -2.2361 H         1 GTP         0.3343
     47 HN21       -2.9894    2.2891   -1.5392 H         1 GTP         0.4229
     48 HN22       -4.3387    1.6483   -2.4512 H         1 GTP         0.4229
@<TRIPOS>BOND
     1    1    2 2
     2    1    3 1
     3    1    4 1
     4    1    5 1
     5    3   33 1
     6    4   34 1
     7    5    6 1
     8    6    7 2
     9    6    8 1
    10    6    9 1
    11    8   35 1
    12    9   10 1
    13   10   11 2
    14   10   12 1
    15   10   13 1
    16   12   36 1
    17   13   14 1
    18   14   15 1
    19   14   37 1
    20   14   38 1
    21   15   16 1
    22   15   17 1
    23   15   39 1
    24   16   21 1
    25   17   18 1
    26   17   19 1
    27   17   40 1
    28   18   41 1
    29   19   20 1
    30   19   21 1
    31   19   42 1
    32   20   43 1
    33   21   22 1
    34   21   44 1
    35   22   23 ar
    36   22   32 ar
    37   23   24 ar
    38   23   45 1
    39   24   25 ar
    40   25   26 ar
    41   25   32 ar
    42   26   27 2
    43   26   28 ar
    44   28   29 ar
    45   28   46 1
    46   29   30 1
    47   29   31 ar
    48   30   47 1
    49   30   48 1
    50   31   32 ar
@<TRIPOS>SUBSTRUCTURE
     1 GTP         1 GROUP 0 A     ****
@<TRIPOS>MOLECULE
[[5-(2-amino-6-oxo-1~{H}-purin-9-yl)-3,4-dihydroxy-tetrahydrofuran-2-yl]methoxy-hydroxy-phosphoryl] phosphono hydrogen phosphate
   48    50     1     0     0
SMALL
USER_CHARGES

@<TRIPOS>ATOM
      1 PG          1.4875    5.6492   -3.1934 P.3       1 GTP         1.8160
      2 O1G         2.9828    5.5798   -3.2955 O.2       1 GTP        -0.8277
      3 O2G         0.9015    5.7502   -1.6907 O.3       1 GTP        -0.7983
      4 O3G         0.8050    6.9045   -3.9490 O.3       1 GTP        -0.7983
      5 O3B         0.7097    4.3785   -3.8195 O.3       1 GTP        -0.8272
      6 PB          0.6777    3.7643   -5.3135 P.3       1 GTP         1.9429
      7 O1B         0.1745    4.7078   -6.3659 O.2       1 GTP        -0.8481
      8 O2B         2.1819    3.2174   -5.5401 O.3       1 GTP        -0.8171
      9 O3A        -0.1564    2.3918   -5.1480 O.3       1 GTP        -0.8114
     10 PA         -1.6645    2.1131   -4.6401 P.3       1 GTP         1.8017
     11 O1A        -2.7247    2.7840   -5.4643 O.2       1 GTP        -0.7846
     12 O2A        -1.7559    0.4980   -4.6214 O.3       1 GTP        -0.8074
     13 O5'        -1.6513    2.5331   -3.0776 O.3       1 GTP        -0.5669
     14 C5'        -0.7794    1.8744   -2.1748 C.3       1 GTP         0.1637
     15 C4'        -0.9699    2.4597   -0.7819 C.3       1 GTP         0.1099
     16 O4'        -2.1475    1.8640   -0.2014 O.3       1 GTP        -0.4100
     17 C3'         0.1697    2.1347    0.1695 C.3       1 GTP         0.0924
     18 O3'         0.1809    3.0982    1.2223 O.3       1 GTP        -0.5892
     19 C2'        -0.2543    0.7880    0.7187 C.3       1 GTP         0.0635
     20 O2'         0.3606    0.4944    1.9582 O.3       1 GTP        -0.5749
     21 C1'        -1.7682    0.9516    0.8548 C.3       1 GTP         0.2557
     22 N9         -2.5926   -0.2553    0.7436 N.pl3     1 GTP        -0.2236
     23 C8         -2.2853   -1.3774    0.0134 C.ar      1 GTP         0.4148
     24 N7         -3.2188   -2.3045    0.1026 N.2       1 GTP        -0.5808
     25 C5         -4.1563   -1.7486    0.9220 C.ar      1 GTP         0.1777
     26 C6         -5.4005   -2.3083    1.3722 C.ar      1 GTP         0.6505
     27 O6         -5.7999   -3.4222    1.0575 O.2       1 GTP        -0.5947
     28 N1         -6.0772   -1.4091    2.2084 N.pl3     1 GTP        -0.5110
     29 C2         -5.6128   -0.1223    2.5700 C.ar      1 GTP         0.6844
     30 N2         -6.4404    0.5875    3.4005 N.pl3     1 GTP        -0.8920
     31 N3         -4.4683    0.3649    2.1422 N.2       1 GTP        -0.6705
     32 C4         -3.7999   -0.4873    1.3339 C.ar      1 GTP         0.1220
     33 HOG2        1.0968    5.0291   -1.0551 H         1 GTP         0.5087
     34 HOG3        0.9308    7.0017   -4.9169 H         1 GTP         0.5087
     35 HOB2        2.3854    2.7118   -6.3555 H         1 GTP         0.5092
     36 HOA2       -2.5698    0.0732   -4.2762 H         1 GTP         0.5041
     37 H5'        -1.0111    0.8044   -2.1748 H         1 GTP         0.0584
     38 H5''        0.2527    2.0160   -2.5113 H         1 GTP         0.0584
     39 H4'        -1.1469    3.5409   -0.8523 H         1 GTP         0.1192
     40 H3'         1.1601    2.1310   -0.2934 H         1 GTP         0.0735
     41 HO3'        0.9173    2.8584    1.8048 H         1 GTP         0.4308
     42 H2'        -0.0024   -0.0091    0.0062 H         1 GTP         0.0746
     43 HO2'        1.3225    0.4909    1.8095 H         1 GTP         0.4224
     44 H1'        -2.0584    1.4255    1.8301 H         1 GTP         0.1162
     45 H8         -1.3717   -1.4583   -0.5599 H         1 GTP         0.0741
     46 HN1        -6.9732   -1.7053    2.5850 H         1 GTP         0.3343
     47 HN21       -6.1570    1.4973    3.6824 H         1 GTP         0.4229
     48 HN22       -7.2925    0.1655    3.6894 H         1 GTP         0.4229
@<TRIPOS>BOND
     1    1    2 2
     2    1    3 1
     3    1    4 1
     4    1    5 1
     5    3   33 1
     6    4   34 1
     7    5    6 1
     8    6    7 2
     9    6    8 1
    10    6    9 1
    11    8   35 1
    12    9   10 1
    13   10   11 2
    14   10   12 1
    15   10   13 1
    16   12   36 1
    17   13   14 1
    18   14   15 1
    19   14   37 1
    20   14   38 1
    21   15   16 1
    22   15   17 1
    23   15   39 1
    24   16   21 1
    25   17   18 1
    26   17   19 1
    27   17   40 1
    28   18   41 1
    29   19   20 1
    30   19   21 1
    31   19   42 1
    32   20   43 1
    33   21   22 1
    34   21   44 1
    35   22   23 ar
    36   22   32 ar
    37   23   24 ar
    38   23   45 1
    39   24   25 ar
    40   25   26 ar
    41   25   32 ar
    42   26   27 2
    43   26   28 ar
    44   28   29 ar
    45   28   46 1
    46   29   30 1
    47   29   31 ar
    48   30   47 1
    49   30   48 1
    50   31   32 ar
@<TRIPOS>SUBSTRUCTURE
     1 GTP         1 GROUP 0 A     ****
@<TRIPOS>MOLECULE
[[5-(2-amino-6-oxo-1~{H}-purin-9-yl)-3,4-dihydroxy-tetrahydrofuran-2-yl]methoxy-hydroxy-phosphoryl] phosphono hydrogen phosphate
   48    50     1     0     0
SMALL
USER_CHARGES

@<TRIPOS>ATOM
      1 PG          1.4875    5.6492   -3.1934 P.3       1 GTP         1.8160
      2 O1G         2.9828    5.5798   -3.2955 O.2       1 GTP        -0.8277
      3 O2G         0.9015    5.7502   -1.6907 O.3       1 GTP        -0.7983
      4 O3G         0.8050    6.9045   -3.9490 O.3       1 GTP        -0.7983
      5 O3B         0.7097    4.3785   -3.8195 O.3       1 GTP        -0.8272
      6 PB          0.6777    3.7643   -5.3135 P.3       1 GTP         1.9429
      7 O1B         0.1745    4.7078   -6.3659 O.2       1 GTP        -0.8481
      8 O2B         2.1819    3.2174   -5.5401 O.3       1 GTP        -0.8171
      9 O3A        -0.1564    2.3918   -5.1480 O.3       1 GTP        -0.8114
     10 PA         -1.6645    2.1131   -4.6401 P.3       1 GTP         1.8017
     11 O1A        -2.7247    2.7840   -5.4643 O.2       1 GTP        -0.7846
     12 O2A        -1.7559    0.4980   -4.6214 O.3       1 GTP        -0.8074
     13 O5'        -1.6513    2.5331   -3.0776 O.3       1 GTP        -0.5669
     14 C5'        -0.7794    1.8744   -2.1748 C.3       1 GTP         0.1637
     15 C4'        -0.9699    2.4597   -0.7819 C.3       1 GTP         0.1099
     16 O4'        -2.1475    1.8640   -0.2014 O.3       1 GTP        -0.4100
     17 C3'         0.1697    2.1347    0.1695 C.3       1 GTP         0.0924
     18 O3'         0.1809    3.0982    1.2223 O.3       1 GTP        -0.5892
     19 C2'        -0.2543    0.7880    0.7187 C.3       1 GTP         0.0635
     20 O2'         0.3606    0.4944    1.9582 O.3       1 GTP        -0.5749
     21 C1'        -1.7682    0.9516    0.8548 C.3       1 GTP         0.2557
     22 N9         -2.5926   -0.2553    0.7436 N.pl3     1 GTP        -0.2236
     23 C8         -2.2188   -1.5242    1.1136 C.ar      1 GTP         0.4148
     24 N7         -3.1705   -2.4105    0.8954 N.2       1 GTP        -0.5808
     25 C5         -4.1890   -1.6749    0.3655 C.ar      1 GTP         0.1777
     26 C6         -5.4857   -2.1175   -0.0667 C.ar      1 GTP         0.6505
     27 O6         -5.8619   -3.2814   -0.0104 O.2       1 GTP        -0.5947
     28 N1         -6.2422   -1.0420   -0.5529 N.pl3     1 GTP        -0.5110
     29 C2         -5.8042    0.3021   -0.6166 C.ar      1 GTP         0.6844
     30 N2         -6.7124    1.1908   -1.1303 N.pl3     1 GTP        -0.8920
     31 N3         -4.6101    0.6789   -0.2133 N.2       1 GTP        -0.6705
     32 C4         -3.8645   -0.3441    0.2595 C.ar      1 GTP         0.1220
     33 HOG2        1.0968    5.0291   -1.0551 H         1 GTP         0.5087
     34 HOG3        0.9308    7.0017   -4.9169 H         1 GTP         0.5087
     35 HOB2        2.3854    2.7118   -6.3555 H         1 GTP         0.5092
     36 HOA2       -2.5698    0.0732   -4.2762 H         1 GTP         0.5041
     37 H5'        -1.0111    0.8044   -2.1748 H         1 GTP         0.0584
     38 H5''        0.2527    2.0160   -2.5113 H         1 GTP         0.0584
     39 H4'        -1.1469    3.5409   -0.8523 H         1 GTP         0.1192
     40 H3'         1.1601    2.1310   -0.2934 H         1 GTP         0.0735
     41 HO3'        0.9173    2.8584    1.8048 H         1 GTP         0.4308
     42 H2'        -0.0024   -0.0091    0.0062 H         1 GTP         0.0746
     43 HO2'        1.3225    0.4909    1.8095 H         1 GTP         0.4224
     44 H1'        -2.0584    1.4255    1.8301 H         1 GTP         0.1162
     45 H8         -1.2450   -1.7377    1.5330 H         1 GTP         0.0741
     46 HN1        -7.1805   -1.2438   -0.8866 H         1 GTP         0.3343
     47 HN21       -6.4505    2.1471   -1.1951 H         1 GTP         0.4229
     48 HN22       -7.5984    0.8452   -1.4185 H         1 GTP         0.4229
@<TRIPOS>BOND
     1    1    2 2
     2    1    3 1
     3    1    4 1
     4    1    5 1
     5    3   33 1
     6    4   34 1
     7    5    6 1
     8    6    7 2
     9    6    8 1
    10    6    9 1
    11    8   35 1
    12    9   10 1
    13   10   11 2
    14   10   12 1
    15   10   13 1
    16   12   36 1
    17   13   14 1
    18   14   15 1
    19   14   37 1
    20   14   38 1
    21   15   16 1
    22   15   17 1
    23   15   39 1
    24   16   21 1
    25   17   18 1
    26   17   19 1
    27   17   40 1
    28   18   41 1
    29   19   20 1
    30   19   21 1
    31   19   42 1
    32   20   43 1
    33   21   22 1
    34   21   44 1
    35   22   23 ar
    36   22   32 ar
    37   23   24 ar
    38   23   45 1
    39   24   25 ar
    40   25   26 ar
    41   25   32 ar
    42   26   27 2
    43   26   28 ar
    44   28   29 ar
    45   28   46 1
    46   29   30 1
    47   29   31 ar
    48   30   47 1
    49   30   48 1
    50   31   32 ar
@<TRIPOS>SUBSTRUCTURE
     1 GTP         1 GROUP 0 A     ****
@<TRIPOS>MOLECULE
[[5-(2-amino-6-oxo-1~{H}-purin-9-yl)-3,4-dihydroxy-tetrahydrofuran-2-yl]methoxy-hydroxy-phosphoryl] phosphono hydrogen phosphate
   48    50     1     0     0
SMALL
USER_CHARGES

@<TRIPOS>ATOM
      1 PG          1.9603    5.3316    3.6016 P.3       1 GTP         1.8160
      2 O1G         3.1033    5.8756    2.7963 O.2       1 GTP        -0.8277
      3 O2G         2.1834    3.8486    4.2039 O.3       1 GTP        -0.7983
      4 O3G         1.5553    6.2077    4.8981 O.3       1 GTP        -0.7983
      5 O3B         0.5660    5.2074    2.7940 O.3       1 GTP        -0.8272
      6 PB         -0.3522    6.3116    2.0538 P.3       1 GTP         1.9429
      7 O1B        -0.8615    7.4021    2.9496 O.2       1 GTP        -0.8481
      8 O2B         0.5603    6.8070    0.8149 O.3       1 GTP        -0.8171
      9 O3A        -1.4833    5.4343    1.3071 O.3       1 GTP        -0.8114
     10 PA         -2.5920    4.4092    1.8815 P.3       1 GTP         1.8017
     11 O1A        -3.5580    5.0276    2.8499 O.2       1 GTP        -0.7846
     12 O2A        -3.2774    3.8166    0.5413 O.3       1 GTP        -0.8074
     13 O5'        -1.7335    3.1724    2.4745 O.3       1 GTP        -0.5669
     14 C5'        -0.8811    2.4285    1.6206 C.3       1 GTP         0.1637
     15 C4'        -0.1994    1.3333    2.4288 C.3       1 GTP         0.1099
     16 O4'        -1.1285    0.2356    2.5840 O.3       1 GTP        -0.4100
     17 C3'         1.0324    0.7610    1.7344 C.3       1 GTP         0.0924
     18 O3'         1.9175    0.2377    2.7247 O.3       1 GTP        -0.5892
     19 C2'         0.4468   -0.3802    0.9263 C.3       1 GTP         0.0635
     20 O2'         1.3993   -1.3703    0.5961 O.3       1 GTP        -0.5749
     21 C1'        -0.6159   -0.9100    1.8769 C.3       1 GTP         0.2557
     22 N9         -1.7127   -1.6108    1.2130 N.pl3     1 GTP        -0.2236
     23 C8         -3.0375   -1.2493    1.2452 C.ar      1 GTP         0.4148
     24 N7         -3.7986   -2.0732    0.5519 N.2       1 GTP        -0.5808
     25 C5         -2.9221   -2.9947    0.0601 C.ar      1 GTP         0.1777
     26 C6         -3.1909   -4.1355   -0.7707 C.ar      1 GTP         0.6505
     27 O6         -4.3086   -4.4427   -1.1652 O.2       1 GTP        -0.5947
     28 N1         -2.0085   -4.8320   -1.0576 N.pl3     1 GTP        -0.5110
     29 C2         -0.7182   -4.4742   -0.5998 C.ar      1 GTP         0.6844
     30 N2          0.2972   -5.3016   -1.0037 N.pl3     1 GTP        -0.8920
     31 N3         -0.5015   -3.4231    0.1607 N.2       1 GTP        -0.6705
     32 C4         -1.6297   -2.7374    0.4490 C.ar      1 GTP         0.1220
     33 HOG2        2.3448    3.1042    3.5860 H         1 GTP         0.5087
     34 HOG3        2.2247    6.3548    5.5998 H         1 GTP         0.5087
     35 HOB2        0.1732    7.4226    0.1566 H         1 GTP         0.5092
     36 HOA2       -3.7783    4.4241   -0.0435 H         1 GTP         0.5041
     37 H5'        -1.4796    1.9923    0.8143 H         1 GTP         0.0584
     38 H5''       -0.1364    3.1037    1.1869 H         1 GTP         0.0584
     39 H4'         0.0402    1.7079    3.4343 H         1 GTP         0.1192
     40 H3'         1.5907    1.4859    1.1353 H         1 GTP         0.0735
     41 HO3'        2.1521    0.9800    3.3017 H         1 GTP         0.4308
     42 H2'        -0.0017    0.0018    0.0005 H         1 GTP         0.0746
     43 HO2'        1.7495   -1.7243    1.4324 H         1 GTP         0.4224
     44 H1'        -0.1998   -1.6319    2.6178 H         1 GTP         0.1162
     45 H8         -3.3837   -0.3807    1.7887 H         1 GTP         0.0741
     46 HN1        -2.0841   -5.6603   -1.6411 H         1 GTP         0.3343
     47 HN21        1.2221   -5.0911   -0.7073 H         1 GTP         0.4229
     48 HN22        0.0702   -6.0804   -1.5775 H         1 GTP         0.4229
@<TRIPOS>BOND
     1    1    2 2
     2    1    3 1
     3    1    4 1
     4    1    5 1
     5    3   33 1
     6    4   34 1
     7    5    6 1
     8    6    7 2
     9    6    8 1
    10    6    9 1
    11    8   35 1
    12    9   10 1
    13   10   11 2
    14   10   12 1
    15   10   13 1
    16   12   36 1
    17   13   14 1
    18   14   15 1
    19   14   37 1
    20   14   38 1
    21   15   16 1
    22   15   17 1
    23   15   39 1
    24   16   21 1
    25   17   18 1
    26   17   19 1
    27   17   40 1
    28   18   41 1
    29   19   20 1
    30   19   21 1
    31   19   42 1
    32   20   43 1
    33   21   22 1
    34   21   44 1
    35   22   23 ar
    36   22   32 ar
    37   23   24 ar
    38   23   45 1
    39   24   25 ar
    40   25   26 ar
    41   25   32 ar
    42   26   27 2
    43   26   28 ar
    44   28   29 ar
    45   28   46 1
    46   29   30 1
    47   29   31 ar
    48   30   47 1
    49   30   48 1
    50   31   32 ar
@<TRIPOS>SUBSTRUCTURE
     1 GTP         1 GROUP 0 A     ****
@<TRIPOS>MOLECULE
[[5-(2-amino-6-oxo-1~{H}-purin-9-yl)-3,4-dihydroxy-tetrahydrofuran-2-yl]methoxy-hydroxy-phosphoryl] phosphono hydrogen phosphate
   48    50     1     0     0
SMALL
USER_CHARGES

@<TRIPOS>ATOM
      1 PG         -2.9854    4.8725   -3.8468 P.3       1 GTP         1.8160
      2 O1G        -2.5625    3.6584   -4.6203 O.2       1 GTP        -0.8277
      3 O2G        -2.3835    6.2749   -4.3786 O.3       1 GTP        -0.7983
      4 O3G        -4.5792    5.1388   -3.8039 O.3       1 GTP        -0.7983
      5 O3B        -2.5758    4.8520   -2.2837 O.3       1 GTP        -0.8272
      6 PB         -1.1406    4.7616   -1.5473 P.3       1 GTP         1.9429
      7 O1B        -0.3525    3.5252   -1.8651 O.2       1 GTP        -0.8481
      8 O2B        -0.4195    6.1565   -1.9312 O.3       1 GTP        -0.8171
      9 O3A        -1.4932    4.9848    0.0124 O.3       1 GTP        -0.8114
     10 PA         -0.5527    5.0214    1.3254 P.3       1 GTP         1.8017
     11 O1A         0.4988    6.0924    1.2989 O.2       1 GTP        -0.7846
     12 O2A        -1.6150    5.1587    2.5377 O.3       1 GTP        -0.8074
     13 O5'         0.0173    3.5130    1.4593 O.3       1 GTP        -0.5669
     14 C5'        -0.8811    2.4285    1.6206 C.3       1 GTP         0.1637
     15 C4'        -0.1994    1.3333    2.4288 C.3       1 GTP         0.1099
     16 O4'        -1.1285    0.2356    2.5840 O.3       1 GTP        -0.4100
     17 C3'         1.0324    0.7610    1.7344 C.3       1 GTP         0.0924
     18 O3'         1.9175    0.2377    2.7247 O.3       1 GTP        -0.5892
     19 C2'         0.4468   -0.3802    0.9263 C.3       1 GTP         0.0635
     20 O2'         1.3993   -1.3703    0.5961 O.3       1 GTP        -0.5749
     21 C1'        -0.6159   -0.9100    1.8769 C.3       1 GTP         0.2557
     22 N9         -1.7127   -1.6108    1.2130 N.pl3     1 GTP        -0.2236
     23 C8         -2.5489   -1.0812    0.2607 C.ar      1 GTP         0.4148
     24 N7         -3.4468   -1.9516   -0.1576 N.2       1 GTP        -0.5808
     25 C5         -3.1696   -3.0787    0.5579 C.ar      1 GTP         0.1777
     26 C6         -3.8307   -4.3536    0.5166 C.ar      1 GTP         0.6505
     27 O6         -4.7841   -4.6033   -0.2101 O.2       1 GTP        -0.5947
     28 N1         -3.2356   -5.2522    1.4132 N.pl3     1 GTP        -0.5110
     29 C2         -2.1338   -4.9602    2.2517 C.ar      1 GTP         0.6844
     30 N2         -1.7156   -5.9923    3.0507 N.pl3     1 GTP        -0.8920
     31 N3         -1.5477   -3.7827    2.2686 N.2       1 GTP        -0.6705
     32 C4         -2.1070   -2.9013    1.4104 C.ar      1 GTP         0.1220
     33 HOG2       -1.4106    6.3976   -4.3976 H         1 GTP         0.5087
     34 HOG3       -5.1644    4.4553   -3.4134 H         1 GTP         0.5087
     35 HOB2        0.4429    6.3745   -1.5178 H         1 GTP         0.5092
     36 HOA2       -1.2863    5.1327    3.4614 H         1 GTP         0.5041
     37 H5'        -1.7774    2.7844    2.1388 H         1 GTP         0.0584
     38 H5''       -1.1657    2.0536    0.6322 H         1 GTP         0.0584
     39 H4'         0.0402    1.7079    3.4343 H         1 GTP         0.1192
     40 H3'         1.5907    1.4859    1.1353 H         1 GTP         0.0735
     41 HO3'        2.6839   -0.1150    2.2479 H         1 GTP         0.4308
     42 H2'        -0.0017    0.0018    0.0005 H         1 GTP         0.0746
     43 HO2'        2.0953   -0.9375    0.0709 H         1 GTP         0.4224
     44 H1'        -0.1998   -1.6319    2.6178 H         1 GTP         0.1162
     45 H8         -2.4545   -0.0604   -0.0844 H         1 GTP         0.0741
     46 HN1        -3.6270   -6.1884    1.4651 H         1 GTP         0.3343
     47 HN21       -0.9445   -5.8354    3.6574 H         1 GTP         0.4229
     48 HN22       -2.1993   -6.8585    2.9930 H         1 GTP         0.4229
@<TRIPOS>BOND
     1    1    2 2
     2    1    3 1
     3    1    4 1
     4    1    5 1
     5    3   33 1
     6    4   34 1
     7    5    6 1
     8    6    7 2
     9    6    8 1
    10    6    9 1
    11    8   35 1
    12    9   10 1
    13   10   11 2
    14   10   12 1
    15   10   13 1
    16   12   36 1
    17   13   14 1
    18   14   15 1
    19   14   37 1
    20   14   38 1
    21   15   16 1
    22   15   17 1
    23   15   39 1
    24   16   21 1
    25   17   18 1
    26   17   19 1
    27   17   40 1
    28   18   41 1
    29   19   20 1
    30   19   21 1
    31   19   42 1
    32   20   43 1
    33   21   22 1
    34   21   44 1
    35   22   23 ar
    36   22   32 ar
    37   23   24 ar
    38   23   45 1
    39   24   25 ar
    40   25   26 ar
    41   25   32 ar
    42   26   27 2
    43   26   28 ar
    44   28   29 ar
    45   28   46 1
    46   29   30 1
    47   29   31 ar
    48   30   47 1
    49   30   48 1
    50   31   32 ar
@<TRIPOS>SUBSTRUCTURE
     1 GTP         1 GROUP 0 A     ****
@<TRIPOS>MOLECULE
[[5-(2-amino-6-oxo-1~{H}-purin-9-yl)-3,4-dihydroxy-tetrahydrofuran-2-yl]methoxy-hydroxy-phosphoryl] phosphono hydrogen phosphate
   48    50     1     0     0
SMALL
USER_CHARGES

@<TRIPOS>ATOM
      1 PG          2.5093    3.4519   -5.7328 P.3       1 GTP         1.8160
      2 O1G         3.0215    4.2849   -4.5949 O.2       1 GTP        -0.8277
      3 O2G         3.4162    3.4767   -7.0702 O.3       1 GTP        -0.7983
      4 O3G         2.3521    1.8752   -5.4134 O.3       1 GTP        -0.7983
      5 O3B         1.0399    3.8660   -6.2629 O.3       1 GTP        -0.8272
      6 PB         -0.3965    3.9179   -5.5250 P.3       1 GTP         1.9429
      7 O1B        -0.4597    4.8436   -4.3460 O.2       1 GTP        -0.8481
      8 O2B        -1.4339    4.2507   -6.7192 O.3       1 GTP        -0.8171
      9 O3A        -0.7270    2.3681   -5.2160 O.3       1 GTP        -0.8114
     10 PA         -1.9943    1.6687   -4.4986 P.3       1 GTP         1.8017
     11 O1A        -3.3061    1.9239   -5.1824 O.2       1 GTP        -0.7846
     12 O2A        -1.5681    0.1095   -4.4325 O.3       1 GTP        -0.8074
     13 O5'        -1.9200    2.1712   -2.9623 O.3       1 GTP        -0.5669
     14 C5'        -0.7794    1.8744   -2.1748 C.3       1 GTP         0.1637
     15 C4'        -0.9699    2.4597   -0.7819 C.3       1 GTP         0.1099
     16 O4'        -2.1475    1.8640   -0.2014 O.3       1 GTP        -0.4100
     17 C3'         0.1697    2.1347    0.1695 C.3       1 GTP         0.0924
     18 O3'         0.1809    3.0982    1.2223 O.3       1 GTP        -0.5892
     19 C2'        -0.2543    0.7880    0.7187 C.3       1 GTP         0.0635
     20 O2'         0.3606    0.4944    1.9582 O.3       1 GTP        -0.5749
     21 C1'        -1.7682    0.9516    0.8548 C.3       1 GTP         0.2557
     22 N9         -2.5926   -0.2553    0.7436 N.pl3     1 GTP        -0.2236
     23 C8         -2.2188   -1.5242    1.1136 C.ar      1 GTP         0.4148
     24 N7         -3.1705   -2.4105    0.8954 N.2       1 GTP        -0.5808
     25 C5         -4.1890   -1.6749    0.3655 C.ar      1 GTP         0.1777
     26 C6         -5.4857   -2.1175   -0.0667 C.ar      1 GTP         0.6505
     27 O6         -5.8619   -3.2814   -0.0104 O.2       1 GTP        -0.5947
     28 N1         -6.2422   -1.0420   -0.5529 N.pl3     1 GTP        -0.5110
     29 C2         -5.8042    0.3021   -0.6166 C.ar      1 GTP         0.6844
     30 N2         -6.7124    1.1908   -1.1303 N.pl3     1 GTP        -0.8920
     31 N3         -4.6101    0.6789   -0.2133 N.2       1 GTP        -0.6705
     32 C4         -3.8645   -0.3441    0.2595 C.ar      1 GTP         0.1220
     33 HOG2        4.3459    3.1685   -7.0196 H         1 GTP         0.5087
     34 HOG3        1.7506    1.5947   -4.6912 H         1 GTP         0.5087
     35 HOB2       -1.3808    5.1229   -7.1648 H         1 GTP         0.5092
     36 HOA2       -2.1565   -0.5236   -3.9689 H         1 GTP         0.5041
     37 H5'        -0.6595    0.7876   -2.1196 H         1 GTP         0.0584
     38 H5''        0.1048    2.3070   -2.6539 H         1 GTP         0.0584
     39 H4'        -1.1469    3.5409   -0.8523 H         1 GTP         0.1192
     40 H3'         1.1601    2.1310   -0.2934 H         1 GTP         0.0735
     41 HO3'        0.9173    2.8584    1.8048 H         1 GTP         0.4308
     42 H2'        -0.0024   -0.0091    0.0062 H         1 GTP         0.0746
     43 HO2'        1.3225    0.4909    1.8095 H         1 GTP         0.4224
     44 H1'        -2.0584    1.4255    1.8301 H         1 GTP         0.1162
     45 H8         -1.2450   -1.7377    1.5330 H         1 GTP         0.0741
     46 HN1        -7.1805   -1.2438   -0.8866 H         1 GTP         0.3343
     47 HN21       -6.4505    2.1471   -1.1951 H         1 GTP         0.4229
     48 HN22       -7.5984    0.8452   -1.4185 H         1 GTP         0.4229
@<TRIPOS>BOND
     1    1    2 2
     2    1    3 1
     3    1    4 1
     4    1    5 1
     5    3   33 1
     6    4   34 1
     7    5    6 1
     8    6    7 2
     9    6    8 1
    10    6    9 1
    11    8   35 1
    12    9   10 1
    13   10   11 2
    14   10   12 1
    15   10   13 1
    16   12   36 1
    17   13   14 1
    18   14   15 1
    19   14   37 1
    20   14   38 1
    21   15   16 1
    22   15   17 1
    23   15   39 1
    24   16   21 1
    25   17   18 1
    26   17   19 1
    27   17   40 1
    28   18   41 1
    29   19   20 1
    30   19   21 1
    31   19   42 1
    32   20   43 1
    33   21   22 1
    34   21   44 1
    35   22   23 ar
    36   22   32 ar
    37   23   24 ar
    38   23   45 1
    39   24   25 ar
    40   25   26 ar
    41   25   32 ar
    42   26   27 2
    43   26   28 ar
    44   28   29 ar
    45   28   46 1
    46   29   30 1
    47   29   31 ar
    48   30   47 1
    49   30   48 1
    50   31   32 ar
@<TRIPOS>SUBSTRUCTURE
     1 GTP         1 GROUP 0 A     ****
@<TRIPOS>MOLECULE
[[5-(2-amino-6-oxo-1~{H}-purin-9-yl)-3,4-dihydroxy-tetrahydrofuran-2-yl]methoxy-hydroxy-phosphoryl] phosphono hydrogen phosphate
   48    50     1     0     0
SMALL
USER_CHARGES

@<TRIPOS>ATOM
      1 PG         -0.0707    8.0214    2.4855 P.3       1 GTP         1.8160
      2 O1G        -0.8530    9.0279    3.2766 O.2       1 GTP        -0.8277
      3 O2G         1.3773    8.5215    1.9709 O.3       1 GTP        -0.7983
      4 O3G         0.2612    6.6440    3.2636 O.3       1 GTP        -0.7983
      5 O3B        -0.7985    7.5125    1.1353 O.3       1 GTP        -0.8272
      6 PB         -2.2059    6.7585    0.8888 P.3       1 GTP         1.9429
      7 O1B        -3.4113    7.5153    1.3634 O.2       1 GTP        -0.8481
      8 O2B        -2.1879    6.4106   -0.6897 O.3       1 GTP        -0.8171
      9 O3A        -1.9858    5.3044    1.5550 O.3       1 GTP        -0.8114
     10 PA         -2.9681    4.0282    1.6824 P.3       1 GTP         1.8017
     11 O1A        -4.2362    4.3013    2.4378 O.2       1 GTP        -0.7846
     12 O2A        -3.1908    3.5777    0.1446 O.3       1 GTP        -0.8074
     13 O5'        -2.0398    2.8621    2.3123 O.3       1 GTP        -0.5669
     14 C5'        -0.8811    2.4285    1.6206 C.3       1 GTP         0.1637
     15 C4'        -0.1994    1.3333    2.4288 C.3       1 GTP         0.1099
     16 O4'        -1.1285    0.2356    2.5840 O.3       1 GTP        -0.4100
     17 C3'         1.0324    0.7610    1.7344 C.3       1 GTP         0.0924
     18 O3'         1.9175    0.2377    2.7247 O.3       1 GTP        -0.5892
     19 C2'         0.4468   -0.3802    0.9263 C.3       1 GTP         0.0635
     20 O2'         1.3993   -1.3703    0.5961 O.3       1 GTP        -0.5749
     21 C1'        -0.6159   -0.9100    1.8769 C.3       1 GTP         0.2557
     22 N9         -1.7127   -1.6108    1.2130 N.pl3     1 GTP        -0.2236
     23 C8         -2.0873   -2.9139    1.4324 C.ar      1 GTP         0.4148
     24 N7         -3.1135   -3.2727    0.6860 N.2       1 GTP        -0.5808
     25 C5         -3.4017   -2.1526   -0.0362 C.ar      1 GTP         0.1777
     26 C6         -4.4318   -1.9582   -1.0186 C.ar      1 GTP         0.6505
     27 O6         -5.2284   -2.8266   -1.3513 O.2       1 GTP        -0.5947
     28 N1         -4.3916   -0.6538   -1.5306 N.pl3     1 GTP        -0.5110
     29 C2         -3.4693    0.3474   -1.1439 C.ar      1 GTP         0.6844
     30 N2         -3.6143    1.5541   -1.7775 N.pl3     1 GTP        -0.8920
     31 N3         -2.5355    0.1410   -0.2407 N.2       1 GTP        -0.6705
     32 C4         -2.5574   -1.1117    0.2656 C.ar      1 GTP         0.1220
     33 HOG2        2.0471    8.7978    2.6320 H         1 GTP         0.5087
     34 HOG3       -0.4813    6.0908    3.5873 H         1 GTP         0.5087
     35 HOB2       -2.2127    7.1461   -1.3382 H         1 GTP         0.5092
     36 HOA2       -3.6542    4.1894   -0.4662 H         1 GTP         0.5041
     37 H5'        -1.1763    2.0500    0.6366 H         1 GTP         0.0584
     38 H5''       -0.2075    3.2812    1.4874 H         1 GTP         0.0584
     39 H4'         0.0402    1.7079    3.4343 H         1 GTP         0.1192
     40 H3'         1.5907    1.4859    1.1353 H         1 GTP         0.0735
     41 HO3'        2.6839   -0.1150    2.2479 H         1 GTP         0.4308
     42 H2'        -0.0017    0.0018    0.0005 H         1 GTP         0.0746
     43 HO2'        2.0953   -0.9375    0.0709 H         1 GTP         0.4224
     44 H1'        -0.1998   -1.6319    2.6178 H         1 GTP         0.1162
     45 H8         -1.5757   -3.5474    2.1443 H         1 GTP         0.0741
     46 HN1        -5.0800   -0.4074   -2.2361 H         1 GTP         0.3343
     47 HN21       -2.9894    2.2891   -1.5392 H         1 GTP         0.4229
     48 HN22       -4.3387    1.6483   -2.4512 H         1 GTP         0.4229
@<TRIPOS>BOND
     1    1    2 2
     2    1    3 1
     3    1    4 1
     4    1    5 1
     5    3   33 1
     6    4   34 1
     7    5    6 1
     8    6    7 2
     9    6    8 1
    10    6    9 1
    11    8   35 1
    12    9   10 1
    13   10   11 2
    14   10   12 1
    15   10   13 1
    16   12   36 1
    17   13   14 1
    18   14   15 1
    19   14   37 1
    20   14   38 1
    21   15   16 1
    22   15   17 1
    23   15   39 1
    24   16   21 1
    25   17   18 1
    26   17   19 1
    27   17   40 1
    28   18   41 1
    29   19   20 1
    30   19   21 1
    31   19   42 1
    32   20   43 1
    33   21   22 1
    34   21   44 1
    35   22   23 ar
    36   22   32 ar
    37   23   24 ar
    38   23   45 1
    39   24   25 ar
    40   25   26 ar
    41   25   32 ar
    42   26   27 2
    43   26   28 ar
    44   28   29 ar
    45   28   46 1
    46   29   30 1
    47   29   31 ar
    48   30   47 1
    49   30   48 1
    50   31   32 ar
@<TRIPOS>SUBSTRUCTURE
     1 GTP         1 GROUP 0 A     ****
@<TRIPOS>MOLECULE
[[5-(2-amino-6-oxo-1~{H}-purin-9-yl)-3,4-dihydroxy-tetrahydrofuran-2-yl]methoxy-hydroxy-phosphoryl] phosphono hydrogen phosphate
   48    50     1     0     0
SMALL
USER_CHARGES

@<TRIPOS>ATOM
      1 PG         -0.6371    6.6070   -1.2853 P.3       1 GTP         1.8160
      2 O1G        -0.7259    5.2673   -1.9548 O.2       1 GTP        -0.8277
      3 O2G         0.7344    6.8861   -0.4773 O.3       1 GTP        -0.7983
      4 O3G        -0.7564    7.8790   -2.2755 O.3       1 GTP        -0.7983
      5 O3B        -1.7887    6.8891   -0.1871 O.3       1 GTP        -0.8272
      6 PB         -2.1856    6.1230    1.1788 P.3       1 GTP         1.9429
      7 O1B        -1.0919    6.0682    2.2044 O.2       1 GTP        -0.8481
      8 O2B        -3.5424    6.8605    1.6566 O.3       1 GTP        -0.8171
      9 O3A        -2.7414    4.6945    0.6717 O.3       1 GTP        -0.8114
     10 PA         -3.3131    3.4211    1.4850 P.3       1 GTP         1.8017
     11 O1A        -4.5255    3.7180    2.3189 O.2       1 GTP        -0.7846
     12 O2A        -3.5540    2.3192    0.3253 O.3       1 GTP        -0.8074
     13 O5'        -2.0398    2.8621    2.3123 O.3       1 GTP        -0.5669
     14 C5'        -0.8811    2.4285    1.6206 C.3       1 GTP         0.1637
     15 C4'        -0.1994    1.3333    2.4288 C.3       1 GTP         0.1099
     16 O4'        -1.1285    0.2356    2.5840 O.3       1 GTP        -0.4100
     17 C3'         1.0324    0.7610    1.7344 C.3       1 GTP         0.0924
     18 O3'         1.9175    0.2377    2.7247 O.3       1 GTP        -0.5892
     19 C2'         0.4468   -0.3802    0.9263 C.3       1 GTP         0.0635
     20 O2'         1.3993   -1.3703    0.5961 O.3       1 GTP        -0.5749
     21 C1'        -0.6159   -0.9100    1.8769 C.3       1 GTP         0.2557
     22 N9         -1.7127   -1.6108    1.2130 N.pl3     1 GTP        -0.2236
     23 C8         -3.0375   -1.2493    1.2452 C.ar      1 GTP         0.4148
     24 N7         -3.7986   -2.0732    0.5519 N.2       1 GTP        -0.5808
     25 C5         -2.9221   -2.9947    0.0601 C.ar      1 GTP         0.1777
     26 C6         -3.1909   -4.1355   -0.7707 C.ar      1 GTP         0.6505
     27 O6         -4.3086   -4.4427   -1.1652 O.2       1 GTP        -0.5947
     28 N1         -2.0085   -4.8320   -1.0576 N.pl3     1 GTP        -0.5110
     29 C2         -0.7182   -4.4742   -0.5998 C.ar      1 GTP         0.6844
     30 N2          0.2972   -5.3016   -1.0037 N.pl3     1 GTP        -0.8920
     31 N3         -0.5015   -3.4231    0.1607 N.2       1 GTP        -0.6705
     32 C4         -1.6297   -2.7374    0.4490 C.ar      1 GTP         0.1220
     33 HOG2        0.9781    6.2924    0.2644 H         1 GTP         0.5087
     34 HOG3       -0.0969    7.9851   -2.9938 H         1 GTP         0.5087
     35 HOB2       -3.4996    7.8006    1.9329 H         1 GTP         0.5092
     36 HOA2       -3.8410    1.4168    0.5808 H         1 GTP         0.5041
     37 H5'        -1.1763    2.0500    0.6366 H         1 GTP         0.0584
     38 H5''       -0.2075    3.2812    1.4874 H         1 GTP         0.0584
     39 H4'         0.0402    1.7079    3.4343 H         1 GTP         0.1192
     40 H3'         1.5907    1.4859    1.1353 H         1 GTP         0.0735
     41 HO3'        2.6839   -0.1150    2.2479 H         1 GTP         0.4308
     42 H2'        -0.0017    0.0018    0.0005 H         1 GTP         0.0746
     43 HO2'        2.0953   -0.9375    0.0709 H         1 GTP         0.4224
     44 H1'        -0.1998   -1.6319    2.6178 H         1 GTP         0.1162
     45 H8         -3.3837   -0.3807    1.7887 H         1 GTP         0.0741
     46 HN1        -2.0841   -5.6603   -1.6411 H         1 GTP         0.3343
     47 HN21        1.2221   -5.0911   -0.7073 H         1 GTP         0.4229
     48 HN22        0.0702   -6.0804   -1.5775 H         1 GTP         0.4229
@<TRIPOS>BOND
     1    1    2 2
     2    1    3 1
     3    1    4 1
     4    1    5 1
     5    3   33 1
     6    4   34 1
     7    5    6 1
     8    6    7 2
     9    6    8 1
    10    6    9 1
    11    8   35 1
    12    9   10 1
    13   10   11 2
    14   10   12 1
    15   10   13 1
    16   12   36 1
    17   13   14 1
    18   14   15 1
    19   14   37 1
    20   14   38 1
    21   15   16 1
    22   15   17 1
    23   15   39 1
    24   16   21 1
    25   17   18 1
    26   17   19 1
    27   17   40 1
    28   18   41 1
    29   19   20 1
    30   19   21 1
    31   19   42 1
    32   20   43 1
    33   21   22 1
    34   21   44 1
    35   22   23 ar
    36   22   32 ar
    37   23   24 ar
    38   23   45 1
    39   24   25 ar
    40   25   26 ar
    41   25   32 ar
    42   26   27 2
    43   26   28 ar
    44   28   29 ar
    45   28   46 1
    46   29   30 1
    47   29   31 ar
    48   30   47 1
    49   30   48 1
    50   31   32 ar
@<TRIPOS>SUBSTRUCTURE
     1 GTP         1 GROUP 0 A     ****
@<TRIPOS>MOLECULE
[[5-(2-amino-6-oxo-1~{H}-purin-9-yl)-3,4-dihydroxy-tetrahydrofuran-2-yl]methoxy-hydroxy-phosphoryl] phosphono hydrogen phosphate
   48    50     1     0     0
SMALL
USER_CHARGES

@<TRIPOS>ATOM
      1 PG          0.1180    7.5006   -2.0925 P.3       1 GTP         1.8160
      2 O1G        -0.5652    7.2214   -3.3987 O.2       1 GTP        -0.8277
      3 O2G         1.7229    7.3111   -2.0978 O.3       1 GTP        -0.7983
      4 O3G        -0.0826    8.9984   -1.5188 O.3       1 GTP        -0.7983
      5 O3B        -0.3700    6.5702   -0.8645 O.3       1 GTP        -0.8272
      6 PB         -1.8175    6.3664   -0.1765 P.3       1 GTP         1.9429
      7 O1B        -2.4107    7.6129    0.4111 O.2       1 GTP        -0.8481
      8 O2B        -2.7004    5.6616   -1.3328 O.3       1 GTP        -0.8171
      9 O3A        -1.5848    5.1480    0.8569 O.3       1 GTP        -0.8114
     10 PA         -2.5920    4.4092    1.8815 P.3       1 GTP         1.8017
     11 O1A        -3.1892    5.3162    2.9178 O.2       1 GTP        -0.7846
     12 O2A        -3.6736    3.7135    0.8999 O.3       1 GTP        -0.8074
     13 O5'        -1.7335    3.1724    2.4745 O.3       1 GTP        -0.5669
     14 C5'        -0.8811    2.4285    1.6206 C.3       1 GTP         0.1637
     15 C4'        -0.1994    1.3333    2.4288 C.3       1 GTP         0.1099
     16 O4'        -1.1285    0.2356    2.5840 O.3       1 GTP        -0.4100
     17 C3'         1.0324    0.7610    1.7344 C.3       1 GTP         0.0924
     18 O3'         1.9175    0.2377    2.7247 O.3       1 GTP        -0.5892
     19 C2'         0.4468   -0.3802    0.9263 C.3       1 GTP         0.0635
     20 O2'         1.3993   -1.3703    0.5961 O.3       1 GTP        -0.5749
     21 C1'        -0.6159   -0.9100    1.8769 C.3       1 GTP         0.2557
     22 N9         -1.7127   -1.6108    1.2130 N.pl3     1 GTP        -0.2236
     23 C8         -2.5489   -1.0812    0.2607 C.ar      1 GTP         0.4148
     24 N7         -3.4468   -1.9516   -0.1576 N.2       1 GTP        -0.5808
     25 C5         -3.1696   -3.0787    0.5579 C.ar      1 GTP         0.1777
     26 C6         -3.8307   -4.3536    0.5166 C.ar      1 GTP         0.6505
     27 O6         -4.7841   -4.6033   -0.2101 O.2       1 GTP        -0.5947
     28 N1         -3.2356   -5.2522    1.4132 N.pl3     1 GTP        -0.5110
     29 C2         -2.1338   -4.9602    2.2517 C.ar      1 GTP         0.6844
     30 N2         -1.7156   -5.9923    3.0507 N.pl3     1 GTP        -0.8920
     31 N3         -1.5477   -3.7827    2.2686 N.2       1 GTP        -0.6705
     32 C4         -2.1070   -2.9013    1.4104 C.ar      1 GTP         0.1220
     33 HOG2        2.0967    6.4313   -2.3174 H         1 GTP         0.5087
     34 HOG3       -0.9906    9.3154   -1.3261 H         1 GTP         0.5087
     35 HOB2       -2.9097    6.1688   -2.1458 H         1 GTP         0.5092
     36 HOA2       -4.2512    4.2846    0.3502 H         1 GTP         0.5041
     37 H5'        -1.4796    1.9923    0.8143 H         1 GTP         0.0584
     38 H5''       -0.1364    3.1037    1.1869 H         1 GTP         0.0584
     39 H4'         0.0402    1.7079    3.4343 H         1 GTP         0.1192
     40 H3'         1.5907    1.4859    1.1353 H         1 GTP         0.0735
     41 HO3'        2.1521    0.9800    3.3017 H         1 GTP         0.4308
     42 H2'        -0.0017    0.0018    0.0005 H         1 GTP         0.0746
     43 HO2'        2.0953   -0.9375    0.0709 H         1 GTP         0.4224
     44 H1'        -0.1998   -1.6319    2.6178 H         1 GTP         0.1162
     45 H8         -2.4545   -0.0604   -0.0844 H         1 GTP         0.0741
     46 HN1        -3.6270   -6.1884    1.4651 H         1 GTP         0.3343
     47 HN21       -0.9445   -5.8354    3.6574 H         1 GTP         0.4229
     48 HN22       -2.1993   -6.8585    2.9930 H         1 GTP         0.4229
@<TRIPOS>BOND
     1    1    2 2
     2    1    3 1
     3    1    4 1
     4    1    5 1
     5    3   33 1
     6    4   34 1
     7    5    6 1
     8    6    7 2
     9    6    8 1
    10    6    9 1
    11    8   35 1
    12    9   10 1
    13   10   11 2
    14   10   12 1
    15   10   13 1
    16   12   36 1
    17   13   14 1
    18   14   15 1
    19   14   37 1
    20   14   38 1
    21   15   16 1
    22   15   17 1
    23   15   39 1
    24   16   21 1
    25   17   18 1
    26   17   19 1
    27   17   40 1
    28   18   41 1
    29   19   20 1
    30   19   21 1
    31   19   42 1
    32   20   43 1
    33   21   22 1
    34   21   44 1
    35   22   23 ar
    36   22   32 ar
    37   23   24 ar
    38   23   45 1
    39   24   25 ar
    40   25   26 ar
    41   25   32 ar
    42   26   27 2
    43   26   28 ar
    44   28   29 ar
    45   28   46 1
    46   29   30 1
    47   29   31 ar
    48   30   47 1
    49   30   48 1
    50   31   32 ar
@<TRIPOS>SUBSTRUCTURE
     1 GTP         1 GROUP 0 A     ****
@<TRIPOS>MOLECULE
[[5-(2-amino-6-oxo-1~{H}-purin-9-yl)-3,4-dihydroxy-tetrahydrofuran-2-yl]methoxy-hydroxy-phosphoryl] phosphono hydrogen phosphate
   48    50     1     0     0
SMALL
USER_CHARGES

@<TRIPOS>ATOM
      1 PG          3.2952    2.4093   -5.1872 P.3       1 GTP         1.8160
      2 O1G         3.8778    3.0131   -3.9434 O.2       1 GTP        -0.8277
      3 O2G         4.3410    2.1753   -6.3969 O.3       1 GTP        -0.7983
      4 O3G         2.6145    0.9563   -4.9915 O.3       1 GTP        -0.7983
      5 O3B         2.1147    3.2775   -5.8686 O.3       1 GTP        -0.8272
      6 PB          0.6777    3.7643   -5.3135 P.3       1 GTP         1.9429
      7 O1B         0.7420    4.6369   -4.0948 O.2       1 GTP        -0.8481
      8 O2B        -0.0298    4.4332   -6.6039 O.3       1 GTP        -0.8171
      9 O3A        -0.1564    2.3918   -5.1480 O.3       1 GTP        -0.8114
     10 PA         -1.6645    2.1131   -4.6401 P.3       1 GTP         1.8017
     11 O1A        -2.7247    2.7840   -5.4643 O.2       1 GTP        -0.7846
     12 O2A        -1.7559    0.4980   -4.6214 O.3       1 GTP        -0.8074
     13 O5'        -1.6513    2.5331   -3.0776 O.3       1 GTP        -0.5669
     14 C5'        -0.7794    1.8744   -2.1748 C.3       1 GTP         0.1637
     15 C4'        -0.9699    2.4597   -0.7819 C.3       1 GTP         0.1099
     16 O4'        -2.1475    1.8640   -0.2014 O.3       1 GTP        -0.4100
     17 C3'         0.1697    2.1347    0.1695 C.3       1 GTP         0.0924
     18 O3'         0.1809    3.0982    1.2223 O.3       1 GTP        -0.5892
     19 C2'        -0.2543    0.7880    0.7187 C.3       1 GTP         0.0635
     20 O2'         0.3606    0.4944    1.9582 O.3       1 GTP        -0.5749
     21 C1'        -1.7682    0.9516    0.8548 C.3       1 GTP         0.2557
     22 N9         -2.5926   -0.2553    0.7436 N.pl3     1 GTP        -0.2236
     23 C8         -2.2853   -1.3774    0.0134 C.ar      1 GTP         0.4148
     24 N7         -3.2188   -2.3045    0.1026 N.2       1 GTP        -0.5808
     25 C5         -4.1563   -1.7486    0.9220 C.ar      1 GTP         0.1777
     26 C6         -5.4005   -2.3083    1.3722 C.ar      1 GTP         0.6505
     27 O6         -5.7999   -3.4222    1.0575 O.2       1 GTP        -0.5947
     28 N1         -6.0772   -1.4091    2.2084 N.pl3     1 GTP        -0.5110
     29 C2         -5.6128   -0.1223    2.5700 C.ar      1 GTP         0.6844
     30 N2         -6.4404    0.5875    3.4005 N.pl3     1 GTP        -0.8920
     31 N3         -4.4683    0.3649    2.1422 N.2       1 GTP        -0.6705
     32 C4         -3.7999   -0.4873    1.3339 C.ar      1 GTP         0.1220
     33 HOG2        5.1130    1.5882   -6.2507 H         1 GTP         0.5087
     34 HOG3        1.8619    0.8646   -4.3692 H         1 GTP         0.5087
     35 HOB2        0.3521    5.2535   -6.9827 H         1 GTP         0.5092
     36 HOA2       -2.5698    0.0732   -4.2762 H         1 GTP         0.5041
     37 H5'        -1.0111    0.8044   -2.1748 H         1 GTP         0.0584
     38 H5''        0.2527    2.0160   -2.5113 H         1 GTP         0.0584
     39 H4'        -1.1469    3.5409   -0.8523 H         1 GTP         0.1192
     40 H3'         1.1601    2.1310   -0.2934 H         1 GTP         0.0735
     41 HO3'        0.9173    2.8584    1.8048 H         1 GTP         0.4308
     42 H2'        -0.0024   -0.0091    0.0062 H         1 GTP         0.0746
     43 HO2'        0.0384   -0.3797    2.2403 H         1 GTP         0.4224
     44 H1'        -2.0584    1.4255    1.8301 H         1 GTP         0.1162
     45 H8         -1.3717   -1.4583   -0.5599 H         1 GTP         0.0741
     46 HN1        -6.9732   -1.7053    2.5850 H         1 GTP         0.3343
     47 HN21       -6.1570    1.4973    3.6824 H         1 GTP         0.4229
     48 HN22       -7.2925    0.1655    3.6894 H         1 GTP         0.4229
@<TRIPOS>BOND
     1    1    2 2
     2    1    3 1
     3    1    4 1
     4    1    5 1
     5    3   33 1
     6    4   34 1
     7    5    6 1
     8    6    7 2
     9    6    8 1
    10    6    9 1
    11    8   35 1
    12    9   10 1
    13   10   11 2
    14   10   12 1
    15   10   13 1
    16   12   36 1
    17   13   14 1
    18   14   15 1
    19   14   37 1
    20   14   38 1
    21   15   16 1
    22   15   17 1
    23   15   39 1
    24   16   21 1
    25   17   18 1
    26   17   19 1
    27   17   40 1
    28   18   41 1
    29   19   20 1
    30   19   21 1
    31   19   42 1
    32   20   43 1
    33   21   22 1
    34   21   44 1
    35   22   23 ar
    36   22   32 ar
    37   23   24 ar
    38   23   45 1
    39   24   25 ar
    40   25   26 ar
    41   25   32 ar
    42   26   27 2
    43   26   28 ar
    44   28   29 ar
    45   28   46 1
    46   29   30 1
    47   29   31 ar
    48   30   47 1
    49   30   48 1
    50   31   32 ar
@<TRIPOS>SUBSTRUCTURE
     1 GTP         1 GROUP 0 A     ****
@<TRIPOS>MOLECULE
[[5-(2-amino-6-oxo-1~{H}-purin-9-yl)-3,4-dihydroxy-tetrahydrofuran-2-yl]methoxy-hydroxy-phosphoryl] phosphono hydrogen phosphate
   48    50     1     0     0
SMALL
USER_CHARGES

@<TRIPOS>ATOM
      1 PG         -4.1270    8.8436    1.7044 P.3       1 GTP         1.8160
      2 O1G        -3.2016    9.9617    2.0847 O.2       1 GTP        -0.8277
      3 O2G        -5.4252    8.6689    2.6510 O.3       1 GTP        -0.7983
      4 O3G        -4.7554    8.9473    0.2188 O.3       1 GTP        -0.7983
      5 O3B        -3.4502    7.3761    1.7137 O.3       1 GTP        -0.8272
      6 PB         -2.2059    6.7585    0.8888 P.3       1 GTP         1.9429
      7 O1B        -2.3768    6.7716   -0.6017 O.2       1 GTP        -0.8481
      8 O2B        -0.9280    7.5785    1.4434 O.3       1 GTP        -0.8171
      9 O3A        -1.9858    5.3044    1.5550 O.3       1 GTP        -0.8114
     10 PA         -2.9681    4.0282    1.6824 P.3       1 GTP         1.8017
     11 O1A        -4.2362    4.3013    2.4378 O.2       1 GTP        -0.7846
     12 O2A        -3.1908    3.5777    0.1446 O.3       1 GTP        -0.8074
     13 O5'        -2.0398    2.8621    2.3123 O.3       1 GTP        -0.5669
     14 C5'        -0.8811    2.4285    1.6206 C.3       1 GTP         0.1637
     15 C4'        -0.1994    1.3333    2.4288 C.3       1 GTP         0.1099
     16 O4'        -1.1285    0.2356    2.5840 O.3       1 GTP        -0.4100
     17 C3'         1.0324    0.7610    1.7344 C.3       1 GTP         0.0924
     18 O3'         1.9175    0.2377    2.7247 O.3       1 GTP        -0.5892
     19 C2'         0.4468   -0.3802    0.9263 C.3       1 GTP         0.0635
     20 O2'         1.3993   -1.3703    0.5961 O.3       1 GTP        -0.5749
     21 C1'        -0.6159   -0.9100    1.8769 C.3       1 GTP         0.2557
     22 N9         -1.7127   -1.6108    1.2130 N.pl3     1 GTP        -0.2236
     23 C8         -2.0873   -2.9139    1.4324 C.ar      1 GTP         0.4148
     24 N7         -3.1135   -3.2727    0.6860 N.2       1 GTP        -0.5808
     25 C5         -3.4017   -2.1526   -0.0362 C.ar      1 GTP         0.1777
     26 C6         -4.4318   -1.9582   -1.0186 C.ar      1 GTP         0.6505
     27 O6         -5.2284   -2.8266   -1.3513 O.2       1 GTP        -0.5947
     28 N1         -4.3916   -0.6538   -1.5306 N.pl3     1 GTP        -0.5110
     29 C2         -3.4693    0.3474   -1.1439 C.ar      1 GTP         0.6844
     30 N2         -3.6143    1.5541   -1.7775 N.pl3     1 GTP        -0.8920
     31 N3         -2.5355    0.1410   -0.2407 N.2       1 GTP        -0.6705
     32 C4         -2.5574   -1.1117    0.2656 C.ar      1 GTP         0.1220
     33 HOG2       -6.0584    9.4136    2.7312 H         1 GTP         0.5087
     34 HOG3       -4.1501    8.9594   -0.5530 H         1 GTP         0.5087
     35 HOB2       -0.0302    7.3128    1.1511 H         1 GTP         0.5092
     36 HOA2       -3.6542    4.1894   -0.4662 H         1 GTP         0.5041
     37 H5'        -1.1763    2.0500    0.6366 H         1 GTP         0.0584
     38 H5''       -0.2075    3.2812    1.4874 H         1 GTP         0.0584
     39 H4'         0.0402    1.7079    3.4343 H         1 GTP         0.1192
     40 H3'         1.5907    1.4859    1.1353 H         1 GTP         0.0735
     41 HO3'        2.6839   -0.1150    2.2479 H         1 GTP         0.4308
     42 H2'        -0.0017    0.0018    0.0005 H         1 GTP         0.0746
     43 HO2'        2.0953   -0.9375    0.0709 H         1 GTP         0.4224
     44 H1'        -0.1998   -1.6319    2.6178 H         1 GTP         0.1162
     45 H8         -1.5757   -3.5474    2.1443 H         1 GTP         0.0741
     46 HN1        -5.0800   -0.4074   -2.2361 H         1 GTP         0.3343
     47 HN21       -2.9894    2.2891   -1.5392 H         1 GTP         0.4229
     48 HN22       -4.3387    1.6483   -2.4512 H         1 GTP         0.4229
@<TRIPOS>BOND
     1    1    2 2
     2    1    3 1
     3    1    4 1
     4    1    5 1
     5    3   33 1
     6    4   34 1
     7    5    6 1
     8    6    7 2
     9    6    8 1
    10    6    9 1
    11    8   35 1
    12    9   10 1
    13   10   11 2
    14   10   12 1
    15   10   13 1
    16   12   36 1
    17   13   14 1
    18   14   15 1
    19   14   37 1
    20   14   38 1
    21   15   16 1
    22   15   17 1
    23   15   39 1
    24   16   21 1
    25   17   18 1
    26   17   19 1
    27   17   40 1
    28   18   41 1
    29   19   20 1
    30   19   21 1
    31   19   42 1
    32   20   43 1
    33   21   22 1
    34   21   44 1
    35   22   23 ar
    36   22   32 ar
    37   23   24 ar
    38   23   45 1
    39   24   25 ar
    40   25   26 ar
    41   25   32 ar
    42   26   27 2
    43   26   28 ar
    44   28   29 ar
    45   28   46 1
    46   29   30 1
    47   29   31 ar
    48   30   47 1
    49   30   48 1
    50   31   32 ar
@<TRIPOS>SUBSTRUCTURE
     1 GTP         1 GROUP 0 A     ****
@<TRIPOS>MOLECULE
[[5-(2-amino-6-oxo-1~{H}-purin-9-yl)-3,4-dihydroxy-tetrahydrofuran-2-yl]methoxy-hydroxy-phosphoryl] phosphono hydrogen phosphate
   48    50     1     0     0
SMALL
USER_CHARGES

@<TRIPOS>ATOM
      1 PG          1.0431    7.0818   -0.2702 P.3       1 GTP         1.8160
      2 O1G         1.5908    6.2453    0.8484 O.2       1 GTP        -0.8277
      3 O2G         0.7616    8.6299    0.0986 O.3       1 GTP        -0.7983
      4 O3G         1.9812    7.1719   -1.5834 O.3       1 GTP        -0.7983
      5 O3B        -0.3700    6.5702   -0.8645 O.3       1 GTP        -0.8272
      6 PB         -1.8175    6.3664   -0.1765 P.3       1 GTP         1.9429
      7 O1B        -2.4107    7.6129    0.4111 O.2       1 GTP        -0.8481
      8 O2B        -2.7004    5.6616   -1.3328 O.3       1 GTP        -0.8171
      9 O3A        -1.5848    5.1480    0.8569 O.3       1 GTP        -0.8114
     10 PA         -2.5920    4.4092    1.8815 P.3       1 GTP         1.8017
     11 O1A        -3.1892    5.3162    2.9178 O.2       1 GTP        -0.7846
     12 O2A        -3.6736    3.7135    0.8999 O.3       1 GTP        -0.8074
     13 O5'        -1.7335    3.1724    2.4745 O.3       1 GTP        -0.5669
     14 C5'        -0.8811    2.4285    1.6206 C.3       1 GTP         0.1637
     15 C4'        -0.1994    1.3333    2.4288 C.3       1 GTP         0.1099
     16 O4'        -1.1285    0.2356    2.5840 O.3       1 GTP        -0.4100
     17 C3'         1.0324    0.7610    1.7344 C.3       1 GTP         0.0924
     18 O3'         1.9175    0.2377    2.7247 O.3       1 GTP        -0.5892
     19 C2'         0.4468   -0.3802    0.9263 C.3       1 GTP         0.0635
     20 O2'         1.3993   -1.3703    0.5961 O.3       1 GTP        -0.5749
     21 C1'        -0.6159   -0.9100    1.8769 C.3       1 GTP         0.2557
     22 N9         -1.7127   -1.6108    1.2130 N.pl3     1 GTP        -0.2236
     23 C8         -2.0873   -2.9139    1.4324 C.ar      1 GTP         0.4148
     24 N7         -3.1135   -3.2727    0.6860 N.2       1 GTP        -0.5808
     25 C5         -3.4017   -2.1526   -0.0362 C.ar      1 GTP         0.1777
     26 C6         -4.4318   -1.9582   -1.0186 C.ar      1 GTP         0.6505
     27 O6         -5.2284   -2.8266   -1.3513 O.2       1 GTP        -0.5947
     28 N1         -4.3916   -0.6538   -1.5306 N.pl3     1 GTP        -0.5110
     29 C2         -3.4693    0.3474   -1.1439 C.ar      1 GTP         0.6844
     30 N2         -3.6143    1.5541   -1.7775 N.pl3     1 GTP        -0.8920
     31 N3         -2.5355    0.1410   -0.2407 N.2       1 GTP        -0.6705
     32 C4         -2.5574   -1.1117    0.2656 C.ar      1 GTP         0.1220
     33 HOG2        0.1252    8.8396    0.8148 H         1 GTP         0.5087
     34 HOG3        2.8845    7.5441   -1.4970 H         1 GTP         0.5087
     35 HOB2       -2.9097    6.1688   -2.1458 H         1 GTP         0.5092
     36 HOA2       -4.2512    4.2846    0.3502 H         1 GTP         0.5041
     37 H5'        -1.4796    1.9923    0.8143 H         1 GTP         0.0584
     38 H5''       -0.1364    3.1037    1.1869 H         1 GTP         0.0584
     39 H4'         0.0402    1.7079    3.4343 H         1 GTP         0.1192
     40 H3'         1.5907    1.4859    1.1353 H         1 GTP         0.0735
     41 HO3'        2.6839   -0.1150    2.2479 H         1 GTP         0.4308
     42 H2'        -0.0017    0.0018    0.0005 H         1 GTP         0.0746
     43 HO2'        0.9369   -2.0558    0.0825 H         1 GTP         0.4224
     44 H1'        -0.1998   -1.6319    2.6178 H         1 GTP         0.1162
     45 H8         -1.5757   -3.5474    2.1443 H         1 GTP         0.0741
     46 HN1        -5.0800   -0.4074   -2.2361 H         1 GTP         0.3343
     47 HN21       -4.3388    1.6481   -2.4511 H         1 GTP         0.4229
     48 HN22       -2.9895    2.2892   -1.5394 H         1 GTP         0.4229
@<TRIPOS>BOND
     1    1    2 2
     2    1    3 1
     3    1    4 1
     4    1    5 1
     5    3   33 1
     6    4   34 1
     7    5    6 1
     8    6    7 2
     9    6    8 1
    10    6    9 1
    11    8   35 1
    12    9   10 1
    13   10   11 2
    14   10   12 1
    15   10   13 1
    16   12   36 1
    17   13   14 1
    18   14   15 1
    19   14   37 1
    20   14   38 1
    21   15   16 1
    22   15   17 1
    23   15   39 1
    24   16   21 1
    25   17   18 1
    26   17   19 1
    27   17   40 1
    28   18   41 1
    29   19   20 1
    30   19   21 1
    31   19   42 1
    32   20   43 1
    33   21   22 1
    34   21   44 1
    35   22   23 ar
    36   22   32 ar
    37   23   24 ar
    38   23   45 1
    39   24   25 ar
    40   25   26 ar
    41   25   32 ar
    42   26   27 2
    43   26   28 ar
    44   28   29 ar
    45   28   46 1
    46   29   30 1
    47   29   31 ar
    48   30   47 1
    49   30   48 1
    50   31   32 ar
@<TRIPOS>SUBSTRUCTURE
     1 GTP         1 GROUP 0 A     ****
@<TRIPOS>MOLECULE
[[5-(2-amino-6-oxo-1~{H}-purin-9-yl)-3,4-dihydroxy-tetrahydrofuran-2-yl]methoxy-hydroxy-phosphoryl] phosphono hydrogen phosphate
   48    50     1     0     0
SMALL
USER_CHARGES

@<TRIPOS>ATOM
      1 PG          1.4875    5.6492   -3.1934 P.3       1 GTP         1.8160
      2 O1G         1.1452    6.9659   -3.8259 O.2       1 GTP        -0.8277
      3 O2G         3.0439    5.2234   -3.2830 O.3       1 GTP        -0.7983
      4 O3G         1.1571    5.5389   -1.6150 O.3       1 GTP        -0.7983
      5 O3B         0.7097    4.3785   -3.8195 O.3       1 GTP        -0.8272
      6 PB          0.6777    3.7643   -5.3135 P.3       1 GTP         1.9429
      7 O1B         0.1745    4.7078   -6.3659 O.2       1 GTP        -0.8481
      8 O2B         2.1819    3.2174   -5.5401 O.3       1 GTP        -0.8171
      9 O3A        -0.1564    2.3918   -5.1480 O.3       1 GTP        -0.8114
     10 PA         -1.6645    2.1131   -4.6401 P.3       1 GTP         1.8017
     11 O1A        -2.7247    2.7840   -5.4643 O.2       1 GTP        -0.7846
     12 O2A        -1.7559    0.4980   -4.6214 O.3       1 GTP        -0.8074
     13 O5'        -1.6513    2.5331   -3.0776 O.3       1 GTP        -0.5669
     14 C5'        -0.7794    1.8744   -2.1748 C.3       1 GTP         0.1637
     15 C4'        -0.9699    2.4597   -0.7819 C.3       1 GTP         0.1099
     16 O4'        -2.1475    1.8640   -0.2014 O.3       1 GTP        -0.4100
     17 C3'         0.1697    2.1347    0.1695 C.3       1 GTP         0.0924
     18 O3'         0.1809    3.0982    1.2223 O.3       1 GTP        -0.5892
     19 C2'        -0.2543    0.7880    0.7187 C.3       1 GTP         0.0635
     20 O2'         0.3606    0.4944    1.9582 O.3       1 GTP        -0.5749
     21 C1'        -1.7682    0.9516    0.8548 C.3       1 GTP         0.2557
     22 N9         -2.5926   -0.2553    0.7436 N.pl3     1 GTP        -0.2236
     23 C8         -2.1292   -1.5330    0.5451 C.ar      1 GTP         0.4148
     24 N7         -3.1061   -2.4167    0.4857 N.2       1 GTP        -0.5808
     25 C5         -4.2348   -1.6702    0.6529 C.ar      1 GTP         0.1777
     26 C6         -5.6038   -2.1053    0.6765 C.ar      1 GTP         0.6505
     27 O6         -5.9501   -3.2720    0.5410 O.2       1 GTP        -0.5947
     28 N1         -6.4680   -1.0192    0.8736 N.pl3     1 GTP        -0.5110
     29 C2         -6.0643    0.3281    1.0298 C.ar      1 GTP         0.6844
     30 N2         -7.0824    1.2278    1.2106 N.pl3     1 GTP        -0.8920
     31 N3         -4.8022    0.6979    1.0037 N.2       1 GTP        -0.6705
     32 C4         -3.9522   -0.3354    0.8146 C.ar      1 GTP         0.1220
     33 HOG2        3.7200    5.8055   -2.8753 H         1 GTP         0.5087
     34 HOG3        0.2307    5.6552   -1.3145 H         1 GTP         0.5087
     35 HOB2        2.3854    2.7118   -6.3555 H         1 GTP         0.5092
     36 HOA2       -2.5698    0.0732   -4.2762 H         1 GTP         0.5041
     37 H5'        -1.0111    0.8044   -2.1748 H         1 GTP         0.0584
     38 H5''        0.2527    2.0160   -2.5113 H         1 GTP         0.0584
     39 H4'        -1.1469    3.5409   -0.8523 H         1 GTP         0.1192
     40 H3'         1.1601    2.1310   -0.2934 H         1 GTP         0.0735
     41 HO3'        0.9173    2.8584    1.8048 H         1 GTP         0.4308
     42 H2'        -0.0024   -0.0091    0.0062 H         1 GTP         0.0746
     43 HO2'        1.3225    0.4909    1.8095 H         1 GTP         0.4224
     44 H1'        -2.0584    1.4255    1.8301 H         1 GTP         0.1162
     45 H8         -1.0747   -1.7545    0.4515 H         1 GTP         0.0741
     46 HN1        -7.4645   -1.2151    0.9069 H         1 GTP         0.3343
     47 HN21       -6.8484    2.1867    1.3250 H         1 GTP         0.4229
     48 HN22       -8.0158    0.8871    1.2204 H         1 GTP         0.4229
@<TRIPOS>BOND
     1    1    2 2
     2    1    3 1
     3    1    4 1
     4    1    5 1
     5    3   33 1
     6    4   34 1
     7    5    6 1
     8    6    7 2
     9    6    8 1
    10    6    9 1
    11    8   35 1
    12    9   10 1
    13   10   11 2
    14   10   12 1
    15   10   13 1
    16   12   36 1
    17   13   14 1
    18   14   15 1
    19   14   37 1
    20   14   38 1
    21   15   16 1
    22   15   17 1
    23   15   39 1
    24   16   21 1
    25   17   18 1
    26   17   19 1
    27   17   40 1
    28   18   41 1
    29   19   20 1
    30   19   21 1
    31   19   42 1
    32   20   43 1
    33   21   22 1
    34   21   44 1
    35   22   23 ar
    36   22   32 ar
    37   23   24 ar
    38   23   45 1
    39   24   25 ar
    40   25   26 ar
    41   25   32 ar
    42   26   27 2
    43   26   28 ar
    44   28   29 ar
    45   28   46 1
    46   29   30 1
    47   29   31 ar
    48   30   47 1
    49   30   48 1
    50   31   32 ar
@<TRIPOS>SUBSTRUCTURE
     1 GTP         1 GROUP 0 A     ****
@<TRIPOS>MOLECULE
[[5-(2-amino-6-oxo-1~{H}-purin-9-yl)-3,4-dihydroxy-tetrahydrofuran-2-yl]methoxy-hydroxy-phosphoryl] phosphono hydrogen phosphate
   48    50     1     0     0
SMALL
USER_CHARGES

@<TRIPOS>ATOM
      1 PG         -0.7280    6.0583   -1.9522 P.3       1 GTP         1.8160
      2 O1G        -1.2041    4.6883   -2.3361 O.2       1 GTP        -0.8277
      3 O2G         0.8331    6.1587   -1.5462 O.3       1 GTP        -0.7983
      4 O3G        -0.8931    7.1884   -3.0960 O.3       1 GTP        -0.7983
      5 O3B        -1.4923    6.7066   -0.6844 O.3       1 GTP        -0.8272
      6 PB         -1.6386    6.2202    0.8493 P.3       1 GTP         1.9429
      7 O1B        -0.3395    6.0806    1.5867 O.2       1 GTP        -0.8481
      8 O2B        -2.6860    7.2712    1.4909 O.3       1 GTP        -0.8171
      9 O3A        -2.5313    4.8790    0.7447 O.3       1 GTP        -0.8114
     10 PA         -3.0702    3.8634    1.8796 P.3       1 GTP         1.8017
     11 O1A        -3.9589    4.5039    2.9059 O.2       1 GTP        -0.7846
     12 O2A        -3.7801    2.6911    1.0200 O.3       1 GTP        -0.8074
     13 O5'        -1.7335    3.1724    2.4745 O.3       1 GTP        -0.5669
     14 C5'        -0.8811    2.4285    1.6206 C.3       1 GTP         0.1637
     15 C4'        -0.1994    1.3333    2.4288 C.3       1 GTP         0.1099
     16 O4'        -1.1285    0.2356    2.5840 O.3       1 GTP        -0.4100
     17 C3'         1.0324    0.7610    1.7344 C.3       1 GTP         0.0924
     18 O3'         1.9175    0.2377    2.7247 O.3       1 GTP        -0.5892
     19 C2'         0.4468   -0.3802    0.9263 C.3       1 GTP         0.0635
     20 O2'         1.3993   -1.3703    0.5961 O.3       1 GTP        -0.5749
     21 C1'        -0.6159   -0.9100    1.8769 C.3       1 GTP         0.2557
     22 N9         -1.7127   -1.6108    1.2130 N.pl3     1 GTP        -0.2236
     23 C8         -2.0873   -2.9139    1.4324 C.ar      1 GTP         0.4148
     24 N7         -3.1135   -3.2727    0.6860 N.2       1 GTP        -0.5808
     25 C5         -3.4017   -2.1526   -0.0362 C.ar      1 GTP         0.1777
     26 C6         -4.4318   -1.9582   -1.0186 C.ar      1 GTP         0.6505
     27 O6         -5.2284   -2.8266   -1.3513 O.2       1 GTP        -0.5947
     28 N1         -4.3916   -0.6538   -1.5306 N.pl3     1 GTP        -0.5110
     29 C2         -3.4693    0.3474   -1.1439 C.ar      1 GTP         0.6844
     30 N2         -3.6143    1.5541   -1.7775 N.pl3     1 GTP        -0.8920
     31 N3         -2.5355    0.1410   -0.2407 N.2       1 GTP        -0.6705
     32 C4         -2.5574   -1.1117    0.2656 C.ar      1 GTP         0.1220
     33 HOG2        1.1619    5.6298   -0.7884 H         1 GTP         0.5087
     34 HOG3       -0.4352    7.0654   -3.9547 H         1 GTP         0.5087
     35 HOB2       -2.4208    8.2113    1.5797 H         1 GTP         0.5092
     36 HOA2       -4.1331    1.9060    1.4900 H         1 GTP         0.5041
     37 H5'        -1.4796    1.9923    0.8143 H         1 GTP         0.0584
     38 H5''       -0.1364    3.1037    1.1869 H         1 GTP         0.0584
     39 H4'         0.0402    1.7079    3.4343 H         1 GTP         0.1192
     40 H3'         1.5907    1.4859    1.1353 H         1 GTP         0.0735
     41 HO3'        2.6839   -0.1150    2.2479 H         1 GTP         0.4308
     42 H2'        -0.0017    0.0018    0.0005 H         1 GTP         0.0746
     43 HO2'        2.0953   -0.9375    0.0709 H         1 GTP         0.4224
     44 H1'        -0.1998   -1.6319    2.6178 H         1 GTP         0.1162
     45 H8         -1.5757   -3.5474    2.1443 H         1 GTP         0.0741
     46 HN1        -5.0800   -0.4074   -2.2361 H         1 GTP         0.3343
     47 HN21       -2.9894    2.2891   -1.5392 H         1 GTP         0.4229
     48 HN22       -4.3387    1.6483   -2.4512 H         1 GTP         0.4229
@<TRIPOS>BOND
     1    1    2 2
     2    1    3 1
     3    1    4 1
     4    1    5 1
     5    3   33 1
     6    4   34 1
     7    5    6 1
     8    6    7 2
     9    6    8 1
    10    6    9 1
    11    8   35 1
    12    9   10 1
    13   10   11 2
    14   10   12 1
    15   10   13 1
    16   12   36 1
    17   13   14 1
    18   14   15 1
    19   14   37 1
    20   14   38 1
    21   15   16 1
    22   15   17 1
    23   15   39 1
    24   16   21 1
    25   17   18 1
    26   17   19 1
    27   17   40 1
    28   18   41 1
    29   19   20 1
    30   19   21 1
    31   19   42 1
    32   20   43 1
    33   21   22 1
    34   21   44 1
    35   22   23 ar
    36   22   32 ar
    37   23   24 ar
    38   23   45 1
    39   24   25 ar
    40   25   26 ar
    41   25   32 ar
    42   26   27 2
    43   26   28 ar
    44   28   29 ar
    45   28   46 1
    46   29   30 1
    47   29   31 ar
    48   30   47 1
    49   30   48 1
    50   31   32 ar
@<TRIPOS>SUBSTRUCTURE
     1 GTP         1 GROUP 0 A     ****
@<TRIPOS>MOLECULE
[[5-(2-amino-6-oxo-1~{H}-purin-9-yl)-3,4-dihydroxy-tetrahydrofuran-2-yl]methoxy-hydroxy-phosphoryl] phosphono hydrogen phosphate
   48    50     1     0     0
SMALL
USER_CHARGES

@<TRIPOS>ATOM
      1 PG          1.5074    8.2588    0.8481 P.3       1 GTP         1.8160
      2 O1G         1.0998    9.5234    1.5451 O.2       1 GTP        -0.8277
      3 O2G         1.8835    8.4219   -0.7151 O.3       1 GTP        -0.7983
      4 O3G         2.8015    7.5175    1.4715 O.3       1 GTP        -0.7983
      5 O3B         0.3844    7.0967    0.8491 O.3       1 GTP        -0.8272
      6 PB         -0.3522    6.3116    2.0538 P.3       1 GTP         1.9429
      7 O1B         0.5703    5.5488    2.9583 O.2       1 GTP        -0.8481
      8 O2B        -1.2374    7.4546    2.7771 O.3       1 GTP        -0.8171
      9 O3A        -1.4833    5.4343    1.3071 O.3       1 GTP        -0.8114
     10 PA         -2.5920    4.4092    1.8815 P.3       1 GTP         1.8017
     11 O1A        -3.5580    5.0276    2.8499 O.2       1 GTP        -0.7846
     12 O2A        -3.2774    3.8166    0.5413 O.3       1 GTP        -0.8074
     13 O5'        -1.7335    3.1724    2.4745 O.3       1 GTP        -0.5669
     14 C5'        -0.8811    2.4285    1.6206 C.3       1 GTP         0.1637
     15 C4'        -0.1994    1.3333    2.4288 C.3       1 GTP         0.1099
     16 O4'        -1.1285    0.2356    2.5840 O.3       1 GTP        -0.4100
     17 C3'         1.0324    0.7610    1.7344 C.3       1 GTP         0.0924
     18 O3'         1.9175    0.2377    2.7247 O.3       1 GTP        -0.5892
     19 C2'         0.4468   -0.3802    0.9263 C.3       1 GTP         0.0635
     20 O2'         1.3993   -1.3703    0.5961 O.3       1 GTP        -0.5749
     21 C1'        -0.6159   -0.9100    1.8769 C.3       1 GTP         0.2557
     22 N9         -1.7127   -1.6108    1.2130 N.pl3     1 GTP        -0.2236
     23 C8         -3.0375   -1.2493    1.2452 C.ar      1 GTP         0.4148
     24 N7         -3.7986   -2.0732    0.5519 N.2       1 GTP        -0.5808
     25 C5         -2.9221   -2.9947    0.0601 C.ar      1 GTP         0.1777
     26 C6         -3.1909   -4.1355   -0.7707 C.ar      1 GTP         0.6505
     27 O6         -4.3086   -4.4427   -1.1652 O.2       1 GTP        -0.5947
     28 N1         -2.0085   -4.8320   -1.0576 N.pl3     1 GTP        -0.5110
     29 C2         -0.7182   -4.4742   -0.5998 C.ar      1 GTP         0.6844
     30 N2          0.2972   -5.3016   -1.0037 N.pl3     1 GTP        -0.8920
     31 N3         -0.5015   -3.4231    0.1607 N.2       1 GTP        -0.6705
     32 C4         -1.6297   -2.7374    0.4490 C.ar      1 GTP         0.1220
     33 HOG2        2.6210    9.0175   -0.9668 H         1 GTP         0.5087
     34 HOG3        2.7723    7.2155    2.4042 H         1 GTP         0.5087
     35 HOB2       -0.7791    8.1895    3.2376 H         1 GTP         0.5092
     36 HOA2       -3.9497    3.1075    0.6263 H         1 GTP         0.5041
     37 H5'        -1.4796    1.9923    0.8143 H         1 GTP         0.0584
     38 H5''       -0.1364    3.1037    1.1869 H         1 GTP         0.0584
     39 H4'         0.0402    1.7079    3.4343 H         1 GTP         0.1192
     40 H3'         1.5907    1.4859    1.1353 H         1 GTP         0.0735
     41 HO3'        2.1521    0.9800    3.3017 H         1 GTP         0.4308
     42 H2'        -0.0017    0.0018    0.0005 H         1 GTP         0.0746
     43 HO2'        2.0953   -0.9375    0.0709 H         1 GTP         0.4224
     44 H1'        -0.1998   -1.6319    2.6178 H         1 GTP         0.1162
     45 H8         -3.3837   -0.3807    1.7887 H         1 GTP         0.0741
     46 HN1        -2.0841   -5.6603   -1.6411 H         1 GTP         0.3343
     47 HN21        1.2221   -5.0911   -0.7073 H         1 GTP         0.4229
     48 HN22        0.0702   -6.0804   -1.5775 H         1 GTP         0.4229
@<TRIPOS>BOND
     1    1    2 2
     2    1    3 1
     3    1    4 1
     4    1    5 1
     5    3   33 1
     6    4   34 1
     7    5    6 1
     8    6    7 2
     9    6    8 1
    10    6    9 1
    11    8   35 1
    12    9   10 1
    13   10   11 2
    14   10   12 1
    15   10   13 1
    16   12   36 1
    17   13   14 1
    18   14   15 1
    19   14   37 1
    20   14   38 1
    21   15   16 1
    22   15   17 1
    23   15   39 1
    24   16   21 1
    25   17   18 1
    26   17   19 1
    27   17   40 1
    28   18   41 1
    29   19   20 1
    30   19   21 1
    31   19   42 1
    32   20   43 1
    33   21   22 1
    34   21   44 1
    35   22   23 ar
    36   22   32 ar
    37   23   24 ar
    38   23   45 1
    39   24   25 ar
    40   25   26 ar
    41   25   32 ar
    42   26   27 2
    43   26   28 ar
    44   28   29 ar
    45   28   46 1
    46   29   30 1
    47   29   31 ar
    48   30   47 1
    49   30   48 1
    50   31   32 ar
@<TRIPOS>SUBSTRUCTURE
     1 GTP         1 GROUP 0 A     ****
@<TRIPOS>MOLECULE
[[5-(2-amino-6-oxo-1~{H}-purin-9-yl)-3,4-dihydroxy-tetrahydrofuran-2-yl]methoxy-hydroxy-phosphoryl] phosphono hydrogen phosphate
   48    50     1     0     0
SMALL
USER_CHARGES

@<TRIPOS>ATOM
      1 PG         -0.2328    8.9349    0.6171 P.3       1 GTP         1.8160
      2 O1G        -0.1474    9.0681   -0.8749 O.2       1 GTP        -0.8277
      3 O2G         1.1680    9.0967    1.4065 O.3       1 GTP        -0.7983
      4 O3G        -1.2023   10.0022    1.3475 O.3       1 GTP        -0.7983
      5 O3B        -0.7985    7.5125    1.1353 O.3       1 GTP        -0.8272
      6 PB         -2.2059    6.7585    0.8888 P.3       1 GTP         1.9429
      7 O1B        -3.4113    7.5153    1.3634 O.2       1 GTP        -0.8481
      8 O2B        -2.1879    6.4106   -0.6897 O.3       1 GTP        -0.8171
      9 O3A        -1.9858    5.3044    1.5550 O.3       1 GTP        -0.8114
     10 PA         -2.9681    4.0282    1.6824 P.3       1 GTP         1.8017
     11 O1A        -4.2362    4.3013    2.4378 O.2       1 GTP        -0.7846
     12 O2A        -3.1908    3.5777    0.1446 O.3       1 GTP        -0.8074
     13 O5'        -2.0398    2.8621    2.3123 O.3       1 GTP        -0.5669
     14 C5'        -0.8811    2.4285    1.6206 C.3       1 GTP         0.1637
     15 C4'        -0.1994    1.3333    2.4288 C.3       1 GTP         0.1099
     16 O4'        -1.1285    0.2356    2.5840 O.3       1 GTP        -0.4100
     17 C3'         1.0324    0.7610    1.7344 C.3       1 GTP         0.0924
     18 O3'         1.9175    0.2377    2.7247 O.3       1 GTP        -0.5892
     19 C2'         0.4468   -0.3802    0.9263 C.3       1 GTP         0.0635
     20 O2'         1.3993   -1.3703    0.5961 O.3       1 GTP        -0.5749
     21 C1'        -0.6159   -0.9100    1.8769 C.3       1 GTP         0.2557
     22 N9         -1.7127   -1.6108    1.2130 N.pl3     1 GTP        -0.2236
     23 C8         -2.0873   -2.9139    1.4324 C.ar      1 GTP         0.4148
     24 N7         -3.1135   -3.2727    0.6860 N.2       1 GTP        -0.5808
     25 C5         -3.4017   -2.1526   -0.0362 C.ar      1 GTP         0.1777
     26 C6         -4.4318   -1.9582   -1.0186 C.ar      1 GTP         0.6505
     27 O6         -5.2284   -2.8266   -1.3513 O.2       1 GTP        -0.5947
     28 N1         -4.3916   -0.6538   -1.5306 N.pl3     1 GTP        -0.5110
     29 C2         -3.4693    0.3474   -1.1439 C.ar      1 GTP         0.6844
     30 N2         -3.6143    1.5541   -1.7775 N.pl3     1 GTP        -0.8920
     31 N3         -2.5355    0.1410   -0.2407 N.2       1 GTP        -0.6705
     32 C4         -2.5574   -1.1117    0.2656 C.ar      1 GTP         0.1220
     33 HOG2        1.6652    9.9382    1.3244 H         1 GTP         0.5087
     34 HOG3       -2.1531   10.0222    1.1071 H         1 GTP         0.5087
     35 HOB2       -2.2127    7.1461   -1.3382 H         1 GTP         0.5092
     36 HOA2       -3.6542    4.1894   -0.4662 H         1 GTP         0.5041
     37 H5'        -1.1763    2.0500    0.6366 H         1 GTP         0.0584
     38 H5''       -0.2075    3.2812    1.4874 H         1 GTP         0.0584
     39 H4'         0.0402    1.7079    3.4343 H         1 GTP         0.1192
     40 H3'         1.5907    1.4859    1.1353 H         1 GTP         0.0735
     41 HO3'        2.6839   -0.1150    2.2479 H         1 GTP         0.4308
     42 H2'        -0.0017    0.0018    0.0005 H         1 GTP         0.0746
     43 HO2'        2.0953   -0.9375    0.0709 H         1 GTP         0.4224
     44 H1'        -0.1998   -1.6319    2.6178 H         1 GTP         0.1162
     45 H8         -1.5757   -3.5474    2.1443 H         1 GTP         0.0741
     46 HN1        -5.0800   -0.4074   -2.2361 H         1 GTP         0.3343
     47 HN21       -2.9894    2.2891   -1.5392 H         1 GTP         0.4229
     48 HN22       -4.3387    1.6483   -2.4512 H         1 GTP         0.4229
@<TRIPOS>BOND
     1    1    2 2
     2    1    3 1
     3    1    4 1
     4    1    5 1
     5    3   33 1
     6    4   34 1
     7    5    6 1
     8    6    7 2
     9    6    8 1
    10    6    9 1
    11    8   35 1
    12    9   10 1
    13   10   11 2
    14   10   12 1
    15   10   13 1
    16   12   36 1
    17   13   14 1
    18   14   15 1
    19   14   37 1
    20   14   38 1
    21   15   16 1
    22   15   17 1
    23   15   39 1
    24   16   21 1
    25   17   18 1
    26   17   19 1
    27   17   40 1
    28   18   41 1
    29   19   20 1
    30   19   21 1
    31   19   42 1
    32   20   43 1
    33   21   22 1
    34   21   44 1
    35   22   23 ar
    36   22   32 ar
    37   23   24 ar
    38   23   45 1
    39   24   25 ar
    40   25   26 ar
    41   25   32 ar
    42   26   27 2
    43   26   28 ar
    44   28   29 ar
    45   28   46 1
    46   29   30 1
    47   29   31 ar
    48   30   47 1
    49   30   48 1
    50   31   32 ar
@<TRIPOS>SUBSTRUCTURE
     1 GTP         1 GROUP 0 A     ****
@<TRIPOS>MOLECULE
[[5-(2-amino-6-oxo-1~{H}-purin-9-yl)-3,4-dihydroxy-tetrahydrofuran-2-yl]methoxy-hydroxy-phosphoryl] phosphono hydrogen phosphate
   48    50     1     0     0
SMALL
USER_CHARGES

@<TRIPOS>ATOM
      1 PG         -1.1090    6.9443   -1.2925 P.3       1 GTP         1.8160
      2 O1G        -0.3325    6.6995   -0.0322 O.2       1 GTP        -0.8277
      3 O2G        -2.0825    8.2339   -1.2648 O.3       1 GTP        -0.7983
      4 O3G        -0.2126    7.1774   -2.6172 O.3       1 GTP        -0.7983
      5 O3B        -2.0917    5.7360   -1.7238 O.3       1 GTP        -0.8272
      6 PB         -3.3424    5.0437   -0.9709 P.3       1 GTP         1.9429
      7 O1B        -4.4751    5.9756   -0.6557 O.2       1 GTP        -0.8481
      8 O2B        -3.7229    3.7929   -1.9216 O.3       1 GTP        -0.8171
      9 O3A        -2.6685    4.3073    0.2980 O.3       1 GTP        -0.8114
     10 PA         -3.3131    3.4211    1.4850 P.3       1 GTP         1.8017
     11 O1A        -4.3319    4.1496    2.3125 O.2       1 GTP        -0.7846
     12 O2A        -3.8882    2.1240    0.7078 O.3       1 GTP        -0.8074
     13 O5'        -2.0398    2.8621    2.3123 O.3       1 GTP        -0.5669
     14 C5'        -0.8811    2.4285    1.6206 C.3       1 GTP         0.1637
     15 C4'        -0.1994    1.3333    2.4288 C.3       1 GTP         0.1099
     16 O4'        -1.1285    0.2356    2.5840 O.3       1 GTP        -0.4100
     17 C3'         1.0324    0.7610    1.7344 C.3       1 GTP         0.0924
     18 O3'         1.9175    0.2377    2.7247 O.3       1 GTP        -0.5892
     19 C2'         0.4468   -0.3802    0.9263 C.3       1 GTP         0.0635
     20 O2'         1.3993   -1.3703    0.5961 O.3       1 GTP        -0.5749
     21 C1'        -0.6159   -0.9100    1.8769 C.3       1 GTP         0.2557
     22 N9         -1.7127   -1.6108    1.2130 N.pl3     1 GTP        -0.2236
     23 C8         -3.0375   -1.2493    1.2452 C.ar      1 GTP         0.4148
     24 N7         -3.7986   -2.0732    0.5519 N.2       1 GTP        -0.5808
     25 C5         -2.9221   -2.9947    0.0601 C.ar      1 GTP         0.1777
     26 C6         -3.1909   -4.1355   -0.7707 C.ar      1 GTP         0.6505
     27 O6         -4.3086   -4.4427   -1.1652 O.2       1 GTP        -0.5947
     28 N1         -2.0085   -4.8320   -1.0576 N.pl3     1 GTP        -0.5110
     29 C2         -0.7182   -4.4742   -0.5998 C.ar      1 GTP         0.6844
     30 N2          0.2972   -5.3016   -1.0037 N.pl3     1 GTP        -0.8920
     31 N3         -0.5015   -3.4231    0.1607 N.2       1 GTP        -0.6705
     32 C4         -1.6297   -2.7374    0.4490 C.ar      1 GTP         0.1220
     33 HOG2       -1.6920    9.1208   -1.1132 H         1 GTP         0.5087
     34 HOG3        0.3975    6.4668   -2.9088 H         1 GTP         0.5087
     35 HOB2       -4.0739    3.9694   -2.8204 H         1 GTP         0.5092
     36 HOA2       -4.6162    2.2428    0.0614 H         1 GTP         0.5041
     37 H5'        -1.1763    2.0500    0.6366 H         1 GTP         0.0584
     38 H5''       -0.2075    3.2812    1.4874 H         1 GTP         0.0584
     39 H4'         0.0402    1.7079    3.4343 H         1 GTP         0.1192
     40 H3'         1.5907    1.4859    1.1353 H         1 GTP         0.0735
     41 HO3'        2.6839   -0.1150    2.2479 H         1 GTP         0.4308
     42 H2'        -0.0017    0.0018    0.0005 H         1 GTP         0.0746
     43 HO2'        2.0953   -0.9375    0.0709 H         1 GTP         0.4224
     44 H1'        -0.1998   -1.6319    2.6178 H         1 GTP         0.1162
     45 H8         -3.3837   -0.3807    1.7887 H         1 GTP         0.0741
     46 HN1        -2.0841   -5.6603   -1.6411 H         1 GTP         0.3343
     47 HN21        0.0700   -6.0804   -1.5774 H         1 GTP         0.4229
     48 HN22        1.2222   -5.0913   -0.7074 H         1 GTP         0.4229
@<TRIPOS>BOND
     1    1    2 2
     2    1    3 1
     3    1    4 1
     4    1    5 1
     5    3   33 1
     6    4   34 1
     7    5    6 1
     8    6    7 2
     9    6    8 1
    10    6    9 1
    11    8   35 1
    12    9   10 1
    13   10   11 2
    14   10   12 1
    15   10   13 1
    16   12   36 1
    17   13   14 1
    18   14   15 1
    19   14   37 1
    20   14   38 1
    21   15   16 1
    22   15   17 1
    23   15   39 1
    24   16   21 1
    25   17   18 1
    26   17   19 1
    27   17   40 1
    28   18   41 1
    29   19   20 1
    30   19   21 1
    31   19   42 1
    32   20   43 1
    33   21   22 1
    34   21   44 1
    35   22   23 ar
    36   22   32 ar
    37   23   24 ar
    38   23   45 1
    39   24   25 ar
    40   25   26 ar
    41   25   32 ar
    42   26   27 2
    43   26   28 ar
    44   28   29 ar
    45   28   46 1
    46   29   30 1
    47   29   31 ar
    48   30   47 1
    49   30   48 1
    50   31   32 ar
@<TRIPOS>SUBSTRUCTURE
     1 GTP         1 GROUP 0 A     ****
@<TRIPOS>MOLECULE
[[5-(2-amino-6-oxo-1~{H}-purin-9-yl)-3,4-dihydroxy-tetrahydrofuran-2-yl]methoxy-hydroxy-phosphoryl] phosphono hydrogen phosphate
   48    50     1     0     0
SMALL
USER_CHARGES

@<TRIPOS>ATOM
      1 PG          1.1438    6.4650    1.7990 P.3       1 GTP         1.8160
      2 O1G         1.0463    7.6736    2.6827 O.2       1 GTP        -0.8277
      3 O2G         1.7225    6.7388    0.3152 O.3       1 GTP        -0.7983
      4 O3G         2.0888    5.2792    2.3590 O.3       1 GTP        -0.7983
      5 O3B        -0.2613    5.7148    1.5260 O.3       1 GTP        -0.8272
      6 PB         -1.6386    6.2202    0.8493 P.3       1 GTP         1.9429
      7 O1B        -2.2873    7.3803    1.5453 O.2       1 GTP        -0.8481
      8 O2B        -1.2393    6.4788   -0.6956 O.3       1 GTP        -0.8171
      9 O3A        -2.5313    4.8790    0.7447 O.3       1 GTP        -0.8114
     10 PA         -3.0702    3.8634    1.8796 P.3       1 GTP         1.8017
     11 O1A        -3.9589    4.5039    2.9059 O.2       1 GTP        -0.7846
     12 O2A        -3.7801    2.6911    1.0200 O.3       1 GTP        -0.8074
     13 O5'        -1.7335    3.1724    2.4745 O.3       1 GTP        -0.5669
     14 C5'        -0.8811    2.4285    1.6206 C.3       1 GTP         0.1637
     15 C4'        -0.1994    1.3333    2.4288 C.3       1 GTP         0.1099
     16 O4'        -1.1285    0.2356    2.5840 O.3       1 GTP        -0.4100
     17 C3'         1.0324    0.7610    1.7344 C.3       1 GTP         0.0924
     18 O3'         1.9175    0.2377    2.7247 O.3       1 GTP        -0.5892
     19 C2'         0.4468   -0.3802    0.9263 C.3       1 GTP         0.0635
     20 O2'         1.3993   -1.3703    0.5961 O.3       1 GTP        -0.5749
     21 C1'        -0.6159   -0.9100    1.8769 C.3       1 GTP         0.2557
     22 N9         -1.7127   -1.6108    1.2130 N.pl3     1 GTP        -0.2236
     23 C8         -3.0375   -1.2493    1.2452 C.ar      1 GTP         0.4148
     24 N7         -3.7986   -2.0732    0.5519 N.2       1 GTP        -0.5808
     25 C5         -2.9221   -2.9947    0.0601 C.ar      1 GTP         0.1777
     26 C6         -3.1909   -4.1355   -0.7707 C.ar      1 GTP         0.6505
     27 O6         -4.3086   -4.4427   -1.1652 O.2       1 GTP        -0.5947
     28 N1         -2.0085   -4.8320   -1.0576 N.pl3     1 GTP        -0.5110
     29 C2         -0.7182   -4.4742   -0.5998 C.ar      1 GTP         0.6844
     30 N2          0.2972   -5.3016   -1.0037 N.pl3     1 GTP        -0.8920
     31 N3         -0.5015   -3.4231    0.1607 N.2       1 GTP        -0.6705
     32 C4         -1.6297   -2.7374    0.4490 C.ar      1 GTP         0.1220
     33 HOG2        1.2444    7.3604   -0.2740 H         1 GTP         0.5087
     34 HOG3        3.0373    5.4662    2.5249 H         1 GTP         0.5087
     35 HOB2       -1.9455    6.7086   -1.3364 H         1 GTP         0.5092
     36 HOA2       -4.1331    1.9060    1.4900 H         1 GTP         0.5041
     37 H5'        -1.4796    1.9923    0.8143 H         1 GTP         0.0584
     38 H5''       -0.1364    3.1037    1.1869 H         1 GTP         0.0584
     39 H4'         0.0402    1.7079    3.4343 H         1 GTP         0.1192
     40 H3'         1.5907    1.4859    1.1353 H         1 GTP         0.0735
     41 HO3'        2.6839   -0.1150    2.2479 H         1 GTP         0.4308
     42 H2'        -0.0017    0.0018    0.0005 H         1 GTP         0.0746
     43 HO2'        2.0953   -0.9375    0.0709 H         1 GTP         0.4224
     44 H1'        -0.1998   -1.6319    2.6178 H         1 GTP         0.1162
     45 H8         -3.3837   -0.3807    1.7887 H         1 GTP         0.0741
     46 HN1        -2.0841   -5.6603   -1.6411 H         1 GTP         0.3343
     47 HN21        1.2221   -5.0911   -0.7073 H         1 GTP         0.4229
     48 HN22        0.0702   -6.0804   -1.5775 H         1 GTP         0.4229
@<TRIPOS>BOND
     1    1    2 2
     2    1    3 1
     3    1    4 1
     4    1    5 1
     5    3   33 1
     6    4   34 1
     7    5    6 1
     8    6    7 2
     9    6    8 1
    10    6    9 1
    11    8   35 1
    12    9   10 1
    13   10   11 2
    14   10   12 1
    15   10   13 1
    16   12   36 1
    17   13   14 1
    18   14   15 1
    19   14   37 1
    20   14   38 1
    21   15   16 1
    22   15   17 1
    23   15   39 1
    24   16   21 1
    25   17   18 1
    26   17   19 1
    27   17   40 1
    28   18   41 1
    29   19   20 1
    30   19   21 1
    31   19   42 1
    32   20   43 1
    33   21   22 1
    34   21   44 1
    35   22   23 ar
    36   22   32 ar
    37   23   24 ar
    38   23   45 1
    39   24   25 ar
    40   25   26 ar
    41   25   32 ar
    42   26   27 2
    43   26   28 ar
    44   28   29 ar
    45   28   46 1
    46   29   30 1
    47   29   31 ar
    48   30   47 1
    49   30   48 1
    50   31   32 ar
@<TRIPOS>SUBSTRUCTURE
     1 GTP         1 GROUP 0 A     ****
@<TRIPOS>MOLECULE
[[5-(2-amino-6-oxo-1~{H}-purin-9-yl)-3,4-dihydroxy-tetrahydrofuran-2-yl]methoxy-hydroxy-phosphoryl] phosphono hydrogen phosphate
   48    50     1     0     0
SMALL
USER_CHARGES

@<TRIPOS>ATOM
      1 PG          2.5093    3.4519   -5.7328 P.3       1 GTP         1.8160
      2 O1G         2.6172    2.0445   -5.2244 O.2       1 GTP        -0.8277
      3 O2G         2.8633    4.6044   -4.6566 O.3       1 GTP        -0.7983
      4 O3G         3.4638    3.8035   -6.9890 O.3       1 GTP        -0.7983
      5 O3B         1.0399    3.8660   -6.2629 O.3       1 GTP        -0.8272
      6 PB         -0.3965    3.9179   -5.5250 P.3       1 GTP         1.9429
      7 O1B        -0.4597    4.8436   -4.3460 O.2       1 GTP        -0.8481
      8 O2B        -1.4339    4.2507   -6.7192 O.3       1 GTP        -0.8171
      9 O3A        -0.7270    2.3681   -5.2160 O.3       1 GTP        -0.8114
     10 PA         -1.9943    1.6687   -4.4986 P.3       1 GTP         1.8017
     11 O1A        -3.3061    1.9239   -5.1824 O.2       1 GTP        -0.7846
     12 O2A        -1.5681    0.1095   -4.4325 O.3       1 GTP        -0.8074
     13 O5'        -1.9200    2.1712   -2.9623 O.3       1 GTP        -0.5669
     14 C5'        -0.7794    1.8744   -2.1748 C.3       1 GTP         0.1637
     15 C4'        -0.9699    2.4597   -0.7819 C.3       1 GTP         0.1099
     16 O4'        -2.1475    1.8640   -0.2014 O.3       1 GTP        -0.4100
     17 C3'         0.1697    2.1347    0.1695 C.3       1 GTP         0.0924
     18 O3'         0.1809    3.0982    1.2223 O.3       1 GTP        -0.5892
     19 C2'        -0.2543    0.7880    0.7187 C.3       1 GTP         0.0635
     20 O2'         0.3606    0.4944    1.9582 O.3       1 GTP        -0.5749
     21 C1'        -1.7682    0.9516    0.8548 C.3       1 GTP         0.2557
     22 N9         -2.5926   -0.2553    0.7436 N.pl3     1 GTP        -0.2236
     23 C8         -2.1292   -1.5330    0.5451 C.ar      1 GTP         0.4148
     24 N7         -3.1061   -2.4167    0.4857 N.2       1 GTP        -0.5808
     25 C5         -4.2348   -1.6702    0.6529 C.ar      1 GTP         0.1777
     26 C6         -5.6038   -2.1053    0.6765 C.ar      1 GTP         0.6505
     27 O6         -5.9501   -3.2720    0.5410 O.2       1 GTP        -0.5947
     28 N1         -6.4680   -1.0192    0.8736 N.pl3     1 GTP        -0.5110
     29 C2         -6.0643    0.3281    1.0298 C.ar      1 GTP         0.6844
     30 N2         -7.0824    1.2278    1.2106 N.pl3     1 GTP        -0.8920
     31 N3         -4.8022    0.6979    1.0037 N.2       1 GTP        -0.6705
     32 C4         -3.9522   -0.3354    0.8146 C.ar      1 GTP         0.1220
     33 HOG2        2.3338    4.6643   -3.8332 H         1 GTP         0.5087
     34 HOG3        4.4354    3.7161   -6.8861 H         1 GTP         0.5087
     35 HOB2       -1.3808    5.1229   -7.1648 H         1 GTP         0.5092
     36 HOA2       -2.1565   -0.5236   -3.9689 H         1 GTP         0.5041
     37 H5'        -0.6595    0.7876   -2.1196 H         1 GTP         0.0584
     38 H5''        0.1048    2.3070   -2.6539 H         1 GTP         0.0584
     39 H4'        -1.1469    3.5409   -0.8523 H         1 GTP         0.1192
     40 H3'         1.1601    2.1310   -0.2934 H         1 GTP         0.0735
     41 HO3'        0.9173    2.8584    1.8048 H         1 GTP         0.4308
     42 H2'        -0.0024   -0.0091    0.0062 H         1 GTP         0.0746
     43 HO2'        1.3225    0.4909    1.8095 H         1 GTP         0.4224
     44 H1'        -2.0584    1.4255    1.8301 H         1 GTP         0.1162
     45 H8         -1.0747   -1.7545    0.4515 H         1 GTP         0.0741
     46 HN1        -7.4645   -1.2151    0.9069 H         1 GTP         0.3343
     47 HN21       -6.8484    2.1867    1.3250 H         1 GTP         0.4229
     48 HN22       -8.0158    0.8871    1.2204 H         1 GTP         0.4229
@<TRIPOS>BOND
     1    1    2 2
     2    1    3 1
     3    1    4 1
     4    1    5 1
     5    3   33 1
     6    4   34 1
     7    5    6 1
     8    6    7 2
     9    6    8 1
    10    6    9 1
    11    8   35 1
    12    9   10 1
    13   10   11 2
    14   10   12 1
    15   10   13 1
    16   12   36 1
    17   13   14 1
    18   14   15 1
    19   14   37 1
    20   14   38 1
    21   15   16 1
    22   15   17 1
    23   15   39 1
    24   16   21 1
    25   17   18 1
    26   17   19 1
    27   17   40 1
    28   18   41 1
    29   19   20 1
    30   19   21 1
    31   19   42 1
    32   20   43 1
    33   21   22 1
    34   21   44 1
    35   22   23 ar
    36   22   32 ar
    37   23   24 ar
    38   23   45 1
    39   24   25 ar
    40   25   26 ar
    41   25   32 ar
    42   26   27 2
    43   26   28 ar
    44   28   29 ar
    45   28   46 1
    46   29   30 1
    47   29   31 ar
    48   30   47 1
    49   30   48 1
    50   31   32 ar
@<TRIPOS>SUBSTRUCTURE
     1 GTP         1 GROUP 0 A     ****
@<TRIPOS>MOLECULE
[[5-(2-amino-6-oxo-1~{H}-purin-9-yl)-3,4-dihydroxy-tetrahydrofuran-2-yl]methoxy-hydroxy-phosphoryl] phosphono hydrogen phosphate
   48    50     1     0     0
SMALL
USER_CHARGES

@<TRIPOS>ATOM
      1 PG         -1.3099    8.4062   -0.4716 P.3       1 GTP         1.8160
      2 O1G        -0.0432    8.8039    0.2272 O.2       1 GTP        -0.8277
      3 O2G        -2.6106    9.2906   -0.1005 O.3       1 GTP        -0.7983
      4 O3G        -1.2549    8.4760   -2.0855 O.3       1 GTP        -0.7983
      5 O3B        -1.7887    6.8891   -0.1871 O.3       1 GTP        -0.8272
      6 PB         -2.1856    6.1230    1.1788 P.3       1 GTP         1.9429
      7 O1B        -1.0919    6.0682    2.2044 O.2       1 GTP        -0.8481
      8 O2B        -3.5424    6.8605    1.6566 O.3       1 GTP        -0.8171
      9 O3A        -2.7414    4.6945    0.6717 O.3       1 GTP        -0.8114
     10 PA         -3.3131    3.4211    1.4850 P.3       1 GTP         1.8017
     11 O1A        -4.5255    3.7180    2.3189 O.2       1 GTP        -0.7846
     12 O2A        -3.5540    2.3192    0.3253 O.3       1 GTP        -0.8074
     13 O5'        -2.0398    2.8621    2.3123 O.3       1 GTP        -0.5669
     14 C5'        -0.8811    2.4285    1.6206 C.3       1 GTP         0.1637
     15 C4'        -0.1994    1.3333    2.4288 C.3       1 GTP         0.1099
     16 O4'        -1.1285    0.2356    2.5840 O.3       1 GTP        -0.4100
     17 C3'         1.0324    0.7610    1.7344 C.3       1 GTP         0.0924
     18 O3'         1.9175    0.2377    2.7247 O.3       1 GTP        -0.5892
     19 C2'         0.4468   -0.3802    0.9263 C.3       1 GTP         0.0635
     20 O2'         1.3993   -1.3703    0.5961 O.3       1 GTP        -0.5749
     21 C1'        -0.6159   -0.9100    1.8769 C.3       1 GTP         0.2557
     22 N9         -1.7127   -1.6108    1.2130 N.pl3     1 GTP        -0.2236
     23 C8         -3.0375   -1.2493    1.2452 C.ar      1 GTP         0.4148
     24 N7         -3.7986   -2.0732    0.5519 N.2       1 GTP        -0.5808
     25 C5         -2.9221   -2.9947    0.0601 C.ar      1 GTP         0.1777
     26 C6         -3.1909   -4.1355   -0.7707 C.ar      1 GTP         0.6505
     27 O6         -4.3086   -4.4427   -1.1652 O.2       1 GTP        -0.5947
     28 N1         -2.0085   -4.8320   -1.0576 N.pl3     1 GTP        -0.5110
     29 C2         -0.7182   -4.4742   -0.5998 C.ar      1 GTP         0.6844
     30 N2          0.2972   -5.3016   -1.0037 N.pl3     1 GTP        -0.8920
     31 N3         -0.5015   -3.4231    0.1607 N.2       1 GTP        -0.6705
     32 C4         -1.6297   -2.7374    0.4490 C.ar      1 GTP         0.1220
     33 HOG2       -2.9152    9.3199    0.8314 H         1 GTP         0.5087
     34 HOG3       -1.0655    9.3360   -2.5175 H         1 GTP         0.5087
     35 HOB2       -4.0299    6.5034    2.4292 H         1 GTP         0.5092
     36 HOA2       -4.2273    2.4971   -0.3654 H         1 GTP         0.5041
     37 H5'        -1.1763    2.0500    0.6366 H         1 GTP         0.0584
     38 H5''       -0.2075    3.2812    1.4874 H         1 GTP         0.0584
     39 H4'         0.0402    1.7079    3.4343 H         1 GTP         0.1192
     40 H3'         1.5907    1.4859    1.1353 H         1 GTP         0.0735
     41 HO3'        2.6839   -0.1150    2.2479 H         1 GTP         0.4308
     42 H2'        -0.0017    0.0018    0.0005 H         1 GTP         0.0746
     43 HO2'        2.0953   -0.9375    0.0709 H         1 GTP         0.4224
     44 H1'        -0.1998   -1.6319    2.6178 H         1 GTP         0.1162
     45 H8         -3.3837   -0.3807    1.7887 H         1 GTP         0.0741
     46 HN1        -2.0841   -5.6603   -1.6411 H         1 GTP         0.3343
     47 HN21        1.2221   -5.0911   -0.7073 H         1 GTP         0.4229
     48 HN22        0.0702   -6.0804   -1.5775 H         1 GTP         0.4229
@<TRIPOS>BOND
     1    1    2 2
     2    1    3 1
     3    1    4 1
     4    1    5 1
     5    3   33 1
     6    4   34 1
     7    5    6 1
     8    6    7 2
     9    6    8 1
    10    6    9 1
    11    8   35 1
    12    9   10 1
    13   10   11 2
    14   10   12 1
    15   10   13 1
    16   12   36 1
    17   13   14 1
    18   14   15 1
    19   14   37 1
    20   14   38 1
    21   15   16 1
    22   15   17 1
    23   15   39 1
    24   16   21 1
    25   17   18 1
    26   17   19 1
    27   17   40 1
    28   18   41 1
    29   19   20 1
    30   19   21 1
    31   19   42 1
    32   20   43 1
    33   21   22 1
    34   21   44 1
    35   22   23 ar
    36   22   32 ar
    37   23   24 ar
    38   23   45 1
    39   24   25 ar
    40   25   26 ar
    41   25   32 ar
    42   26   27 2
    43   26   28 ar
    44   28   29 ar
    45   28   46 1
    46   29   30 1
    47   29   31 ar
    48   30   47 1
    49   30   48 1
    50   31   32 ar
@<TRIPOS>SUBSTRUCTURE
     1 GTP         1 GROUP 0 A     ****
@<TRIPOS>MOLECULE
[[5-(2-amino-6-oxo-1~{H}-purin-9-yl)-3,4-dihydroxy-tetrahydrofuran-2-yl]methoxy-hydroxy-phosphoryl] phosphono hydrogen phosphate
   48    50     1     0     0
SMALL
USER_CHARGES

@<TRIPOS>ATOM
      1 PG          0.0044    2.3540   -2.8106 P.3       1 GTP         1.8160
      2 O1G         1.0459    2.9597   -3.7047 O.2       1 GTP        -0.8277
      3 O2G        -1.3857    1.9622   -3.5359 O.3       1 GTP        -0.7983
      4 O3G         0.4440    0.9840   -2.0740 O.3       1 GTP        -0.7983
      5 O3B        -0.4606    3.2965   -1.5830 O.3       1 GTP        -0.8272
      6 PB         -1.1406    4.7616   -1.5473 P.3       1 GTP         1.9429
      7 O1B        -0.3254    5.8443   -2.1909 O.2       1 GTP        -0.8481
      8 O2B        -2.6042    4.5253   -2.1916 O.3       1 GTP        -0.8171
      9 O3A        -1.4932    4.9848    0.0124 O.3       1 GTP        -0.8114
     10 PA         -0.5527    5.0214    1.3254 P.3       1 GTP         1.8017
     11 O1A         0.4988    6.0924    1.2989 O.2       1 GTP        -0.7846
     12 O2A        -1.6150    5.1587    2.5377 O.3       1 GTP        -0.8074
     13 O5'         0.0173    3.5130    1.4593 O.3       1 GTP        -0.5669
     14 C5'        -0.8811    2.4285    1.6206 C.3       1 GTP         0.1637
     15 C4'        -0.1994    1.3333    2.4288 C.3       1 GTP         0.1099
     16 O4'        -1.1285    0.2356    2.5840 O.3       1 GTP        -0.4100
     17 C3'         1.0324    0.7610    1.7344 C.3       1 GTP         0.0924
     18 O3'         1.9175    0.2377    2.7247 O.3       1 GTP        -0.5892
     19 C2'         0.4468   -0.3802    0.9263 C.3       1 GTP         0.0635
     20 O2'         1.3993   -1.3703    0.5961 O.3       1 GTP        -0.5749
     21 C1'        -0.6159   -0.9100    1.8769 C.3       1 GTP         0.2557
     22 N9         -1.7127   -1.6108    1.2130 N.pl3     1 GTP        -0.2236
     23 C8         -2.5489   -1.0812    0.2607 C.ar      1 GTP         0.4148
     24 N7         -3.4468   -1.9516   -0.1576 N.2       1 GTP        -0.5808
     25 C5         -3.1696   -3.0787    0.5579 C.ar      1 GTP         0.1777
     26 C6         -3.8307   -4.3536    0.5166 C.ar      1 GTP         0.6505
     27 O6         -4.7841   -4.6033   -0.2101 O.2       1 GTP        -0.5947
     28 N1         -3.2356   -5.2522    1.4132 N.pl3     1 GTP        -0.5110
     29 C2         -2.1338   -4.9602    2.2517 C.ar      1 GTP         0.6844
     30 N2         -1.7156   -5.9923    3.0507 N.pl3     1 GTP        -0.8920
     31 N3         -1.5477   -3.7827    2.2686 N.2       1 GTP        -0.6705
     32 C4         -2.1070   -2.9013    1.4104 C.ar      1 GTP         0.1220
     33 HOG2       -1.9071    2.6669   -3.9759 H         1 GTP         0.5087
     34 HOG3        1.2206    0.9951   -1.4750 H         1 GTP         0.5087
     35 HOB2       -3.2473    5.2659   -2.1933 H         1 GTP         0.5092
     36 HOA2       -1.2863    5.1327    3.4614 H         1 GTP         0.5041
     37 H5'        -1.7774    2.7844    2.1388 H         1 GTP         0.0584
     38 H5''       -1.1657    2.0536    0.6322 H         1 GTP         0.0584
     39 H4'         0.0402    1.7079    3.4343 H         1 GTP         0.1192
     40 H3'         1.5907    1.4859    1.1353 H         1 GTP         0.0735
     41 HO3'        2.1521    0.9800    3.3017 H         1 GTP         0.4308
     42 H2'        -0.0017    0.0018    0.0005 H         1 GTP         0.0746
     43 HO2'        0.9369   -2.0558    0.0825 H         1 GTP         0.4224
     44 H1'        -0.1998   -1.6319    2.6178 H         1 GTP         0.1162
     45 H8         -2.4545   -0.0604   -0.0844 H         1 GTP         0.0741
     46 HN1        -3.6270   -6.1884    1.4651 H         1 GTP         0.3343
     47 HN21       -2.1995   -6.8583    2.9929 H         1 GTP         0.4229
     48 HN22       -0.9445   -5.8356    3.6575 H         1 GTP         0.4229
@<TRIPOS>BOND
     1    1    2 2
     2    1    3 1
     3    1    4 1
     4    1    5 1
     5    3   33 1
     6    4   34 1
     7    5    6 1
     8    6    7 2
     9    6    8 1
    10    6    9 1
    11    8   35 1
    12    9   10 1
    13   10   11 2
    14   10   12 1
    15   10   13 1
    16   12   36 1
    17   13   14 1
    18   14   15 1
    19   14   37 1
    20   14   38 1
    21   15   16 1
    22   15   17 1
    23   15   39 1
    24   16   21 1
    25   17   18 1
    26   17   19 1
    27   17   40 1
    28   18   41 1
    29   19   20 1
    30   19   21 1
    31   19   42 1
    32   20   43 1
    33   21   22 1
    34   21   44 1
    35   22   23 ar
    36   22   32 ar
    37   23   24 ar
    38   23   45 1
    39   24   25 ar
    40   25   26 ar
    41   25   32 ar
    42   26   27 2
    43   26   28 ar
    44   28   29 ar
    45   28   46 1
    46   29   30 1
    47   29   31 ar
    48   30   47 1
    49   30   48 1
    50   31   32 ar
@<TRIPOS>SUBSTRUCTURE
     1 GTP         1 GROUP 0 A     ****
@<TRIPOS>MOLECULE
[[5-(2-amino-6-oxo-1~{H}-purin-9-yl)-3,4-dihydroxy-tetrahydrofuran-2-yl]methoxy-hydroxy-phosphoryl] phosphono hydrogen phosphate
   48    50     1     0     0
SMALL
USER_CHARGES

@<TRIPOS>ATOM
      1 PG         -2.5518    9.1527    0.4567 P.3       1 GTP         1.8160
      2 O1G        -3.6159    9.4151   -0.5680 O.2       1 GTP        -0.8277
      3 O2G        -1.0837    9.7193    0.0890 O.3       1 GTP        -0.7983
      4 O3G        -2.8398    9.7745    1.9206 O.3       1 GTP        -0.7983
      5 O3B        -2.2880    7.5891    0.7689 O.3       1 GTP        -0.8272
      6 PB         -1.8175    6.3664   -0.1765 P.3       1 GTP         1.9429
      7 O1B        -2.7366    6.0768   -1.3265 O.2       1 GTP        -0.8481
      8 O2B        -0.3023    6.7535   -0.5854 O.3       1 GTP        -0.8171
      9 O3A        -1.5848    5.1480    0.8569 O.3       1 GTP        -0.8114
     10 PA         -2.5920    4.4092    1.8815 P.3       1 GTP         1.8017
     11 O1A        -3.1892    5.3162    2.9178 O.2       1 GTP        -0.7846
     12 O2A        -3.6736    3.7135    0.8999 O.3       1 GTP        -0.8074
     13 O5'        -1.7335    3.1724    2.4745 O.3       1 GTP        -0.5669
     14 C5'        -0.8811    2.4285    1.6206 C.3       1 GTP         0.1637
     15 C4'        -0.1994    1.3333    2.4288 C.3       1 GTP         0.1099
     16 O4'        -1.1285    0.2356    2.5840 O.3       1 GTP        -0.4100
     17 C3'         1.0324    0.7610    1.7344 C.3       1 GTP         0.0924
     18 O3'         1.9175    0.2377    2.7247 O.3       1 GTP        -0.5892
     19 C2'         0.4468   -0.3802    0.9263 C.3       1 GTP         0.0635
     20 O2'         1.3993   -1.3703    0.5961 O.3       1 GTP        -0.5749
     21 C1'        -0.6159   -0.9100    1.8769 C.3       1 GTP         0.2557
     22 N9         -1.7127   -1.6108    1.2130 N.pl3     1 GTP        -0.2236
     23 C8         -2.0873   -2.9139    1.4324 C.ar      1 GTP         0.4148
     24 N7         -3.1135   -3.2727    0.6860 N.2       1 GTP        -0.5808
     25 C5         -3.4017   -2.1526   -0.0362 C.ar      1 GTP         0.1777
     26 C6         -4.4318   -1.9582   -1.0186 C.ar      1 GTP         0.6505
     27 O6         -5.2284   -2.8266   -1.3513 O.2       1 GTP        -0.5947
     28 N1         -4.3916   -0.6538   -1.5306 N.pl3     1 GTP        -0.5110
     29 C2         -3.4693    0.3474   -1.1439 C.ar      1 GTP         0.6844
     30 N2         -3.6143    1.5541   -1.7775 N.pl3     1 GTP        -0.8920
     31 N3         -2.5355    0.1410   -0.2407 N.2       1 GTP        -0.6705
     32 C4         -2.5574   -1.1117    0.2656 C.ar      1 GTP         0.1220
     33 HOG2       -0.6402    9.3974   -0.7244 H         1 GTP         0.5087
     34 HOG3       -2.9507   10.7449    2.0109 H         1 GTP         0.5087
     35 HOB2        0.2327    6.1063   -1.0923 H         1 GTP         0.5092
     36 HOA2       -4.2512    4.2846    0.3502 H         1 GTP         0.5041
     37 H5'        -1.4796    1.9923    0.8143 H         1 GTP         0.0584
     38 H5''       -0.1364    3.1037    1.1869 H         1 GTP         0.0584
     39 H4'         0.0402    1.7079    3.4343 H         1 GTP         0.1192
     40 H3'         1.5907    1.4859    1.1353 H         1 GTP         0.0735
     41 HO3'        2.6839   -0.1150    2.2479 H         1 GTP         0.4308
     42 H2'        -0.0017    0.0018    0.0005 H         1 GTP         0.0746
     43 HO2'        2.0953   -0.9375    0.0709 H         1 GTP         0.4224
     44 H1'        -0.1998   -1.6319    2.6178 H         1 GTP         0.1162
     45 H8         -1.5757   -3.5474    2.1443 H         1 GTP         0.0741
     46 HN1        -5.0800   -0.4074   -2.2361 H         1 GTP         0.3343
     47 HN21       -2.9894    2.2891   -1.5392 H         1 GTP         0.4229
     48 HN22       -4.3387    1.6483   -2.4512 H         1 GTP         0.4229
@<TRIPOS>BOND
     1    1    2 2
     2    1    3 1
     3    1    4 1
     4    1    5 1
     5    3   33 1
     6    4   34 1
     7    5    6 1
     8    6    7 2
     9    6    8 1
    10    6    9 1
    11    8   35 1
    12    9   10 1
    13   10   11 2
    14   10   12 1
    15   10   13 1
    16   12   36 1
    17   13   14 1
    18   14   15 1
    19   14   37 1
    20   14   38 1
    21   15   16 1
    22   15   17 1
    23   15   39 1
    24   16   21 1
    25   17   18 1
    26   17   19 1
    27   17   40 1
    28   18   41 1
    29   19   20 1
    30   19   21 1
    31   19   42 1
    32   20   43 1
    33   21   22 1
    34   21   44 1
    35   22   23 ar
    36   22   32 ar
    37   23   24 ar
    38   23   45 1
    39   24   25 ar
    40   25   26 ar
    41   25   32 ar
    42   26   27 2
    43   26   28 ar
    44   28   29 ar
    45   28   46 1
    46   29   30 1
    47   29   31 ar
    48   30   47 1
    49   30   48 1
    50   31   32 ar
@<TRIPOS>SUBSTRUCTURE
     1 GTP         1 GROUP 0 A     ****
@<TRIPOS>MOLECULE
[[5-(2-amino-6-oxo-1~{H}-purin-9-yl)-3,4-dihydroxy-tetrahydrofuran-2-yl]methoxy-hydroxy-phosphoryl] phosphono hydrogen phosphate
   48    50     1     0     0
SMALL
USER_CHARGES

@<TRIPOS>ATOM
      1 PG         -4.1270    8.8436    1.7044 P.3       1 GTP         1.8160
      2 O1G        -4.6781    9.2699    0.3757 O.2       1 GTP        -0.8277
      3 O2G        -2.9729    9.7978    2.3121 O.3       1 GTP        -0.7983
      4 O3G        -5.2105    8.7544    2.9006 O.3       1 GTP        -0.7983
      5 O3B        -3.4502    7.3761    1.7137 O.3       1 GTP        -0.8272
      6 PB         -2.2059    6.7585    0.8888 P.3       1 GTP         1.9429
      7 O1B        -2.3768    6.7716   -0.6017 O.2       1 GTP        -0.8481
      8 O2B        -0.9280    7.5785    1.4434 O.3       1 GTP        -0.8171
      9 O3A        -1.9858    5.3044    1.5550 O.3       1 GTP        -0.8114
     10 PA         -2.9681    4.0282    1.6824 P.3       1 GTP         1.8017
     11 O1A        -4.2362    4.3013    2.4378 O.2       1 GTP        -0.7846
     12 O2A        -3.1908    3.5777    0.1446 O.3       1 GTP        -0.8074
     13 O5'        -2.0398    2.8621    2.3123 O.3       1 GTP        -0.5669
     14 C5'        -0.8811    2.4285    1.6206 C.3       1 GTP         0.1637
     15 C4'        -0.1994    1.3333    2.4288 C.3       1 GTP         0.1099
     16 O4'        -1.1285    0.2356    2.5840 O.3       1 GTP        -0.4100
     17 C3'         1.0324    0.7610    1.7344 C.3       1 GTP         0.0924
     18 O3'         1.9175    0.2377    2.7247 O.3       1 GTP        -0.5892
     19 C2'         0.4468   -0.3802    0.9263 C.3       1 GTP         0.0635
     20 O2'         1.3993   -1.3703    0.5961 O.3       1 GTP        -0.5749
     21 C1'        -0.6159   -0.9100    1.8769 C.3       1 GTP         0.2557
     22 N9         -1.7127   -1.6108    1.2130 N.pl3     1 GTP        -0.2236
     23 C8         -3.0375   -1.2493    1.2452 C.ar      1 GTP         0.4148
     24 N7         -3.7986   -2.0732    0.5519 N.2       1 GTP        -0.5808
     25 C5         -2.9221   -2.9947    0.0601 C.ar      1 GTP         0.1777
     26 C6         -3.1909   -4.1355   -0.7707 C.ar      1 GTP         0.6505
     27 O6         -4.3086   -4.4427   -1.1652 O.2       1 GTP        -0.5947
     28 N1         -2.0085   -4.8320   -1.0576 N.pl3     1 GTP        -0.5110
     29 C2         -0.7182   -4.4742   -0.5998 C.ar      1 GTP         0.6844
     30 N2          0.2972   -5.3016   -1.0037 N.pl3     1 GTP        -0.8920
     31 N3         -0.5015   -3.4231    0.1607 N.2       1 GTP        -0.6705
     32 C4         -1.6297   -2.7374    0.4490 C.ar      1 GTP         0.1220
     33 HOG2       -2.1453    9.9266    1.8016 H         1 GTP         0.5087
     34 HOG3       -5.9704    8.1411    2.8082 H         1 GTP         0.5087
     35 HOB2       -0.0302    7.3128    1.1511 H         1 GTP         0.5092
     36 HOA2       -3.6542    4.1894   -0.4662 H         1 GTP         0.5041
     37 H5'        -1.1763    2.0500    0.6366 H         1 GTP         0.0584
     38 H5''       -0.2075    3.2812    1.4874 H         1 GTP         0.0584
     39 H4'         0.0402    1.7079    3.4343 H         1 GTP         0.1192
     40 H3'         1.5907    1.4859    1.1353 H         1 GTP         0.0735
     41 HO3'        2.1521    0.9800    3.3017 H         1 GTP         0.4308
     42 H2'        -0.0017    0.0018    0.0005 H         1 GTP         0.0746
     43 HO2'        2.0953   -0.9375    0.0709 H         1 GTP         0.4224
     44 H1'        -0.1998   -1.6319    2.6178 H         1 GTP         0.1162
     45 H8         -3.3837   -0.3807    1.7887 H         1 GTP         0.0741
     46 HN1        -2.0841   -5.6603   -1.6411 H         1 GTP         0.3343
     47 HN21        1.2221   -5.0911   -0.7073 H         1 GTP         0.4229
     48 HN22        0.0702   -6.0804   -1.5775 H         1 GTP         0.4229
@<TRIPOS>BOND
     1    1    2 2
     2    1    3 1
     3    1    4 1
     4    1    5 1
     5    3   33 1
     6    4   34 1
     7    5    6 1
     8    6    7 2
     9    6    8 1
    10    6    9 1
    11    8   35 1
    12    9   10 1
    13   10   11 2
    14   10   12 1
    15   10   13 1
    16   12   36 1
    17   13   14 1
    18   14   15 1
    19   14   37 1
    20   14   38 1
    21   15   16 1
    22   15   17 1
    23   15   39 1
    24   16   21 1
    25   17   18 1
    26   17   19 1
    27   17   40 1
    28   18   41 1
    29   19   20 1
    30   19   21 1
    31   19   42 1
    32   20   43 1
    33   21   22 1
    34   21   44 1
    35   22   23 ar
    36   22   32 ar
    37   23   24 ar
    38   23   45 1
    39   24   25 ar
    40   25   26 ar
    41   25   32 ar
    42   26   27 2
    43   26   28 ar
    44   28   29 ar
    45   28   46 1
    46   29   30 1
    47   29   31 ar
    48   30   47 1
    49   30   48 1
    50   31   32 ar
@<TRIPOS>SUBSTRUCTURE
     1 GTP         1 GROUP 0 A     ****
@<TRIPOS>MOLECULE
[[5-(2-amino-6-oxo-1~{H}-purin-9-yl)-3,4-dihydroxy-tetrahydrofuran-2-yl]methoxy-hydroxy-phosphoryl] phosphono hydrogen phosphate
   48    50     1     0     0
SMALL
USER_CHARGES

@<TRIPOS>ATOM
      1 PG          1.9206    5.0106   -6.9882 P.3       1 GTP         1.8160
      2 O1G         1.2451    5.6772   -8.1503 O.2       1 GTP        -0.8277
      3 O2G         3.3088    4.2590   -7.3341 O.3       1 GTP        -0.7983
      4 O3G         2.3183    5.9939   -5.7686 O.3       1 GTP        -0.7983
      5 O3B         1.0399    3.8660   -6.2629 O.3       1 GTP        -0.8272
      6 PB         -0.3965    3.9179   -5.5250 P.3       1 GTP         1.9429
      7 O1B        -0.4597    4.8436   -4.3460 O.2       1 GTP        -0.8481
      8 O2B        -1.4339    4.2507   -6.7192 O.3       1 GTP        -0.8171
      9 O3A        -0.7270    2.3681   -5.2160 O.3       1 GTP        -0.8114
     10 PA         -1.9943    1.6687   -4.4986 P.3       1 GTP         1.8017
     11 O1A        -3.3061    1.9239   -5.1824 O.2       1 GTP        -0.7846
     12 O2A        -1.5681    0.1095   -4.4325 O.3       1 GTP        -0.8074
     13 O5'        -1.9200    2.1712   -2.9623 O.3       1 GTP        -0.5669
     14 C5'        -0.7794    1.8744   -2.1748 C.3       1 GTP         0.1637
     15 C4'        -0.9699    2.4597   -0.7819 C.3       1 GTP         0.1099
     16 O4'        -2.1475    1.8640   -0.2014 O.3       1 GTP        -0.4100
     17 C3'         0.1697    2.1347    0.1695 C.3       1 GTP         0.0924
     18 O3'         0.1809    3.0982    1.2223 O.3       1 GTP        -0.5892
     19 C2'        -0.2543    0.7880    0.7187 C.3       1 GTP         0.0635
     20 O2'         0.3606    0.4944    1.9582 O.3       1 GTP        -0.5749
     21 C1'        -1.7682    0.9516    0.8548 C.3       1 GTP         0.2557
     22 N9         -2.5926   -0.2553    0.7436 N.pl3     1 GTP        -0.2236
     23 C8         -2.2188   -1.5242    1.1136 C.ar      1 GTP         0.4148
     24 N7         -3.1705   -2.4105    0.8954 N.2       1 GTP        -0.5808
     25 C5         -4.1890   -1.6749    0.3655 C.ar      1 GTP         0.1777
     26 C6         -5.4857   -2.1175   -0.0667 C.ar      1 GTP         0.6505
     27 O6         -5.8619   -3.2814   -0.0104 O.2       1 GTP        -0.5947
     28 N1         -6.2422   -1.0420   -0.5529 N.pl3     1 GTP        -0.5110
     29 C2         -5.8042    0.3021   -0.6166 C.ar      1 GTP         0.6844
     30 N2         -6.7124    1.1908   -1.1303 N.pl3     1 GTP        -0.8920
     31 N3         -4.6101    0.6789   -0.2133 N.2       1 GTP        -0.6705
     32 C4         -3.8645   -0.3441    0.2595 C.ar      1 GTP         0.1220
     33 HOG2        4.0519    4.7807   -7.7052 H         1 GTP         0.5087
     34 HOG3        1.6092    6.4936   -5.3109 H         1 GTP         0.5087
     35 HOB2       -2.3960    4.2427   -6.5281 H         1 GTP         0.5092
     36 HOA2       -2.1565   -0.5236   -3.9689 H         1 GTP         0.5041
     37 H5'        -0.6595    0.7876   -2.1196 H         1 GTP         0.0584
     38 H5''        0.1048    2.3070   -2.6539 H         1 GTP         0.0584
     39 H4'        -1.1469    3.5409   -0.8523 H         1 GTP         0.1192
     40 H3'         1.1601    2.1310   -0.2934 H         1 GTP         0.0735
     41 HO3'        0.9173    2.8584    1.8048 H         1 GTP         0.4308
     42 H2'        -0.0024   -0.0091    0.0062 H         1 GTP         0.0746
     43 HO2'        1.3225    0.4909    1.8095 H         1 GTP         0.4224
     44 H1'        -2.0584    1.4255    1.8301 H         1 GTP         0.1162
     45 H8         -1.2450   -1.7377    1.5330 H         1 GTP         0.0741
     46 HN1        -7.1805   -1.2438   -0.8866 H         1 GTP         0.3343
     47 HN21       -6.4505    2.1471   -1.1951 H         1 GTP         0.4229
     48 HN22       -7.5984    0.8452   -1.4185 H         1 GTP         0.4229
@<TRIPOS>BOND
     1    1    2 2
     2    1    3 1
     3    1    4 1
     4    1    5 1
     5    3   33 1
     6    4   34 1
     7    5    6 1
     8    6    7 2
     9    6    8 1
    10    6    9 1
    11    8   35 1
    12    9   10 1
    13   10   11 2
    14   10   12 1
    15   10   13 1
    16   12   36 1
    17   13   14 1
    18   14   15 1
    19   14   37 1
    20   14   38 1
    21   15   16 1
    22   15   17 1
    23   15   39 1
    24   16   21 1
    25   17   18 1
    26   17   19 1
    27   17   40 1
    28   18   41 1
    29   19   20 1
    30   19   21 1
    31   19   42 1
    32   20   43 1
    33   21   22 1
    34   21   44 1
    35   22   23 ar
    36   22   32 ar
    37   23   24 ar
    38   23   45 1
    39   24   25 ar
    40   25   26 ar
    41   25   32 ar
    42   26   27 2
    43   26   28 ar
    44   28   29 ar
    45   28   46 1
    46   29   30 1
    47   29   31 ar
    48   30   47 1
    49   30   48 1
    50   31   32 ar
@<TRIPOS>SUBSTRUCTURE
     1 GTP         1 GROUP 0 A     ****
@<TRIPOS>MOLECULE
[[5-(2-amino-6-oxo-1~{H}-purin-9-yl)-3,4-dihydroxy-tetrahydrofuran-2-yl]methoxy-hydroxy-phosphoryl] phosphono hydrogen phosphate
   48    50     1     0     0
SMALL
USER_CHARGES

@<TRIPOS>ATOM
      1 PG          1.9206    5.0106   -6.9882 P.3       1 GTP         1.8160
      2 O1G         1.2451    5.6772   -8.1503 O.2       1 GTP        -0.8277
      3 O2G         3.3088    4.2590   -7.3341 O.3       1 GTP        -0.7983
      4 O3G         2.3183    5.9939   -5.7686 O.3       1 GTP        -0.7983
      5 O3B         1.0399    3.8660   -6.2629 O.3       1 GTP        -0.8272
      6 PB         -0.3965    3.9179   -5.5250 P.3       1 GTP         1.9429
      7 O1B        -0.4597    4.8436   -4.3460 O.2       1 GTP        -0.8481
      8 O2B        -1.4339    4.2507   -6.7192 O.3       1 GTP        -0.8171
      9 O3A        -0.7270    2.3681   -5.2160 O.3       1 GTP        -0.8114
     10 PA         -1.9943    1.6687   -4.4986 P.3       1 GTP         1.8017
     11 O1A        -3.3061    1.9239   -5.1824 O.2       1 GTP        -0.7846
     12 O2A        -1.5681    0.1095   -4.4325 O.3       1 GTP        -0.8074
     13 O5'        -1.9200    2.1712   -2.9623 O.3       1 GTP        -0.5669
     14 C5'        -0.7794    1.8744   -2.1748 C.3       1 GTP         0.1637
     15 C4'        -0.9699    2.4597   -0.7819 C.3       1 GTP         0.1099
     16 O4'        -2.1475    1.8640   -0.2014 O.3       1 GTP        -0.4100
     17 C3'         0.1697    2.1347    0.1695 C.3       1 GTP         0.0924
     18 O3'         0.1809    3.0982    1.2223 O.3       1 GTP        -0.5892
     19 C2'        -0.2543    0.7880    0.7187 C.3       1 GTP         0.0635
     20 O2'         0.3606    0.4944    1.9582 O.3       1 GTP        -0.5749
     21 C1'        -1.7682    0.9516    0.8548 C.3       1 GTP         0.2557
     22 N9         -2.5926   -0.2553    0.7436 N.pl3     1 GTP        -0.2236
     23 C8         -2.2853   -1.3774    0.0134 C.ar      1 GTP         0.4148
     24 N7         -3.2188   -2.3045    0.1026 N.2       1 GTP        -0.5808
     25 C5         -4.1563   -1.7486    0.9220 C.ar      1 GTP         0.1777
     26 C6         -5.4005   -2.3083    1.3722 C.ar      1 GTP         0.6505
     27 O6         -5.7999   -3.4222    1.0575 O.2       1 GTP        -0.5947
     28 N1         -6.0772   -1.4091    2.2084 N.pl3     1 GTP        -0.5110
     29 C2         -5.6128   -0.1223    2.5700 C.ar      1 GTP         0.6844
     30 N2         -6.4404    0.5875    3.4005 N.pl3     1 GTP        -0.8920
     31 N3         -4.4683    0.3649    2.1422 N.2       1 GTP        -0.6705
     32 C4         -3.7999   -0.4873    1.3339 C.ar      1 GTP         0.1220
     33 HOG2        4.0519    4.7807   -7.7052 H         1 GTP         0.5087
     34 HOG3        1.6092    6.4936   -5.3109 H         1 GTP         0.5087
     35 HOB2       -2.3960    4.2427   -6.5281 H         1 GTP         0.5092
     36 HOA2       -2.1565   -0.5236   -3.9689 H         1 GTP         0.5041
     37 H5'        -0.6595    0.7876   -2.1196 H         1 GTP         0.0584
     38 H5''        0.1048    2.3070   -2.6539 H         1 GTP         0.0584
     39 H4'        -1.1469    3.5409   -0.8523 H         1 GTP         0.1192
     40 H3'         1.1601    2.1310   -0.2934 H         1 GTP         0.0735
     41 HO3'        0.9173    2.8584    1.8048 H         1 GTP         0.4308
     42 H2'        -0.0024   -0.0091    0.0062 H         1 GTP         0.0746
     43 HO2'        0.0384   -0.3797    2.2403 H         1 GTP         0.4224
     44 H1'        -2.0584    1.4255    1.8301 H         1 GTP         0.1162
     45 H8         -1.3717   -1.4583   -0.5599 H         1 GTP         0.0741
     46 HN1        -6.9732   -1.7053    2.5850 H         1 GTP         0.3343
     47 HN21       -6.1570    1.4973    3.6824 H         1 GTP         0.4229
     48 HN22       -7.2925    0.1655    3.6894 H         1 GTP         0.4229
@<TRIPOS>BOND
     1    1    2 2
     2    1    3 1
     3    1    4 1
     4    1    5 1
     5    3   33 1
     6    4   34 1
     7    5    6 1
     8    6    7 2
     9    6    8 1
    10    6    9 1
    11    8   35 1
    12    9   10 1
    13   10   11 2
    14   10   12 1
    15   10   13 1
    16   12   36 1
    17   13   14 1
    18   14   15 1
    19   14   37 1
    20   14   38 1
    21   15   16 1
    22   15   17 1
    23   15   39 1
    24   16   21 1
    25   17   18 1
    26   17   19 1
    27   17   40 1
    28   18   41 1
    29   19   20 1
    30   19   21 1
    31   19   42 1
    32   20   43 1
    33   21   22 1
    34   21   44 1
    35   22   23 ar
    36   22   32 ar
    37   23   24 ar
    38   23   45 1
    39   24   25 ar
    40   25   26 ar
    41   25   32 ar
    42   26   27 2
    43   26   28 ar
    44   28   29 ar
    45   28   46 1
    46   29   30 1
    47   29   31 ar
    48   30   47 1
    49   30   48 1
    50   31   32 ar
@<TRIPOS>SUBSTRUCTURE
     1 GTP         1 GROUP 0 A     ****
@<TRIPOS>MOLECULE
[[5-(2-amino-6-oxo-1~{H}-purin-9-yl)-3,4-dihydroxy-tetrahydrofuran-2-yl]methoxy-hydroxy-phosphoryl] phosphono hydrogen phosphate
   48    50     1     0     0
SMALL
USER_CHARGES

@<TRIPOS>ATOM
      1 PG         -5.7547    7.4173   -0.1279 P.3       1 GTP         1.8160
      2 O1G        -5.1429    8.7574   -0.4121 O.2       1 GTP        -0.8277
      3 O2G        -6.8524    7.3964    1.0580 O.3       1 GTP        -0.7983
      4 O3G        -6.5317    6.7391   -1.3725 O.3       1 GTP        -0.7983
      5 O3B        -4.6998    6.2744    0.3112 O.3       1 GTP        -0.8272
      6 PB         -3.4215    5.6401   -0.4463 P.3       1 GTP         1.9429
      7 O1B        -3.7368    4.9765   -1.7544 O.2       1 GTP        -0.8481
      8 O2B        -2.3727    6.8673   -0.5308 O.3       1 GTP        -0.8171
      9 O3A        -2.7414    4.6945    0.6717 O.3       1 GTP        -0.8114
     10 PA         -3.3131    3.4211    1.4850 P.3       1 GTP         1.8017
     11 O1A        -4.5255    3.7180    2.3189 O.2       1 GTP        -0.7846
     12 O2A        -3.5540    2.3192    0.3253 O.3       1 GTP        -0.8074
     13 O5'        -2.0398    2.8621    2.3123 O.3       1 GTP        -0.5669
     14 C5'        -0.8811    2.4285    1.6206 C.3       1 GTP         0.1637
     15 C4'        -0.1994    1.3333    2.4288 C.3       1 GTP         0.1099
     16 O4'        -1.1285    0.2356    2.5840 O.3       1 GTP        -0.4100
     17 C3'         1.0324    0.7610    1.7344 C.3       1 GTP         0.0924
     18 O3'         1.9175    0.2377    2.7247 O.3       1 GTP        -0.5892
     19 C2'         0.4468   -0.3802    0.9263 C.3       1 GTP         0.0635
     20 O2'         1.3993   -1.3703    0.5961 O.3       1 GTP        -0.5749
     21 C1'        -0.6159   -0.9100    1.8769 C.3       1 GTP         0.2557
     22 N9         -1.7127   -1.6108    1.2130 N.pl3     1 GTP        -0.2236
     23 C8         -3.0375   -1.2493    1.2452 C.ar      1 GTP         0.4148
     24 N7         -3.7986   -2.0732    0.5519 N.2       1 GTP        -0.5808
     25 C5         -2.9221   -2.9947    0.0601 C.ar      1 GTP         0.1777
     26 C6         -3.1909   -4.1355   -0.7707 C.ar      1 GTP         0.6505
     27 O6         -4.3086   -4.4427   -1.1652 O.2       1 GTP        -0.5947
     28 N1         -2.0085   -4.8320   -1.0576 N.pl3     1 GTP        -0.5110
     29 C2         -0.7182   -4.4742   -0.5998 C.ar      1 GTP         0.6844
     30 N2          0.2972   -5.3016   -1.0037 N.pl3     1 GTP        -0.8920
     31 N3         -0.5015   -3.4231    0.1607 N.2       1 GTP        -0.6705
     32 C4         -1.6297   -2.7374    0.4490 C.ar      1 GTP         0.1220
     33 HOG2       -7.6562    7.9517    0.9712 H         1 GTP         0.5087
     34 HOG3       -6.0335    6.5463   -2.1951 H         1 GTP         0.5087
     35 HOB2       -1.4702    6.6975   -0.8753 H         1 GTP         0.5092
     36 HOA2       -4.2273    2.4971   -0.3654 H         1 GTP         0.5041
     37 H5'        -1.1763    2.0500    0.6366 H         1 GTP         0.0584
     38 H5''       -0.2075    3.2812    1.4874 H         1 GTP         0.0584
     39 H4'         0.0402    1.7079    3.4343 H         1 GTP         0.1192
     40 H3'         1.5907    1.4859    1.1353 H         1 GTP         0.0735
     41 HO3'        2.6839   -0.1150    2.2479 H         1 GTP         0.4308
     42 H2'        -0.0017    0.0018    0.0005 H         1 GTP         0.0746
     43 HO2'        2.0953   -0.9375    0.0709 H         1 GTP         0.4224
     44 H1'        -0.1998   -1.6319    2.6178 H         1 GTP         0.1162
     45 H8         -3.3837   -0.3807    1.7887 H         1 GTP         0.0741
     46 HN1        -2.0841   -5.6603   -1.6411 H         1 GTP         0.3343
     47 HN21        1.2221   -5.0911   -0.7073 H         1 GTP         0.4229
     48 HN22        0.0702   -6.0804   -1.5775 H         1 GTP         0.4229
@<TRIPOS>BOND
     1    1    2 2
     2    1    3 1
     3    1    4 1
     4    1    5 1
     5    3   33 1
     6    4   34 1
     7    5    6 1
     8    6    7 2
     9    6    8 1
    10    6    9 1
    11    8   35 1
    12    9   10 1
    13   10   11 2
    14   10   12 1
    15   10   13 1
    16   12   36 1
    17   13   14 1
    18   14   15 1
    19   14   37 1
    20   14   38 1
    21   15   16 1
    22   15   17 1
    23   15   39 1
    24   16   21 1
    25   17   18 1
    26   17   19 1
    27   17   40 1
    28   18   41 1
    29   19   20 1
    30   19   21 1
    31   19   42 1
    32   20   43 1
    33   21   22 1
    34   21   44 1
    35   22   23 ar
    36   22   32 ar
    37   23   24 ar
    38   23   45 1
    39   24   25 ar
    40   25   26 ar
    41   25   32 ar
    42   26   27 2
    43   26   28 ar
    44   28   29 ar
    45   28   46 1
    46   29   30 1
    47   29   31 ar
    48   30   47 1
    49   30   48 1
    50   31   32 ar
@<TRIPOS>SUBSTRUCTURE
     1 GTP         1 GROUP 0 A     ****
@<TRIPOS>MOLECULE
[[5-(2-amino-6-oxo-1~{H}-purin-9-yl)-3,4-dihydroxy-tetrahydrofuran-2-yl]methoxy-hydroxy-phosphoryl] phosphono hydrogen phosphate
   48    50     1     0     0
SMALL
USER_CHARGES

@<TRIPOS>ATOM
      1 PG          1.1438    6.4650    1.7990 P.3       1 GTP         1.8160
      2 O1G         1.0463    7.6736    2.6827 O.2       1 GTP        -0.8277
      3 O2G         1.7225    6.7388    0.3152 O.3       1 GTP        -0.7983
      4 O3G         2.0888    5.2792    2.3590 O.3       1 GTP        -0.7983
      5 O3B        -0.2613    5.7148    1.5260 O.3       1 GTP        -0.8272
      6 PB         -1.6386    6.2202    0.8493 P.3       1 GTP         1.9429
      7 O1B        -2.2873    7.3803    1.5453 O.2       1 GTP        -0.8481
      8 O2B        -1.2393    6.4788   -0.6956 O.3       1 GTP        -0.8171
      9 O3A        -2.5313    4.8790    0.7447 O.3       1 GTP        -0.8114
     10 PA         -3.0702    3.8634    1.8796 P.3       1 GTP         1.8017
     11 O1A        -3.9589    4.5039    2.9059 O.2       1 GTP        -0.7846
     12 O2A        -3.7801    2.6911    1.0200 O.3       1 GTP        -0.8074
     13 O5'        -1.7335    3.1724    2.4745 O.3       1 GTP        -0.5669
     14 C5'        -0.8811    2.4285    1.6206 C.3       1 GTP         0.1637
     15 C4'        -0.1994    1.3333    2.4288 C.3       1 GTP         0.1099
     16 O4'        -1.1285    0.2356    2.5840 O.3       1 GTP        -0.4100
     17 C3'         1.0324    0.7610    1.7344 C.3       1 GTP         0.0924
     18 O3'         1.9175    0.2377    2.7247 O.3       1 GTP        -0.5892
     19 C2'         0.4468   -0.3802    0.9263 C.3       1 GTP         0.0635
     20 O2'         1.3993   -1.3703    0.5961 O.3       1 GTP        -0.5749
     21 C1'        -0.6159   -0.9100    1.8769 C.3       1 GTP         0.2557
     22 N9         -1.7127   -1.6108    1.2130 N.pl3     1 GTP        -0.2236
     23 C8         -2.0873   -2.9139    1.4324 C.ar      1 GTP         0.4148
     24 N7         -3.1135   -3.2727    0.6860 N.2       1 GTP        -0.5808
     25 C5         -3.4017   -2.1526   -0.0362 C.ar      1 GTP         0.1777
     26 C6         -4.4318   -1.9582   -1.0186 C.ar      1 GTP         0.6505
     27 O6         -5.2284   -2.8266   -1.3513 O.2       1 GTP        -0.5947
     28 N1         -4.3916   -0.6538   -1.5306 N.pl3     1 GTP        -0.5110
     29 C2         -3.4693    0.3474   -1.1439 C.ar      1 GTP         0.6844
     30 N2         -3.6143    1.5541   -1.7775 N.pl3     1 GTP        -0.8920
     31 N3         -2.5355    0.1410   -0.2407 N.2       1 GTP        -0.6705
     32 C4         -2.5574   -1.1117    0.2656 C.ar      1 GTP         0.1220
     33 HOG2        1.2444    7.3604   -0.2740 H         1 GTP         0.5087
     34 HOG3        1.8695    4.8638    3.2200 H         1 GTP         0.5087
     35 HOB2       -1.9455    6.7086   -1.3364 H         1 GTP         0.5092
     36 HOA2       -4.1331    1.9060    1.4900 H         1 GTP         0.5041
     37 H5'        -1.4796    1.9923    0.8143 H         1 GTP         0.0584
     38 H5''       -0.1364    3.1037    1.1869 H         1 GTP         0.0584
     39 H4'         0.0402    1.7079    3.4343 H         1 GTP         0.1192
     40 H3'         1.5907    1.4859    1.1353 H         1 GTP         0.0735
     41 HO3'        2.6839   -0.1150    2.2479 H         1 GTP         0.4308
     42 H2'        -0.0017    0.0018    0.0005 H         1 GTP         0.0746
     43 HO2'        2.0953   -0.9375    0.0709 H         1 GTP         0.4224
     44 H1'        -0.1998   -1.6319    2.6178 H         1 GTP         0.1162
     45 H8         -1.5757   -3.5474    2.1443 H         1 GTP         0.0741
     46 HN1        -5.0800   -0.4074   -2.2361 H         1 GTP         0.3343
     47 HN21       -2.9894    2.2891   -1.5392 H         1 GTP         0.4229
     48 HN22       -4.3387    1.6483   -2.4512 H         1 GTP         0.4229
@<TRIPOS>BOND
     1    1    2 2
     2    1    3 1
     3    1    4 1
     4    1    5 1
     5    3   33 1
     6    4   34 1
     7    5    6 1
     8    6    7 2
     9    6    8 1
    10    6    9 1
    11    8   35 1
    12    9   10 1
    13   10   11 2
    14   10   12 1
    15   10   13 1
    16   12   36 1
    17   13   14 1
    18   14   15 1
    19   14   37 1
    20   14   38 1
    21   15   16 1
    22   15   17 1
    23   15   39 1
    24   16   21 1
    25   17   18 1
    26   17   19 1
    27   17   40 1
    28   18   41 1
    29   19   20 1
    30   19   21 1
    31   19   42 1
    32   20   43 1
    33   21   22 1
    34   21   44 1
    35   22   23 ar
    36   22   32 ar
    37   23   24 ar
    38   23   45 1
    39   24   25 ar
    40   25   26 ar
    41   25   32 ar
    42   26   27 2
    43   26   28 ar
    44   28   29 ar
    45   28   46 1
    46   29   30 1
    47   29   31 ar
    48   30   47 1
    49   30   48 1
    50   31   32 ar
@<TRIPOS>SUBSTRUCTURE
     1 GTP         1 GROUP 0 A     ****
@<TRIPOS>MOLECULE
[[5-(2-amino-6-oxo-1~{H}-purin-9-yl)-3,4-dihydroxy-tetrahydrofuran-2-yl]methoxy-hydroxy-phosphoryl] phosphono hydrogen phosphate
   48    50     1     0     0
SMALL
USER_CHARGES

@<TRIPOS>ATOM
      1 PG          0.1180    7.5006   -2.0925 P.3       1 GTP         1.8160
      2 O1G        -0.0921    8.9716   -1.8847 O.2       1 GTP        -0.8277
      3 O2G        -0.6399    6.8684   -3.3722 O.3       1 GTP        -0.7983
      4 O3G         1.6556    7.0496   -2.3046 O.3       1 GTP        -0.7983
      5 O3B        -0.3700    6.5702   -0.8645 O.3       1 GTP        -0.8272
      6 PB         -1.8175    6.3664   -0.1765 P.3       1 GTP         1.9429
      7 O1B        -2.4107    7.6129    0.4111 O.2       1 GTP        -0.8481
      8 O2B        -2.7004    5.6616   -1.3328 O.3       1 GTP        -0.8171
      9 O3A        -1.5848    5.1480    0.8569 O.3       1 GTP        -0.8114
     10 PA         -2.5920    4.4092    1.8815 P.3       1 GTP         1.8017
     11 O1A        -3.1892    5.3162    2.9178 O.2       1 GTP        -0.7846
     12 O2A        -3.6736    3.7135    0.8999 O.3       1 GTP        -0.8074
     13 O5'        -1.7335    3.1724    2.4745 O.3       1 GTP        -0.5669
     14 C5'        -0.8811    2.4285    1.6206 C.3       1 GTP         0.1637
     15 C4'        -0.1994    1.3333    2.4288 C.3       1 GTP         0.1099
     16 O4'        -1.1285    0.2356    2.5840 O.3       1 GTP        -0.4100
     17 C3'         1.0324    0.7610    1.7344 C.3       1 GTP         0.0924
     18 O3'         1.9175    0.2377    2.7247 O.3       1 GTP        -0.5892
     19 C2'         0.4468   -0.3802    0.9263 C.3       1 GTP         0.0635
     20 O2'         1.3993   -1.3703    0.5961 O.3       1 GTP        -0.5749
     21 C1'        -0.6159   -0.9100    1.8769 C.3       1 GTP         0.2557
     22 N9         -1.7127   -1.6108    1.2130 N.pl3     1 GTP        -0.2236
     23 C8         -2.0873   -2.9139    1.4324 C.ar      1 GTP         0.4148
     24 N7         -3.1135   -3.2727    0.6860 N.2       1 GTP        -0.5808
     25 C5         -3.4017   -2.1526   -0.0362 C.ar      1 GTP         0.1777
     26 C6         -4.4318   -1.9582   -1.0186 C.ar      1 GTP         0.6505
     27 O6         -5.2284   -2.8266   -1.3513 O.2       1 GTP        -0.5947
     28 N1         -4.3916   -0.6538   -1.5306 N.pl3     1 GTP        -0.5110
     29 C2         -3.4693    0.3474   -1.1439 C.ar      1 GTP         0.6844
     30 N2         -3.6143    1.5541   -1.7775 N.pl3     1 GTP        -0.8920
     31 N3         -2.5355    0.1410   -0.2407 N.2       1 GTP        -0.6705
     32 C4         -2.5574   -1.1117    0.2656 C.ar      1 GTP         0.1220
     33 HOG2       -0.4306    7.2130   -4.2663 H         1 GTP         0.5087
     34 HOG3        2.3065    7.2326   -1.5939 H         1 GTP         0.5087
     35 HOB2       -2.9097    6.1688   -2.1458 H         1 GTP         0.5092
     36 HOA2       -4.2512    4.2846    0.3502 H         1 GTP         0.5041
     37 H5'        -1.4796    1.9923    0.8143 H         1 GTP         0.0584
     38 H5''       -0.1364    3.1037    1.1869 H         1 GTP         0.0584
     39 H4'         0.0402    1.7079    3.4343 H         1 GTP         0.1192
     40 H3'         1.5907    1.4859    1.1353 H         1 GTP         0.0735
     41 HO3'        2.6839   -0.1150    2.2479 H         1 GTP         0.4308
     42 H2'        -0.0017    0.0018    0.0005 H         1 GTP         0.0746
     43 HO2'        2.0953   -0.9375    0.0709 H         1 GTP         0.4224
     44 H1'        -0.1998   -1.6319    2.6178 H         1 GTP         0.1162
     45 H8         -1.5757   -3.5474    2.1443 H         1 GTP         0.0741
     46 HN1        -5.0800   -0.4074   -2.2361 H         1 GTP         0.3343
     47 HN21       -4.3388    1.6481   -2.4511 H         1 GTP         0.4229
     48 HN22       -2.9895    2.2892   -1.5394 H         1 GTP         0.4229
@<TRIPOS>BOND
     1    1    2 2
     2    1    3 1
     3    1    4 1
     4    1    5 1
     5    3   33 1
     6    4   34 1
     7    5    6 1
     8    6    7 2
     9    6    8 1
    10    6    9 1
    11    8   35 1
    12    9   10 1
    13   10   11 2
    14   10   12 1
    15   10   13 1
    16   12   36 1
    17   13   14 1
    18   14   15 1
    19   14   37 1
    20   14   38 1
    21   15   16 1
    22   15   17 1
    23   15   39 1
    24   16   21 1
    25   17   18 1
    26   17   19 1
    27   17   40 1
    28   18   41 1
    29   19   20 1
    30   19   21 1
    31   19   42 1
    32   20   43 1
    33   21   22 1
    34   21   44 1
    35   22   23 ar
    36   22   32 ar
    37   23   24 ar
    38   23   45 1
    39   24   25 ar
    40   25   26 ar
    41   25   32 ar
    42   26   27 2
    43   26   28 ar
    44   28   29 ar
    45   28   46 1
    46   29   30 1
    47   29   31 ar
    48   30   47 1
    49   30   48 1
    50   31   32 ar
@<TRIPOS>SUBSTRUCTURE
     1 GTP         1 GROUP 0 A     ****
@<TRIPOS>MOLECULE
[[5-(2-amino-6-oxo-1~{H}-purin-9-yl)-3,4-dihydroxy-tetrahydrofuran-2-yl]methoxy-hydroxy-phosphoryl] phosphono hydrogen phosphate
   48    50     1     0     0
SMALL
USER_CHARGES

@<TRIPOS>ATOM
      1 PG          2.6202   -3.3490   -3.3800 P.3       1 GTP         1.8160
      2 O1G         2.8059   -3.6364   -1.9191 O.2       1 GTP        -0.8277
      3 O2G         3.9835   -3.2336   -4.2401 O.3       1 GTP        -0.7983
      4 O3G         1.7547   -4.4469   -4.1914 O.3       1 GTP        -0.7983
      5 O3B         1.8500   -1.9653   -3.7019 O.3       1 GTP        -0.8272
      6 PB          2.1995   -0.4292   -3.3434 P.3       1 GTP         1.9429
      7 O1B         2.3014   -0.1384   -1.8750 O.2       1 GTP        -0.8481
      8 O2B         3.5359   -0.1256   -4.2007 O.3       1 GTP        -0.8171
      9 O3A         1.0853    0.4174   -4.1486 O.3       1 GTP        -0.8114
     10 PA          0.8237    2.0080   -4.2558 P.3       1 GTP         1.8017
     11 O1A         1.9775    2.7842   -4.8213 O.2       1 GTP        -0.7846
     12 O2A        -0.5354    2.1015   -5.1282 O.3       1 GTP        -0.8074
     13 O5'         0.3750    2.4476   -2.7645 O.3       1 GTP        -0.5669
     14 C5'        -0.7794    1.8744   -2.1748 C.3       1 GTP         0.1637
     15 C4'        -0.9699    2.4597   -0.7819 C.3       1 GTP         0.1099
     16 O4'        -2.1475    1.8640   -0.2014 O.3       1 GTP        -0.4100
     17 C3'         0.1697    2.1347    0.1695 C.3       1 GTP         0.0924
     18 O3'         0.1809    3.0982    1.2223 O.3       1 GTP        -0.5892
     19 C2'        -0.2543    0.7880    0.7187 C.3       1 GTP         0.0635
     20 O2'         0.3606    0.4944    1.9582 O.3       1 GTP        -0.5749
     21 C1'        -1.7682    0.9516    0.8548 C.3       1 GTP         0.2557
     22 N9         -2.5926   -0.2553    0.7436 N.pl3     1 GTP        -0.2236
     23 C8         -2.2188   -1.5242    1.1136 C.ar      1 GTP         0.4148
     24 N7         -3.1705   -2.4105    0.8954 N.2       1 GTP        -0.5808
     25 C5         -4.1890   -1.6749    0.3655 C.ar      1 GTP         0.1777
     26 C6         -5.4857   -2.1175   -0.0667 C.ar      1 GTP         0.6505
     27 O6         -5.8619   -3.2814   -0.0104 O.2       1 GTP        -0.5947
     28 N1         -6.2422   -1.0420   -0.5529 N.pl3     1 GTP        -0.5110
     29 C2         -5.8042    0.3021   -0.6166 C.ar      1 GTP         0.6844
     30 N2         -6.7124    1.1908   -1.1303 N.pl3     1 GTP        -0.8920
     31 N3         -4.6101    0.6789   -0.2133 N.2       1 GTP        -0.6705
     32 C4         -3.8645   -0.3441    0.2595 C.ar      1 GTP         0.1220
     33 HOG2        4.6408   -2.5467   -3.9988 H         1 GTP         0.5087
     34 HOG3        2.0732   -5.3740   -4.2225 H         1 GTP         0.5087
     35 HOB2        3.8922    0.7881   -4.2166 H         1 GTP         0.5092
     36 HOA2       -0.9448    2.9805   -5.2756 H         1 GTP         0.5041
     37 H5'        -1.6469    2.0965   -2.8047 H         1 GTP         0.0584
     38 H5''       -0.6476    0.7890   -2.1189 H         1 GTP         0.0584
     39 H4'        -1.1469    3.5409   -0.8523 H         1 GTP         0.1192
     40 H3'         1.1601    2.1310   -0.2934 H         1 GTP         0.0735
     41 HO3'        0.9173    2.8584    1.8048 H         1 GTP         0.4308
     42 H2'        -0.0024   -0.0091    0.0062 H         1 GTP         0.0746
     43 HO2'        1.3225    0.4909    1.8095 H         1 GTP         0.4224
     44 H1'        -2.0584    1.4255    1.8301 H         1 GTP         0.1162
     45 H8         -1.2450   -1.7377    1.5330 H         1 GTP         0.0741
     46 HN1        -7.1805   -1.2438   -0.8866 H         1 GTP         0.3343
     47 HN21       -6.4505    2.1471   -1.1951 H         1 GTP         0.4229
     48 HN22       -7.5984    0.8452   -1.4185 H         1 GTP         0.4229
@<TRIPOS>BOND
     1    1    2 2
     2    1    3 1
     3    1    4 1
     4    1    5 1
     5    3   33 1
     6    4   34 1
     7    5    6 1
     8    6    7 2
     9    6    8 1
    10    6    9 1
    11    8   35 1
    12    9   10 1
    13   10   11 2
    14   10   12 1
    15   10   13 1
    16   12   36 1
    17   13   14 1
    18   14   15 1
    19   14   37 1
    20   14   38 1
    21   15   16 1
    22   15   17 1
    23   15   39 1
    24   16   21 1
    25   17   18 1
    26   17   19 1
    27   17   40 1
    28   18   41 1
    29   19   20 1
    30   19   21 1
    31   19   42 1
    32   20   43 1
    33   21   22 1
    34   21   44 1
    35   22   23 ar
    36   22   32 ar
    37   23   24 ar
    38   23   45 1
    39   24   25 ar
    40   25   26 ar
    41   25   32 ar
    42   26   27 2
    43   26   28 ar
    44   28   29 ar
    45   28   46 1
    46   29   30 1
    47   29   31 ar
    48   30   47 1
    49   30   48 1
    50   31   32 ar
@<TRIPOS>SUBSTRUCTURE
     1 GTP         1 GROUP 0 A     ****
@<TRIPOS>MOLECULE
[[5-(2-amino-6-oxo-1~{H}-purin-9-yl)-3,4-dihydroxy-tetrahydrofuran-2-yl]methoxy-hydroxy-phosphoryl] phosphono hydrogen phosphate
   48    50     1     0     0
SMALL
USER_CHARGES

@<TRIPOS>ATOM
      1 PG          2.6202   -3.3490   -3.3800 P.3       1 GTP         1.8160
      2 O1G         4.0083   -3.4378   -3.9425 O.2       1 GTP        -0.8277
      3 O2G         1.5921   -4.4845   -3.8950 O.3       1 GTP        -0.7983
      4 O3G         2.5235   -3.4556   -1.7700 O.3       1 GTP        -0.7983
      5 O3B         1.8500   -1.9653   -3.7019 O.3       1 GTP        -0.8272
      6 PB          2.1995   -0.4292   -3.3434 P.3       1 GTP         1.9429
      7 O1B         2.3014   -0.1384   -1.8750 O.2       1 GTP        -0.8481
      8 O2B         3.5359   -0.1256   -4.2007 O.3       1 GTP        -0.8171
      9 O3A         1.0853    0.4174   -4.1486 O.3       1 GTP        -0.8114
     10 PA          0.8237    2.0080   -4.2558 P.3       1 GTP         1.8017
     11 O1A         1.9775    2.7842   -4.8213 O.2       1 GTP        -0.7846
     12 O2A        -0.5354    2.1015   -5.1282 O.3       1 GTP        -0.8074
     13 O5'         0.3750    2.4476   -2.7645 O.3       1 GTP        -0.5669
     14 C5'        -0.7794    1.8744   -2.1748 C.3       1 GTP         0.1637
     15 C4'        -0.9699    2.4597   -0.7819 C.3       1 GTP         0.1099
     16 O4'        -2.1475    1.8640   -0.2014 O.3       1 GTP        -0.4100
     17 C3'         0.1697    2.1347    0.1695 C.3       1 GTP         0.0924
     18 O3'         0.1809    3.0982    1.2223 O.3       1 GTP        -0.5892
     19 C2'        -0.2543    0.7880    0.7187 C.3       1 GTP         0.0635
     20 O2'         0.3606    0.4944    1.9582 O.3       1 GTP        -0.5749
     21 C1'        -1.7682    0.9516    0.8548 C.3       1 GTP         0.2557
     22 N9         -2.5926   -0.2553    0.7436 N.pl3     1 GTP        -0.2236
     23 C8         -2.1292   -1.5330    0.5451 C.ar      1 GTP         0.4148
     24 N7         -3.1061   -2.4167    0.4857 N.2       1 GTP        -0.5808
     25 C5         -4.2348   -1.6702    0.6529 C.ar      1 GTP         0.1777
     26 C6         -5.6038   -2.1053    0.6765 C.ar      1 GTP         0.6505
     27 O6         -5.9501   -3.2720    0.5410 O.2       1 GTP        -0.5947
     28 N1         -6.4680   -1.0192    0.8736 N.pl3     1 GTP        -0.5110
     29 C2         -6.0643    0.3281    1.0298 C.ar      1 GTP         0.6844
     30 N2         -7.0824    1.2278    1.2106 N.pl3     1 GTP        -0.8920
     31 N3         -4.8022    0.6979    1.0037 N.2       1 GTP        -0.6705
     32 C4         -3.9522   -0.3354    0.8146 C.ar      1 GTP         0.1220
     33 HOG2        1.8009   -5.4274   -3.7238 H         1 GTP         0.5087
     34 HOG3        2.9903   -2.7900   -1.2212 H         1 GTP         0.5087
     35 HOB2        4.3634   -0.6010   -3.9741 H         1 GTP         0.5092
     36 HOA2       -0.9448    2.9805   -5.2756 H         1 GTP         0.5041
     37 H5'        -1.6469    2.0965   -2.8047 H         1 GTP         0.0584
     38 H5''       -0.6476    0.7890   -2.1189 H         1 GTP         0.0584
     39 H4'        -1.1469    3.5409   -0.8523 H         1 GTP         0.1192
     40 H3'         1.1601    2.1310   -0.2934 H         1 GTP         0.0735
     41 HO3'        0.9173    2.8584    1.8048 H         1 GTP         0.4308
     42 H2'        -0.0024   -0.0091    0.0062 H         1 GTP         0.0746
     43 HO2'        1.3225    0.4909    1.8095 H         1 GTP         0.4224
     44 H1'        -2.0584    1.4255    1.8301 H         1 GTP         0.1162
     45 H8         -1.0747   -1.7545    0.4515 H         1 GTP         0.0741
     46 HN1        -7.4645   -1.2151    0.9069 H         1 GTP         0.3343
     47 HN21       -6.8484    2.1867    1.3250 H         1 GTP         0.4229
     48 HN22       -8.0158    0.8871    1.2204 H         1 GTP         0.4229
@<TRIPOS>BOND
     1    1    2 2
     2    1    3 1
     3    1    4 1
     4    1    5 1
     5    3   33 1
     6    4   34 1
     7    5    6 1
     8    6    7 2
     9    6    8 1
    10    6    9 1
    11    8   35 1
    12    9   10 1
    13   10   11 2
    14   10   12 1
    15   10   13 1
    16   12   36 1
    17   13   14 1
    18   14   15 1
    19   14   37 1
    20   14   38 1
    21   15   16 1
    22   15   17 1
    23   15   39 1
    24   16   21 1
    25   17   18 1
    26   17   19 1
    27   17   40 1
    28   18   41 1
    29   19   20 1
    30   19   21 1
    31   19   42 1
    32   20   43 1
    33   21   22 1
    34   21   44 1
    35   22   23 ar
    36   22   32 ar
    37   23   24 ar
    38   23   45 1
    39   24   25 ar
    40   25   26 ar
    41   25   32 ar
    42   26   27 2
    43   26   28 ar
    44   28   29 ar
    45   28   46 1
    46   29   30 1
    47   29   31 ar
    48   30   47 1
    49   30   48 1
    50   31   32 ar
@<TRIPOS>SUBSTRUCTURE
     1 GTP         1 GROUP 0 A     ****
@<TRIPOS>MOLECULE
[[5-(2-amino-6-oxo-1~{H}-purin-9-yl)-3,4-dihydroxy-tetrahydrofuran-2-yl]methoxy-hydroxy-phosphoryl] phosphono hydrogen phosphate
   48    50     1     0     0
SMALL
USER_CHARGES

@<TRIPOS>ATOM
      1 PG         -1.9796    6.5103   -3.1379 P.3       1 GTP         1.8160
      2 O1G        -2.8426    7.7323   -3.2521 O.2       1 GTP        -0.8277
      3 O2G        -2.2719    5.3537   -4.2281 O.3       1 GTP        -0.7983
      4 O3G        -0.3918    6.7745   -3.2855 O.3       1 GTP        -0.7983
      5 O3B        -2.0917    5.7360   -1.7238 O.3       1 GTP        -0.8272
      6 PB         -3.3424    5.0437   -0.9709 P.3       1 GTP         1.9429
      7 O1B        -4.4751    5.9756   -0.6557 O.2       1 GTP        -0.8481
      8 O2B        -3.7229    3.7929   -1.9216 O.3       1 GTP        -0.8171
      9 O3A        -2.6685    4.3073    0.2980 O.3       1 GTP        -0.8114
     10 PA         -3.3131    3.4211    1.4850 P.3       1 GTP         1.8017
     11 O1A        -4.3319    4.1496    2.3125 O.2       1 GTP        -0.7846
     12 O2A        -3.8882    2.1240    0.7078 O.3       1 GTP        -0.8074
     13 O5'        -2.0398    2.8621    2.3123 O.3       1 GTP        -0.5669
     14 C5'        -0.8811    2.4285    1.6206 C.3       1 GTP         0.1637
     15 C4'        -0.1994    1.3333    2.4288 C.3       1 GTP         0.1099
     16 O4'        -1.1285    0.2356    2.5840 O.3       1 GTP        -0.4100
     17 C3'         1.0324    0.7610    1.7344 C.3       1 GTP         0.0924
     18 O3'         1.9175    0.2377    2.7247 O.3       1 GTP        -0.5892
     19 C2'         0.4468   -0.3802    0.9263 C.3       1 GTP         0.0635
     20 O2'         1.3993   -1.3703    0.5961 O.3       1 GTP        -0.5749
     21 C1'        -0.6159   -0.9100    1.8769 C.3       1 GTP         0.2557
     22 N9         -1.7127   -1.6108    1.2130 N.pl3     1 GTP        -0.2236
     23 C8         -3.0375   -1.2493    1.2452 C.ar      1 GTP         0.4148
     24 N7         -3.7986   -2.0732    0.5519 N.2       1 GTP        -0.5808
     25 C5         -2.9221   -2.9947    0.0601 C.ar      1 GTP         0.1777
     26 C6         -3.1909   -4.1355   -0.7707 C.ar      1 GTP         0.6505
     27 O6         -4.3086   -4.4427   -1.1652 O.2       1 GTP        -0.5947
     28 N1         -2.0085   -4.8320   -1.0576 N.pl3     1 GTP        -0.5110
     29 C2         -0.7182   -4.4742   -0.5998 C.ar      1 GTP         0.6844
     30 N2          0.2972   -5.3016   -1.0037 N.pl3     1 GTP        -0.8920
     31 N3         -0.5015   -3.4231    0.1607 N.2       1 GTP        -0.6705
     32 C4         -1.6297   -2.7374    0.4490 C.ar      1 GTP         0.1220
     33 HOG2       -2.1710    5.5627   -5.1811 H         1 GTP         0.5087
     34 HOG3        0.0507    7.3756   -2.6491 H         1 GTP         0.5087
     35 HOB2       -4.0739    3.9694   -2.8204 H         1 GTP         0.5092
     36 HOA2       -4.6162    2.2428    0.0614 H         1 GTP         0.5041
     37 H5'        -1.1763    2.0500    0.6366 H         1 GTP         0.0584
     38 H5''       -0.2075    3.2812    1.4874 H         1 GTP         0.0584
     39 H4'         0.0402    1.7079    3.4343 H         1 GTP         0.1192
     40 H3'         1.5907    1.4859    1.1353 H         1 GTP         0.0735
     41 HO3'        2.6839   -0.1150    2.2479 H         1 GTP         0.4308
     42 H2'        -0.0017    0.0018    0.0005 H         1 GTP         0.0746
     43 HO2'        2.0953   -0.9375    0.0709 H         1 GTP         0.4224
     44 H1'        -0.1998   -1.6319    2.6178 H         1 GTP         0.1162
     45 H8         -3.3837   -0.3807    1.7887 H         1 GTP         0.0741
     46 HN1        -2.0841   -5.6603   -1.6411 H         1 GTP         0.3343
     47 HN21        0.0700   -6.0804   -1.5774 H         1 GTP         0.4229
     48 HN22        1.2222   -5.0913   -0.7074 H         1 GTP         0.4229
@<TRIPOS>BOND
     1    1    2 2
     2    1    3 1
     3    1    4 1
     4    1    5 1
     5    3   33 1
     6    4   34 1
     7    5    6 1
     8    6    7 2
     9    6    8 1
    10    6    9 1
    11    8   35 1
    12    9   10 1
    13   10   11 2
    14   10   12 1
    15   10   13 1
    16   12   36 1
    17   13   14 1
    18   14   15 1
    19   14   37 1
    20   14   38 1
    21   15   16 1
    22   15   17 1
    23   15   39 1
    24   16   21 1
    25   17   18 1
    26   17   19 1
    27   17   40 1
    28   18   41 1
    29   19   20 1
    30   19   21 1
    31   19   42 1
    32   20   43 1
    33   21   22 1
    34   21   44 1
    35   22   23 ar
    36   22   32 ar
    37   23   24 ar
    38   23   45 1
    39   24   25 ar
    40   25   26 ar
    41   25   32 ar
    42   26   27 2
    43   26   28 ar
    44   28   29 ar
    45   28   46 1
    46   29   30 1
    47   29   31 ar
    48   30   47 1
    49   30   48 1
    50   31   32 ar
@<TRIPOS>SUBSTRUCTURE
     1 GTP         1 GROUP 0 A     ****
@<TRIPOS>MOLECULE
[[5-(2-amino-6-oxo-1~{H}-purin-9-yl)-3,4-dihydroxy-tetrahydrofuran-2-yl]methoxy-hydroxy-phosphoryl] phosphono hydrogen phosphate
   48    50     1     0     0
SMALL
USER_CHARGES

@<TRIPOS>ATOM
      1 PG         -5.4743    4.4589    2.4832 P.3       1 GTP         1.8160
      2 O1G        -5.3610    3.6604    3.7484 O.2       1 GTP        -0.8277
      3 O2G        -6.7363    5.4658    2.4123 O.3       1 GTP        -0.7983
      4 O3G        -4.2115    5.4142    2.1586 O.3       1 GTP        -0.7983
      5 O3B        -5.6187    3.5740    1.1386 O.3       1 GTP        -0.8272
      6 PB         -4.6519    2.4660    0.4692 P.3       1 GTP         1.9429
      7 O1B        -4.3761    1.2726    1.3356 O.2       1 GTP        -0.8481
      8 O2B        -5.3584    2.1407   -0.9479 O.3       1 GTP        -0.8171
      9 O3A        -3.3556    3.3123    0.0109 O.3       1 GTP        -0.8114
     10 PA         -1.9903    2.8602   -0.7249 P.3       1 GTP         1.8017
     11 O1A        -2.1965    2.2397   -2.0762 O.2       1 GTP        -0.7846
     12 O2A        -1.1115    4.2183   -0.7411 O.3       1 GTP        -0.8074
     13 O5'        -1.2435    1.9109    0.3518 O.3       1 GTP        -0.5669
     14 C5'        -0.8811    2.4285    1.6206 C.3       1 GTP         0.1637
     15 C4'        -0.1994    1.3333    2.4288 C.3       1 GTP         0.1099
     16 O4'        -1.1285    0.2356    2.5840 O.3       1 GTP        -0.4100
     17 C3'         1.0324    0.7610    1.7344 C.3       1 GTP         0.0924
     18 O3'         1.9175    0.2377    2.7247 O.3       1 GTP        -0.5892
     19 C2'         0.4468   -0.3802    0.9263 C.3       1 GTP         0.0635
     20 O2'         1.3993   -1.3703    0.5961 O.3       1 GTP        -0.5749
     21 C1'        -0.6159   -0.9100    1.8769 C.3       1 GTP         0.2557
     22 N9         -1.7127   -1.6108    1.2130 N.pl3     1 GTP        -0.2236
     23 C8         -2.5489   -1.0812    0.2607 C.ar      1 GTP         0.4148
     24 N7         -3.4468   -1.9516   -0.1576 N.2       1 GTP        -0.5808
     25 C5         -3.1696   -3.0787    0.5579 C.ar      1 GTP         0.1777
     26 C6         -3.8307   -4.3536    0.5166 C.ar      1 GTP         0.6505
     27 O6         -4.7841   -4.6033   -0.2101 O.2       1 GTP        -0.5947
     28 N1         -3.2356   -5.2522    1.4132 N.pl3     1 GTP        -0.5110
     29 C2         -2.1338   -4.9602    2.2517 C.ar      1 GTP         0.6844
     30 N2         -1.7156   -5.9923    3.0507 N.pl3     1 GTP        -0.8920
     31 N3         -1.5477   -3.7827    2.2686 N.2       1 GTP        -0.6705
     32 C4         -2.1070   -2.9013    1.4104 C.ar      1 GTP         0.1220
     33 HOG2       -6.8173    6.1743    3.0857 H         1 GTP         0.5087
     34 HOG3       -3.3259    5.0082    2.0445 H         1 GTP         0.5087
     35 HOB2       -6.2357    1.7020   -0.9512 H         1 GTP         0.5092
     36 HOA2       -0.1928    4.1846   -1.0828 H         1 GTP         0.5041
     37 H5'        -0.2032    3.2762    1.4774 H         1 GTP         0.0584
     38 H5''       -1.7839    2.7763    2.1329 H         1 GTP         0.0584
     39 H4'         0.0402    1.7079    3.4343 H         1 GTP         0.1192
     40 H3'         1.5907    1.4859    1.1353 H         1 GTP         0.0735
     41 HO3'        2.6839   -0.1150    2.2479 H         1 GTP         0.4308
     42 H2'        -0.0017    0.0018    0.0005 H         1 GTP         0.0746
     43 HO2'        2.0953   -0.9375    0.0709 H         1 GTP         0.4224
     44 H1'        -0.1998   -1.6319    2.6178 H         1 GTP         0.1162
     45 H8         -2.4545   -0.0604   -0.0844 H         1 GTP         0.0741
     46 HN1        -3.6270   -6.1884    1.4651 H         1 GTP         0.3343
     47 HN21       -0.9445   -5.8354    3.6574 H         1 GTP         0.4229
     48 HN22       -2.1993   -6.8585    2.9930 H         1 GTP         0.4229
@<TRIPOS>BOND
     1    1    2 2
     2    1    3 1
     3    1    4 1
     4    1    5 1
     5    3   33 1
     6    4   34 1
     7    5    6 1
     8    6    7 2
     9    6    8 1
    10    6    9 1
    11    8   35 1
    12    9   10 1
    13   10   11 2
    14   10   12 1
    15   10   13 1
    16   12   36 1
    17   13   14 1
    18   14   15 1
    19   14   37 1
    20   14   38 1
    21   15   16 1
    22   15   17 1
    23   15   39 1
    24   16   21 1
    25   17   18 1
    26   17   19 1
    27   17   40 1
    28   18   41 1
    29   19   20 1
    30   19   21 1
    31   19   42 1
    32   20   43 1
    33   21   22 1
    34   21   44 1
    35   22   23 ar
    36   22   32 ar
    37   23   24 ar
    38   23   45 1
    39   24   25 ar
    40   25   26 ar
    41   25   32 ar
    42   26   27 2
    43   26   28 ar
    44   28   29 ar
    45   28   46 1
    46   29   30 1
    47   29   31 ar
    48   30   47 1
    49   30   48 1
    50   31   32 ar
@<TRIPOS>SUBSTRUCTURE
     1 GTP         1 GROUP 0 A     ****
@<TRIPOS>MOLECULE
[[5-(2-amino-6-oxo-1~{H}-purin-9-yl)-3,4-dihydroxy-tetrahydrofuran-2-yl]methoxy-hydroxy-phosphoryl] phosphono hydrogen phosphate
   48    50     1     0     0
SMALL
USER_CHARGES

@<TRIPOS>ATOM
      1 PG         -0.3027    7.2471   -3.6844 P.3       1 GTP         1.8160
      2 O1G        -1.5046    8.1307   -3.8447 O.2       1 GTP        -0.8277
      3 O2G         0.0403    6.3099   -4.9556 O.3       1 GTP        -0.7983
      4 O3G         1.0872    8.0227   -3.4023 O.3       1 GTP        -0.7983
      5 O3B        -0.3940    6.2015   -2.4556 O.3       1 GTP        -0.8272
      6 PB         -1.4356    5.0101   -2.1300 P.3       1 GTP         1.9429
      7 O1B        -2.8620    5.4509   -1.9821 O.2       1 GTP        -0.8481
      8 O2B        -1.1661    3.9290   -3.3012 O.3       1 GTP        -0.8171
      9 O3A        -0.7927    4.2773   -0.8431 O.3       1 GTP        -0.8114
     10 PA         -0.4423    4.8273    0.6350 P.3       1 GTP         1.8017
     11 O1A         0.5440    5.9589    0.6521 O.2       1 GTP        -0.7846
     12 O2A        -1.8939    5.1976    1.2457 O.3       1 GTP        -0.8074
     13 O5'         0.0173    3.5130    1.4593 O.3       1 GTP        -0.5669
     14 C5'        -0.8811    2.4285    1.6206 C.3       1 GTP         0.1637
     15 C4'        -0.1994    1.3333    2.4288 C.3       1 GTP         0.1099
     16 O4'        -1.1285    0.2356    2.5840 O.3       1 GTP        -0.4100
     17 C3'         1.0324    0.7610    1.7344 C.3       1 GTP         0.0924
     18 O3'         1.9175    0.2377    2.7247 O.3       1 GTP        -0.5892
     19 C2'         0.4468   -0.3802    0.9263 C.3       1 GTP         0.0635
     20 O2'         1.3993   -1.3703    0.5961 O.3       1 GTP        -0.5749
     21 C1'        -0.6159   -0.9100    1.8769 C.3       1 GTP         0.2557
     22 N9         -1.7127   -1.6108    1.2130 N.pl3     1 GTP        -0.2236
     23 C8         -3.0375   -1.2493    1.2452 C.ar      1 GTP         0.4148
     24 N7         -3.7986   -2.0732    0.5519 N.2       1 GTP        -0.5808
     25 C5         -2.9221   -2.9947    0.0601 C.ar      1 GTP         0.1777
     26 C6         -3.1909   -4.1355   -0.7707 C.ar      1 GTP         0.6505
     27 O6         -4.3086   -4.4427   -1.1652 O.2       1 GTP        -0.5947
     28 N1         -2.0085   -4.8320   -1.0576 N.pl3     1 GTP        -0.5110
     29 C2         -0.7182   -4.4742   -0.5998 C.ar      1 GTP         0.6844
     30 N2          0.2972   -5.3016   -1.0037 N.pl3     1 GTP        -0.8920
     31 N3         -0.5015   -3.4231    0.1607 N.2       1 GTP        -0.6705
     32 C4         -1.6297   -2.7374    0.4490 C.ar      1 GTP         0.1220
     33 HOG2       -0.6276    5.6596   -5.2604 H         1 GTP         0.5087
     34 HOG3        1.4153    8.6658   -4.0663 H         1 GTP         0.5087
     35 HOB2       -1.6250    3.0630   -3.2625 H         1 GTP         0.5092
     36 HOA2       -2.4143    5.9167    0.8287 H         1 GTP         0.5041
     37 H5'        -1.7774    2.7844    2.1388 H         1 GTP         0.0584
     38 H5''       -1.1657    2.0536    0.6322 H         1 GTP         0.0584
     39 H4'         0.0402    1.7079    3.4343 H         1 GTP         0.1192
     40 H3'         1.5907    1.4859    1.1353 H         1 GTP         0.0735
     41 HO3'        2.6839   -0.1150    2.2479 H         1 GTP         0.4308
     42 H2'        -0.0017    0.0018    0.0005 H         1 GTP         0.0746
     43 HO2'        2.0953   -0.9375    0.0709 H         1 GTP         0.4224
     44 H1'        -0.1998   -1.6319    2.6178 H         1 GTP         0.1162
     45 H8         -3.3837   -0.3807    1.7887 H         1 GTP         0.0741
     46 HN1        -2.0841   -5.6603   -1.6411 H         1 GTP         0.3343
     47 HN21        1.2221   -5.0911   -0.7073 H         1 GTP         0.4229
     48 HN22        0.0702   -6.0804   -1.5775 H         1 GTP         0.4229
@<TRIPOS>BOND
     1    1    2 2
     2    1    3 1
     3    1    4 1
     4    1    5 1
     5    3   33 1
     6    4   34 1
     7    5    6 1
     8    6    7 2
     9    6    8 1
    10    6    9 1
    11    8   35 1
    12    9   10 1
    13   10   11 2
    14   10   12 1
    15   10   13 1
    16   12   36 1
    17   13   14 1
    18   14   15 1
    19   14   37 1
    20   14   38 1
    21   15   16 1
    22   15   17 1
    23   15   39 1
    24   16   21 1
    25   17   18 1
    26   17   19 1
    27   17   40 1
    28   18   41 1
    29   19   20 1
    30   19   21 1
    31   19   42 1
    32   20   43 1
    33   21   22 1
    34   21   44 1
    35   22   23 ar
    36   22   32 ar
    37   23   24 ar
    38   23   45 1
    39   24   25 ar
    40   25   26 ar
    41   25   32 ar
    42   26   27 2
    43   26   28 ar
    44   28   29 ar
    45   28   46 1
    46   29   30 1
    47   29   31 ar
    48   30   47 1
    49   30   48 1
    50   31   32 ar
@<TRIPOS>SUBSTRUCTURE
     1 GTP         1 GROUP 0 A     ****
@<TRIPOS>MOLECULE
[[5-(2-amino-6-oxo-1~{H}-purin-9-yl)-3,4-dihydroxy-tetrahydrofuran-2-yl]methoxy-hydroxy-phosphoryl] phosphono hydrogen phosphate
   48    50     1     0     0
SMALL
USER_CHARGES

@<TRIPOS>ATOM
      1 PG          0.5297    8.4847   -0.6360 P.3       1 GTP         1.8160
      2 O1G         0.2441    8.4027   -2.1067 O.2       1 GTP        -0.8277
      3 O2G         2.0948    8.4630   -0.2339 O.3       1 GTP        -0.7983
      4 O3G        -0.0298    9.8109    0.0994 O.3       1 GTP        -0.7983
      5 O3B        -0.1044    7.2849    0.2414 O.3       1 GTP        -0.8272
      6 PB         -1.6304    6.8036    0.4646 P.3       1 GTP         1.9429
      7 O1B        -2.5314    7.8425    1.0646 O.2       1 GTP        -0.8481
      8 O2B        -2.0807    6.2568   -0.9885 O.3       1 GTP        -0.8171
      9 O3A        -1.4833    5.4343    1.3071 O.3       1 GTP        -0.8114
     10 PA         -2.5920    4.4092    1.8815 P.3       1 GTP         1.8017
     11 O1A        -3.5580    5.0276    2.8499 O.2       1 GTP        -0.7846
     12 O2A        -3.2774    3.8166    0.5413 O.3       1 GTP        -0.8074
     13 O5'        -1.7335    3.1724    2.4745 O.3       1 GTP        -0.5669
     14 C5'        -0.8811    2.4285    1.6206 C.3       1 GTP         0.1637
     15 C4'        -0.1994    1.3333    2.4288 C.3       1 GTP         0.1099
     16 O4'        -1.1285    0.2356    2.5840 O.3       1 GTP        -0.4100
     17 C3'         1.0324    0.7610    1.7344 C.3       1 GTP         0.0924
     18 O3'         1.9175    0.2377    2.7247 O.3       1 GTP        -0.5892
     19 C2'         0.4468   -0.3802    0.9263 C.3       1 GTP         0.0635
     20 O2'         1.3993   -1.3703    0.5961 O.3       1 GTP        -0.5749
     21 C1'        -0.6159   -0.9100    1.8769 C.3       1 GTP         0.2557
     22 N9         -1.7127   -1.6108    1.2130 N.pl3     1 GTP        -0.2236
     23 C8         -3.0375   -1.2493    1.2452 C.ar      1 GTP         0.4148
     24 N7         -3.7986   -2.0732    0.5519 N.2       1 GTP        -0.5808
     25 C5         -2.9221   -2.9947    0.0601 C.ar      1 GTP         0.1777
     26 C6         -3.1909   -4.1355   -0.7707 C.ar      1 GTP         0.6505
     27 O6         -4.3086   -4.4427   -1.1652 O.2       1 GTP        -0.5947
     28 N1         -2.0085   -4.8320   -1.0576 N.pl3     1 GTP        -0.5110
     29 C2         -0.7182   -4.4742   -0.5998 C.ar      1 GTP         0.6844
     30 N2          0.2972   -5.3016   -1.0037 N.pl3     1 GTP        -0.8920
     31 N3         -0.5015   -3.4231    0.1607 N.2       1 GTP        -0.6705
     32 C4         -1.6297   -2.7374    0.4490 C.ar      1 GTP         0.1220
     33 HOG2        2.6390    7.6865   -0.4847 H         1 GTP         0.5087
     34 HOG3       -0.9940    9.9902    0.0862 H         1 GTP         0.5087
     35 HOB2       -2.1539    6.8915   -1.7327 H         1 GTP         0.5092
     36 HOA2       -3.7783    4.4241   -0.0435 H         1 GTP         0.5041
     37 H5'        -1.4796    1.9923    0.8143 H         1 GTP         0.0584
     38 H5''       -0.1364    3.1037    1.1869 H         1 GTP         0.0584
     39 H4'         0.0402    1.7079    3.4343 H         1 GTP         0.1192
     40 H3'         1.5907    1.4859    1.1353 H         1 GTP         0.0735
     41 HO3'        2.1521    0.9800    3.3017 H         1 GTP         0.4308
     42 H2'        -0.0017    0.0018    0.0005 H         1 GTP         0.0746
     43 HO2'        2.0953   -0.9375    0.0709 H         1 GTP         0.4224
     44 H1'        -0.1998   -1.6319    2.6178 H         1 GTP         0.1162
     45 H8         -3.3837   -0.3807    1.7887 H         1 GTP         0.0741
     46 HN1        -2.0841   -5.6603   -1.6411 H         1 GTP         0.3343
     47 HN21        1.2221   -5.0911   -0.7073 H         1 GTP         0.4229
     48 HN22        0.0702   -6.0804   -1.5775 H         1 GTP         0.4229
@<TRIPOS>BOND
     1    1    2 2
     2    1    3 1
     3    1    4 1
     4    1    5 1
     5    3   33 1
     6    4   34 1
     7    5    6 1
     8    6    7 2
     9    6    8 1
    10    6    9 1
    11    8   35 1
    12    9   10 1
    13   10   11 2
    14   10   12 1
    15   10   13 1
    16   12   36 1
    17   13   14 1
    18   14   15 1
    19   14   37 1
    20   14   38 1
    21   15   16 1
    22   15   17 1
    23   15   39 1
    24   16   21 1
    25   17   18 1
    26   17   19 1
    27   17   40 1
    28   18   41 1
    29   19   20 1
    30   19   21 1
    31   19   42 1
    32   20   43 1
    33   21   22 1
    34   21   44 1
    35   22   23 ar
    36   22   32 ar
    37   23   24 ar
    38   23   45 1
    39   24   25 ar
    40   25   26 ar
    41   25   32 ar
    42   26   27 2
    43   26   28 ar
    44   28   29 ar
    45   28   46 1
    46   29   30 1
    47   29   31 ar
    48   30   47 1
    49   30   48 1
    50   31   32 ar
@<TRIPOS>SUBSTRUCTURE
     1 GTP         1 GROUP 0 A     ****
@<TRIPOS>MOLECULE
[[5-(2-amino-6-oxo-1~{H}-purin-9-yl)-3,4-dihydroxy-tetrahydrofuran-2-yl]methoxy-hydroxy-phosphoryl] phosphono hydrogen phosphate
   48    50     1     0     0
SMALL
USER_CHARGES

@<TRIPOS>ATOM
      1 PG         -4.9676    7.6681   -0.6614 P.3       1 GTP         1.8160
      2 O1G        -4.2434    8.4689   -1.7032 O.2       1 GTP        -0.8277
      3 O2G        -5.4269    8.4943    0.6494 O.3       1 GTP        -0.7983
      4 O3G        -6.3346    6.9659   -1.1623 O.3       1 GTP        -0.7983
      5 O3B        -4.1225    6.4317   -0.0540 O.3       1 GTP        -0.8272
      6 PB         -3.4745    5.1252   -0.7491 P.3       1 GTP         1.9429
      7 O1B        -4.4614    4.2313   -1.4404 O.2       1 GTP        -0.8481
      8 O2B        -2.3093    5.7268   -1.6944 O.3       1 GTP        -0.8171
      9 O3A        -2.6221    4.4398    0.4384 O.3       1 GTP        -0.8114
     10 PA         -3.0702    3.8634    1.8796 P.3       1 GTP         1.8017
     11 O1A        -3.7062    4.8832    2.7789 O.2       1 GTP        -0.7846
     12 O2A        -4.0303    2.6186    1.4978 O.3       1 GTP        -0.8074
     13 O5'        -1.7335    3.1724    2.4745 O.3       1 GTP        -0.5669
     14 C5'        -0.8811    2.4285    1.6206 C.3       1 GTP         0.1637
     15 C4'        -0.1994    1.3333    2.4288 C.3       1 GTP         0.1099
     16 O4'        -1.1285    0.2356    2.5840 O.3       1 GTP        -0.4100
     17 C3'         1.0324    0.7610    1.7344 C.3       1 GTP         0.0924
     18 O3'         1.9175    0.2377    2.7247 O.3       1 GTP        -0.5892
     19 C2'         0.4468   -0.3802    0.9263 C.3       1 GTP         0.0635
     20 O2'         1.3993   -1.3703    0.5961 O.3       1 GTP        -0.5749
     21 C1'        -0.6159   -0.9100    1.8769 C.3       1 GTP         0.2557
     22 N9         -1.7127   -1.6108    1.2130 N.pl3     1 GTP        -0.2236
     23 C8         -2.0873   -2.9139    1.4324 C.ar      1 GTP         0.4148
     24 N7         -3.1135   -3.2727    0.6860 N.2       1 GTP        -0.5808
     25 C5         -3.4017   -2.1526   -0.0362 C.ar      1 GTP         0.1777
     26 C6         -4.4318   -1.9582   -1.0186 C.ar      1 GTP         0.6505
     27 O6         -5.2284   -2.8266   -1.3513 O.2       1 GTP        -0.5947
     28 N1         -4.3916   -0.6538   -1.5306 N.pl3     1 GTP        -0.5110
     29 C2         -3.4693    0.3474   -1.1439 C.ar      1 GTP         0.6844
     30 N2         -3.6143    1.5541   -1.7775 N.pl3     1 GTP        -0.8920
     31 N3         -2.5355    0.1410   -0.2407 N.2       1 GTP        -0.6705
     32 C4         -2.5574   -1.1117    0.2656 C.ar      1 GTP         0.1220
     33 HOG2       -6.0382    9.2538    0.5423 H         1 GTP         0.5087
     34 HOG3       -6.2942    6.3202   -1.8994 H         1 GTP         0.5087
     35 HOB2       -1.7061    5.1070   -2.1572 H         1 GTP         0.5092
     36 HOA2       -4.8723    2.7961    1.0272 H         1 GTP         0.5041
     37 H5'        -1.4796    1.9923    0.8143 H         1 GTP         0.0584
     38 H5''       -0.1364    3.1037    1.1869 H         1 GTP         0.0584
     39 H4'         0.0402    1.7079    3.4343 H         1 GTP         0.1192
     40 H3'         1.5907    1.4859    1.1353 H         1 GTP         0.0735
     41 HO3'        2.1521    0.9800    3.3017 H         1 GTP         0.4308
     42 H2'        -0.0017    0.0018    0.0005 H         1 GTP         0.0746
     43 HO2'        2.0953   -0.9375    0.0709 H         1 GTP         0.4224
     44 H1'        -0.1998   -1.6319    2.6178 H         1 GTP         0.1162
     45 H8         -1.5757   -3.5474    2.1443 H         1 GTP         0.0741
     46 HN1        -5.0800   -0.4074   -2.2361 H         1 GTP         0.3343
     47 HN21       -2.9894    2.2891   -1.5392 H         1 GTP         0.4229
     48 HN22       -4.3387    1.6483   -2.4512 H         1 GTP         0.4229
@<TRIPOS>BOND
     1    1    2 2
     2    1    3 1
     3    1    4 1
     4    1    5 1
     5    3   33 1
     6    4   34 1
     7    5    6 1
     8    6    7 2
     9    6    8 1
    10    6    9 1
    11    8   35 1
    12    9   10 1
    13   10   11 2
    14   10   12 1
    15   10   13 1
    16   12   36 1
    17   13   14 1
    18   14   15 1
    19   14   37 1
    20   14   38 1
    21   15   16 1
    22   15   17 1
    23   15   39 1
    24   16   21 1
    25   17   18 1
    26   17   19 1
    27   17   40 1
    28   18   41 1
    29   19   20 1
    30   19   21 1
    31   19   42 1
    32   20   43 1
    33   21   22 1
    34   21   44 1
    35   22   23 ar
    36   22   32 ar
    37   23   24 ar
    38   23   45 1
    39   24   25 ar
    40   25   26 ar
    41   25   32 ar
    42   26   27 2
    43   26   28 ar
    44   28   29 ar
    45   28   46 1
    46   29   30 1
    47   29   31 ar
    48   30   47 1
    49   30   48 1
    50   31   32 ar
@<TRIPOS>SUBSTRUCTURE
     1 GTP         1 GROUP 0 A     ****
@<TRIPOS>MOLECULE
[[5-(2-amino-6-oxo-1~{H}-purin-9-yl)-3,4-dihydroxy-tetrahydrofuran-2-yl]methoxy-hydroxy-phosphoryl] phosphono hydrogen phosphate
   48    50     1     0     0
SMALL
USER_CHARGES

@<TRIPOS>ATOM
      1 PG          1.9206    5.0106   -6.9882 P.3       1 GTP         1.8160
      2 O1G         2.3160    6.1528   -6.0994 O.2       1 GTP        -0.8277
      3 O2G         1.0325    5.4132   -8.2769 O.3       1 GTP        -0.7983
      4 O3G         3.1510    4.1773   -7.6241 O.3       1 GTP        -0.7983
      5 O3B         1.0399    3.8660   -6.2629 O.3       1 GTP        -0.8272
      6 PB         -0.3965    3.9179   -5.5250 P.3       1 GTP         1.9429
      7 O1B        -0.4597    4.8436   -4.3460 O.2       1 GTP        -0.8481
      8 O2B        -1.4339    4.2507   -6.7192 O.3       1 GTP        -0.8171
      9 O3A        -0.7270    2.3681   -5.2160 O.3       1 GTP        -0.8114
     10 PA         -1.9943    1.6687   -4.4986 P.3       1 GTP         1.8017
     11 O1A        -3.3061    1.9239   -5.1824 O.2       1 GTP        -0.7846
     12 O2A        -1.5681    0.1095   -4.4325 O.3       1 GTP        -0.8074
     13 O5'        -1.9200    2.1712   -2.9623 O.3       1 GTP        -0.5669
     14 C5'        -0.7794    1.8744   -2.1748 C.3       1 GTP         0.1637
     15 C4'        -0.9699    2.4597   -0.7819 C.3       1 GTP         0.1099
     16 O4'        -2.1475    1.8640   -0.2014 O.3       1 GTP        -0.4100
     17 C3'         0.1697    2.1347    0.1695 C.3       1 GTP         0.0924
     18 O3'         0.1809    3.0982    1.2223 O.3       1 GTP        -0.5892
     19 C2'        -0.2543    0.7880    0.7187 C.3       1 GTP         0.0635
     20 O2'         0.3606    0.4944    1.9582 O.3       1 GTP        -0.5749
     21 C1'        -1.7682    0.9516    0.8548 C.3       1 GTP         0.2557
     22 N9         -2.5926   -0.2553    0.7436 N.pl3     1 GTP        -0.2236
     23 C8         -2.1292   -1.5330    0.5451 C.ar      1 GTP         0.4148
     24 N7         -3.1061   -2.4167    0.4857 N.2       1 GTP        -0.5808
     25 C5         -4.2348   -1.6702    0.6529 C.ar      1 GTP         0.1777
     26 C6         -5.6038   -2.1053    0.6765 C.ar      1 GTP         0.6505
     27 O6         -5.9501   -3.2720    0.5410 O.2       1 GTP        -0.5947
     28 N1         -6.4680   -1.0192    0.8736 N.pl3     1 GTP        -0.5110
     29 C2         -6.0643    0.3281    1.0298 C.ar      1 GTP         0.6844
     30 N2         -7.0824    1.2278    1.2106 N.pl3     1 GTP        -0.8920
     31 N3         -4.8022    0.6979    1.0037 N.2       1 GTP        -0.6705
     32 C4         -3.9522   -0.3354    0.8146 C.ar      1 GTP         0.1220
     33 HOG2        0.1646    5.8487   -8.1386 H         1 GTP         0.5087
     34 HOG3        3.7859    3.7342   -7.0220 H         1 GTP         0.5087
     35 HOB2       -2.3960    4.2427   -6.5281 H         1 GTP         0.5092
     36 HOA2       -2.1565   -0.5236   -3.9689 H         1 GTP         0.5041
     37 H5'        -0.6595    0.7876   -2.1196 H         1 GTP         0.0584
     38 H5''        0.1048    2.3070   -2.6539 H         1 GTP         0.0584
     39 H4'        -1.1469    3.5409   -0.8523 H         1 GTP         0.1192
     40 H3'         1.1601    2.1310   -0.2934 H         1 GTP         0.0735
     41 HO3'        0.9173    2.8584    1.8048 H         1 GTP         0.4308
     42 H2'        -0.0024   -0.0091    0.0062 H         1 GTP         0.0746
     43 HO2'        1.3225    0.4909    1.8095 H         1 GTP         0.4224
     44 H1'        -2.0584    1.4255    1.8301 H         1 GTP         0.1162
     45 H8         -1.0747   -1.7545    0.4515 H         1 GTP         0.0741
     46 HN1        -7.4645   -1.2151    0.9069 H         1 GTP         0.3343
     47 HN21       -6.8484    2.1867    1.3250 H         1 GTP         0.4229
     48 HN22       -8.0158    0.8871    1.2204 H         1 GTP         0.4229
@<TRIPOS>BOND
     1    1    2 2
     2    1    3 1
     3    1    4 1
     4    1    5 1
     5    3   33 1
     6    4   34 1
     7    5    6 1
     8    6    7 2
     9    6    8 1
    10    6    9 1
    11    8   35 1
    12    9   10 1
    13   10   11 2
    14   10   12 1
    15   10   13 1
    16   12   36 1
    17   13   14 1
    18   14   15 1
    19   14   37 1
    20   14   38 1
    21   15   16 1
    22   15   17 1
    23   15   39 1
    24   16   21 1
    25   17   18 1
    26   17   19 1
    27   17   40 1
    28   18   41 1
    29   19   20 1
    30   19   21 1
    31   19   42 1
    32   20   43 1
    33   21   22 1
    34   21   44 1
    35   22   23 ar
    36   22   32 ar
    37   23   24 ar
    38   23   45 1
    39   24   25 ar
    40   25   26 ar
    41   25   32 ar
    42   26   27 2
    43   26   28 ar
    44   28   29 ar
    45   28   46 1
    46   29   30 1
    47   29   31 ar
    48   30   47 1
    49   30   48 1
    50   31   32 ar
@<TRIPOS>SUBSTRUCTURE
     1 GTP         1 GROUP 0 A     ****
@<TRIPOS>MOLECULE
[[5-(2-amino-6-oxo-1~{H}-purin-9-yl)-3,4-dihydroxy-tetrahydrofuran-2-yl]methoxy-hydroxy-phosphoryl] phosphono hydrogen phosphate
   48    50     1     0     0
SMALL
USER_CHARGES

@<TRIPOS>ATOM
      1 PG          1.3098    6.5763   -0.3693 P.3       1 GTP         1.8160
      2 O1G         2.5612    5.8657    0.0550 O.2       1 GTP        -0.8277
      3 O2G         1.5378    7.9016   -1.2656 O.3       1 GTP        -0.7983
      4 O3G         0.2857    5.6939   -1.2554 O.3       1 GTP        -0.7983
      5 O3B         0.3844    7.0967    0.8491 O.3       1 GTP        -0.8272
      6 PB         -0.3522    6.3116    2.0538 P.3       1 GTP         1.9429
      7 O1B         0.5703    5.5488    2.9583 O.2       1 GTP        -0.8481
      8 O2B        -1.2374    7.4546    2.7771 O.3       1 GTP        -0.8171
      9 O3A        -1.4833    5.4343    1.3071 O.3       1 GTP        -0.8114
     10 PA         -2.5920    4.4092    1.8815 P.3       1 GTP         1.8017
     11 O1A        -3.5580    5.0276    2.8499 O.2       1 GTP        -0.7846
     12 O2A        -3.2774    3.8166    0.5413 O.3       1 GTP        -0.8074
     13 O5'        -1.7335    3.1724    2.4745 O.3       1 GTP        -0.5669
     14 C5'        -0.8811    2.4285    1.6206 C.3       1 GTP         0.1637
     15 C4'        -0.1994    1.3333    2.4288 C.3       1 GTP         0.1099
     16 O4'        -1.1285    0.2356    2.5840 O.3       1 GTP        -0.4100
     17 C3'         1.0324    0.7610    1.7344 C.3       1 GTP         0.0924
     18 O3'         1.9175    0.2377    2.7247 O.3       1 GTP        -0.5892
     19 C2'         0.4468   -0.3802    0.9263 C.3       1 GTP         0.0635
     20 O2'         1.3993   -1.3703    0.5961 O.3       1 GTP        -0.5749
     21 C1'        -0.6159   -0.9100    1.8769 C.3       1 GTP         0.2557
     22 N9         -1.7127   -1.6108    1.2130 N.pl3     1 GTP        -0.2236
     23 C8         -3.0375   -1.2493    1.2452 C.ar      1 GTP         0.4148
     24 N7         -3.7986   -2.0732    0.5519 N.2       1 GTP        -0.5808
     25 C5         -2.9221   -2.9947    0.0601 C.ar      1 GTP         0.1777
     26 C6         -3.1909   -4.1355   -0.7707 C.ar      1 GTP         0.6505
     27 O6         -4.3086   -4.4427   -1.1652 O.2       1 GTP        -0.5947
     28 N1         -2.0085   -4.8320   -1.0576 N.pl3     1 GTP        -0.5110
     29 C2         -0.7182   -4.4742   -0.5998 C.ar      1 GTP         0.6844
     30 N2          0.2972   -5.3016   -1.0037 N.pl3     1 GTP        -0.8920
     31 N3         -0.5015   -3.4231    0.1607 N.2       1 GTP        -0.6705
     32 C4         -1.6297   -2.7374    0.4490 C.ar      1 GTP         0.1220
     33 HOG2        2.0546    8.6459   -0.8903 H         1 GTP         0.5087
     34 HOG3        0.5926    5.3285   -2.1124 H         1 GTP         0.5087
     35 HOB2       -1.8593    7.9865    2.2363 H         1 GTP         0.5092
     36 HOA2       -3.7783    4.4241   -0.0435 H         1 GTP         0.5041
     37 H5'        -1.4796    1.9923    0.8143 H         1 GTP         0.0584
     38 H5''       -0.1364    3.1037    1.1869 H         1 GTP         0.0584
     39 H4'         0.0402    1.7079    3.4343 H         1 GTP         0.1192
     40 H3'         1.5907    1.4859    1.1353 H         1 GTP         0.0735
     41 HO3'        2.1521    0.9800    3.3017 H         1 GTP         0.4308
     42 H2'        -0.0017    0.0018    0.0005 H         1 GTP         0.0746
     43 HO2'        1.7495   -1.7243    1.4324 H         1 GTP         0.4224
     44 H1'        -0.1998   -1.6319    2.6178 H         1 GTP         0.1162
     45 H8         -3.3837   -0.3807    1.7887 H         1 GTP         0.0741
     46 HN1        -2.0841   -5.6603   -1.6411 H         1 GTP         0.3343
     47 HN21        1.2221   -5.0911   -0.7073 H         1 GTP         0.4229
     48 HN22        0.0702   -6.0804   -1.5775 H         1 GTP         0.4229
@<TRIPOS>BOND
     1    1    2 2
     2    1    3 1
     3    1    4 1
     4    1    5 1
     5    3   33 1
     6    4   34 1
     7    5    6 1
     8    6    7 2
     9    6    8 1
    10    6    9 1
    11    8   35 1
    12    9   10 1
    13   10   11 2
    14   10   12 1
    15   10   13 1
    16   12   36 1
    17   13   14 1
    18   14   15 1
    19   14   37 1
    20   14   38 1
    21   15   16 1
    22   15   17 1
    23   15   39 1
    24   16   21 1
    25   17   18 1
    26   17   19 1
    27   17   40 1
    28   18   41 1
    29   19   20 1
    30   19   21 1
    31   19   42 1
    32   20   43 1
    33   21   22 1
    34   21   44 1
    35   22   23 ar
    36   22   32 ar
    37   23   24 ar
    38   23   45 1
    39   24   25 ar
    40   25   26 ar
    41   25   32 ar
    42   26   27 2
    43   26   28 ar
    44   28   29 ar
    45   28   46 1
    46   29   30 1
    47   29   31 ar
    48   30   47 1
    49   30   48 1
    50   31   32 ar
@<TRIPOS>SUBSTRUCTURE
     1 GTP         1 GROUP 0 A     ****
@<TRIPOS>MOLECULE
[[5-(2-amino-6-oxo-1~{H}-purin-9-yl)-3,4-dihydroxy-tetrahydrofuran-2-yl]methoxy-hydroxy-phosphoryl] phosphono hydrogen phosphate
   48    50     1     0     0
SMALL
USER_CHARGES

@<TRIPOS>ATOM
      1 PG         -7.1390    3.4914    1.6804 P.3       1 GTP         1.8160
      2 O1G        -8.1517    3.1006    0.6447 O.2       1 GTP        -0.8277
      3 O2G        -7.3757    4.9344    2.3684 O.3       1 GTP        -0.7983
      4 O3G        -7.0238    2.4870    2.9416 O.3       1 GTP        -0.7983
      5 O3B        -5.6187    3.5740    1.1386 O.3       1 GTP        -0.8272
      6 PB         -4.6519    2.4660    0.4692 P.3       1 GTP         1.9429
      7 O1B        -4.3761    1.2726    1.3356 O.2       1 GTP        -0.8481
      8 O2B        -5.3584    2.1407   -0.9479 O.3       1 GTP        -0.8171
      9 O3A        -3.3556    3.3123    0.0109 O.3       1 GTP        -0.8114
     10 PA         -1.9903    2.8602   -0.7249 P.3       1 GTP         1.8017
     11 O1A        -2.1965    2.2397   -2.0762 O.2       1 GTP        -0.7846
     12 O2A        -1.1115    4.2183   -0.7411 O.3       1 GTP        -0.8074
     13 O5'        -1.2435    1.9109    0.3518 O.3       1 GTP        -0.5669
     14 C5'        -0.8811    2.4285    1.6206 C.3       1 GTP         0.1637
     15 C4'        -0.1994    1.3333    2.4288 C.3       1 GTP         0.1099
     16 O4'        -1.1285    0.2356    2.5840 O.3       1 GTP        -0.4100
     17 C3'         1.0324    0.7610    1.7344 C.3       1 GTP         0.0924
     18 O3'         1.9175    0.2377    2.7247 O.3       1 GTP        -0.5892
     19 C2'         0.4468   -0.3802    0.9263 C.3       1 GTP         0.0635
     20 O2'         1.3993   -1.3703    0.5961 O.3       1 GTP        -0.5749
     21 C1'        -0.6159   -0.9100    1.8769 C.3       1 GTP         0.2557
     22 N9         -1.7127   -1.6108    1.2130 N.pl3     1 GTP        -0.2236
     23 C8         -2.5489   -1.0812    0.2607 C.ar      1 GTP         0.4148
     24 N7         -3.4468   -1.9516   -0.1576 N.2       1 GTP        -0.5808
     25 C5         -3.1696   -3.0787    0.5579 C.ar      1 GTP         0.1777
     26 C6         -3.8307   -4.3536    0.5166 C.ar      1 GTP         0.6505
     27 O6         -4.7841   -4.6033   -0.2101 O.2       1 GTP        -0.5947
     28 N1         -3.2356   -5.2522    1.4132 N.pl3     1 GTP        -0.5110
     29 C2         -2.1338   -4.9602    2.2517 C.ar      1 GTP         0.6844
     30 N2         -1.7156   -5.9923    3.0507 N.pl3     1 GTP        -0.8920
     31 N3         -1.5477   -3.7827    2.2686 N.2       1 GTP        -0.6705
     32 C4         -2.1070   -2.9013    1.4104 C.ar      1 GTP         0.1220
     33 HOG2       -8.2110    5.0968    2.8562 H         1 GTP         0.5087
     34 HOG3       -6.7766    1.5513    2.7825 H         1 GTP         0.5087
     35 HOB2       -4.8985    1.5520   -1.5835 H         1 GTP         0.5092
     36 HOA2       -0.1928    4.1846   -1.0828 H         1 GTP         0.5041
     37 H5'        -0.2032    3.2762    1.4774 H         1 GTP         0.0584
     38 H5''       -1.7839    2.7763    2.1329 H         1 GTP         0.0584
     39 H4'         0.0402    1.7079    3.4343 H         1 GTP         0.1192
     40 H3'         1.5907    1.4859    1.1353 H         1 GTP         0.0735
     41 HO3'        2.6839   -0.1150    2.2479 H         1 GTP         0.4308
     42 H2'        -0.0017    0.0018    0.0005 H         1 GTP         0.0746
     43 HO2'        2.0953   -0.9375    0.0709 H         1 GTP         0.4224
     44 H1'        -0.1998   -1.6319    2.6178 H         1 GTP         0.1162
     45 H8         -2.4545   -0.0604   -0.0844 H         1 GTP         0.0741
     46 HN1        -3.6270   -6.1884    1.4651 H         1 GTP         0.3343
     47 HN21       -0.9445   -5.8354    3.6574 H         1 GTP         0.4229
     48 HN22       -2.1993   -6.8585    2.9930 H         1 GTP         0.4229
@<TRIPOS>BOND
     1    1    2 2
     2    1    3 1
     3    1    4 1
     4    1    5 1
     5    3   33 1
     6    4   34 1
     7    5    6 1
     8    6    7 2
     9    6    8 1
    10    6    9 1
    11    8   35 1
    12    9   10 1
    13   10   11 2
    14   10   12 1
    15   10   13 1
    16   12   36 1
    17   13   14 1
    18   14   15 1
    19   14   37 1
    20   14   38 1
    21   15   16 1
    22   15   17 1
    23   15   39 1
    24   16   21 1
    25   17   18 1
    26   17   19 1
    27   17   40 1
    28   18   41 1
    29   19   20 1
    30   19   21 1
    31   19   42 1
    32   20   43 1
    33   21   22 1
    34   21   44 1
    35   22   23 ar
    36   22   32 ar
    37   23   24 ar
    38   23   45 1
    39   24   25 ar
    40   25   26 ar
    41   25   32 ar
    42   26   27 2
    43   26   28 ar
    44   28   29 ar
    45   28   46 1
    46   29   30 1
    47   29   31 ar
    48   30   47 1
    49   30   48 1
    50   31   32 ar
@<TRIPOS>SUBSTRUCTURE
     1 GTP         1 GROUP 0 A     ****
@<TRIPOS>MOLECULE
[[5-(2-amino-6-oxo-1~{H}-purin-9-yl)-3,4-dihydroxy-tetrahydrofuran-2-yl]methoxy-hydroxy-phosphoryl] phosphono hydrogen phosphate
   48    50     1     0     0
SMALL
USER_CHARGES

@<TRIPOS>ATOM
      1 PG          2.3132    3.4638   -7.8024 P.3       1 GTP         1.8160
      2 O1G         3.1536    2.2597   -8.1105 O.2       1 GTP        -0.8277
      3 O2G         3.1172    4.7341   -7.2095 O.3       1 GTP        -0.7983
      4 O3G         1.5096    4.0810   -9.0618 O.3       1 GTP        -0.7983
      5 O3B         1.1469    3.2105   -6.7128 O.3       1 GTP        -0.8272
      6 PB         -0.1166    2.2036   -6.7016 P.3       1 GTP         1.9429
      7 O1B        -1.0859    2.4054   -7.8288 O.2       1 GTP        -0.8481
      8 O2B         0.5578    0.7364   -6.6266 O.3       1 GTP        -0.8171
      9 O3A        -0.7270    2.3681   -5.2160 O.3       1 GTP        -0.8114
     10 PA         -1.9943    1.6687   -4.4986 P.3       1 GTP         1.8017
     11 O1A        -3.3061    1.9239   -5.1824 O.2       1 GTP        -0.7846
     12 O2A        -1.5681    0.1095   -4.4325 O.3       1 GTP        -0.8074
     13 O5'        -1.9200    2.1712   -2.9623 O.3       1 GTP        -0.5669
     14 C5'        -0.7794    1.8744   -2.1748 C.3       1 GTP         0.1637
     15 C4'        -0.9699    2.4597   -0.7819 C.3       1 GTP         0.1099
     16 O4'        -2.1475    1.8640   -0.2014 O.3       1 GTP        -0.4100
     17 C3'         0.1697    2.1347    0.1695 C.3       1 GTP         0.0924
     18 O3'         0.1809    3.0982    1.2223 O.3       1 GTP        -0.5892
     19 C2'        -0.2543    0.7880    0.7187 C.3       1 GTP         0.0635
     20 O2'         0.3606    0.4944    1.9582 O.3       1 GTP        -0.5749
     21 C1'        -1.7682    0.9516    0.8548 C.3       1 GTP         0.2557
     22 N9         -2.5926   -0.2553    0.7436 N.pl3     1 GTP        -0.2236
     23 C8         -2.2188   -1.5242    1.1136 C.ar      1 GTP         0.4148
     24 N7         -3.1705   -2.4105    0.8954 N.2       1 GTP        -0.5808
     25 C5         -4.1890   -1.6749    0.3655 C.ar      1 GTP         0.1777
     26 C6         -5.4857   -2.1175   -0.0667 C.ar      1 GTP         0.6505
     27 O6         -5.8619   -3.2814   -0.0104 O.2       1 GTP        -0.5947
     28 N1         -6.2422   -1.0420   -0.5529 N.pl3     1 GTP        -0.5110
     29 C2         -5.8042    0.3021   -0.6166 C.ar      1 GTP         0.6844
     30 N2         -6.7124    1.1908   -1.1303 N.pl3     1 GTP        -0.8920
     31 N3         -4.6101    0.6789   -0.2133 N.2       1 GTP        -0.6705
     32 C4         -3.8645   -0.3441    0.2595 C.ar      1 GTP         0.1220
     33 HOG2        3.8297    5.1391   -7.7483 H         1 GTP         0.5087
     34 HOG3        0.8612    3.5166   -9.5340 H         1 GTP         0.5087
     35 HOB2        1.0890    0.4187   -7.3875 H         1 GTP         0.5092
     36 HOA2       -1.4510   -0.3859   -5.2708 H         1 GTP         0.5041
     37 H5'        -0.6595    0.7876   -2.1196 H         1 GTP         0.0584
     38 H5''        0.1048    2.3070   -2.6539 H         1 GTP         0.0584
     39 H4'        -1.1469    3.5409   -0.8523 H         1 GTP         0.1192
     40 H3'         1.1601    2.1310   -0.2934 H         1 GTP         0.0735
     41 HO3'        0.9173    2.8584    1.8048 H         1 GTP         0.4308
     42 H2'        -0.0024   -0.0091    0.0062 H         1 GTP         0.0746
     43 HO2'        1.3225    0.4909    1.8095 H         1 GTP         0.4224
     44 H1'        -2.0584    1.4255    1.8301 H         1 GTP         0.1162
     45 H8         -1.2450   -1.7377    1.5330 H         1 GTP         0.0741
     46 HN1        -7.1805   -1.2438   -0.8866 H         1 GTP         0.3343
     47 HN21       -6.4505    2.1471   -1.1951 H         1 GTP         0.4229
     48 HN22       -7.5984    0.8452   -1.4185 H         1 GTP         0.4229
@<TRIPOS>BOND
     1    1    2 2
     2    1    3 1
     3    1    4 1
     4    1    5 1
     5    3   33 1
     6    4   34 1
     7    5    6 1
     8    6    7 2
     9    6    8 1
    10    6    9 1
    11    8   35 1
    12    9   10 1
    13   10   11 2
    14   10   12 1
    15   10   13 1
    16   12   36 1
    17   13   14 1
    18   14   15 1
    19   14   37 1
    20   14   38 1
    21   15   16 1
    22   15   17 1
    23   15   39 1
    24   16   21 1
    25   17   18 1
    26   17   19 1
    27   17   40 1
    28   18   41 1
    29   19   20 1
    30   19   21 1
    31   19   42 1
    32   20   43 1
    33   21   22 1
    34   21   44 1
    35   22   23 ar
    36   22   32 ar
    37   23   24 ar
    38   23   45 1
    39   24   25 ar
    40   25   26 ar
    41   25   32 ar
    42   26   27 2
    43   26   28 ar
    44   28   29 ar
    45   28   46 1
    46   29   30 1
    47   29   31 ar
    48   30   47 1
    49   30   48 1
    50   31   32 ar
@<TRIPOS>SUBSTRUCTURE
     1 GTP         1 GROUP 0 A     ****
@<TRIPOS>MOLECULE
[[5-(2-amino-6-oxo-1~{H}-purin-9-yl)-3,4-dihydroxy-tetrahydrofuran-2-yl]methoxy-hydroxy-phosphoryl] phosphono hydrogen phosphate
   48    50     1     0     0
SMALL
USER_CHARGES

@<TRIPOS>ATOM
      1 PG          2.3132    3.4638   -7.8024 P.3       1 GTP         1.8160
      2 O1G         3.1536    2.2597   -8.1105 O.2       1 GTP        -0.8277
      3 O2G         3.1172    4.7341   -7.2095 O.3       1 GTP        -0.7983
      4 O3G         1.5096    4.0810   -9.0618 O.3       1 GTP        -0.7983
      5 O3B         1.1469    3.2105   -6.7128 O.3       1 GTP        -0.8272
      6 PB         -0.1166    2.2036   -6.7016 P.3       1 GTP         1.9429
      7 O1B        -1.0859    2.4054   -7.8288 O.2       1 GTP        -0.8481
      8 O2B         0.5578    0.7364   -6.6266 O.3       1 GTP        -0.8171
      9 O3A        -0.7270    2.3681   -5.2160 O.3       1 GTP        -0.8114
     10 PA         -1.9943    1.6687   -4.4986 P.3       1 GTP         1.8017
     11 O1A        -3.3061    1.9239   -5.1824 O.2       1 GTP        -0.7846
     12 O2A        -1.5681    0.1095   -4.4325 O.3       1 GTP        -0.8074
     13 O5'        -1.9200    2.1712   -2.9623 O.3       1 GTP        -0.5669
     14 C5'        -0.7794    1.8744   -2.1748 C.3       1 GTP         0.1637
     15 C4'        -0.9699    2.4597   -0.7819 C.3       1 GTP         0.1099
     16 O4'        -2.1475    1.8640   -0.2014 O.3       1 GTP        -0.4100
     17 C3'         0.1697    2.1347    0.1695 C.3       1 GTP         0.0924
     18 O3'         0.1809    3.0982    1.2223 O.3       1 GTP        -0.5892
     19 C2'        -0.2543    0.7880    0.7187 C.3       1 GTP         0.0635
     20 O2'         0.3606    0.4944    1.9582 O.3       1 GTP        -0.5749
     21 C1'        -1.7682    0.9516    0.8548 C.3       1 GTP         0.2557
     22 N9         -2.5926   -0.2553    0.7436 N.pl3     1 GTP        -0.2236
     23 C8         -2.2853   -1.3774    0.0134 C.ar      1 GTP         0.4148
     24 N7         -3.2188   -2.3045    0.1026 N.2       1 GTP        -0.5808
     25 C5         -4.1563   -1.7486    0.9220 C.ar      1 GTP         0.1777
     26 C6         -5.4005   -2.3083    1.3722 C.ar      1 GTP         0.6505
     27 O6         -5.7999   -3.4222    1.0575 O.2       1 GTP        -0.5947
     28 N1         -6.0772   -1.4091    2.2084 N.pl3     1 GTP        -0.5110
     29 C2         -5.6128   -0.1223    2.5700 C.ar      1 GTP         0.6844
     30 N2         -6.4404    0.5875    3.4005 N.pl3     1 GTP        -0.8920
     31 N3         -4.4683    0.3649    2.1422 N.2       1 GTP        -0.6705
     32 C4         -3.7999   -0.4873    1.3339 C.ar      1 GTP         0.1220
     33 HOG2        3.8297    5.1391   -7.7483 H         1 GTP         0.5087
     34 HOG3        0.8612    3.5166   -9.5340 H         1 GTP         0.5087
     35 HOB2        1.0890    0.4187   -7.3875 H         1 GTP         0.5092
     36 HOA2       -1.4510   -0.3859   -5.2708 H         1 GTP         0.5041
     37 H5'        -0.6595    0.7876   -2.1196 H         1 GTP         0.0584
     38 H5''        0.1048    2.3070   -2.6539 H         1 GTP         0.0584
     39 H4'        -1.1469    3.5409   -0.8523 H         1 GTP         0.1192
     40 H3'         1.1601    2.1310   -0.2934 H         1 GTP         0.0735
     41 HO3'        0.9173    2.8584    1.8048 H         1 GTP         0.4308
     42 H2'        -0.0024   -0.0091    0.0062 H         1 GTP         0.0746
     43 HO2'        0.0384   -0.3797    2.2403 H         1 GTP         0.4224
     44 H1'        -2.0584    1.4255    1.8301 H         1 GTP         0.1162
     45 H8         -1.3717   -1.4583   -0.5599 H         1 GTP         0.0741
     46 HN1        -6.9732   -1.7053    2.5850 H         1 GTP         0.3343
     47 HN21       -6.1570    1.4973    3.6824 H         1 GTP         0.4229
     48 HN22       -7.2925    0.1655    3.6894 H         1 GTP         0.4229
@<TRIPOS>BOND
     1    1    2 2
     2    1    3 1
     3    1    4 1
     4    1    5 1
     5    3   33 1
     6    4   34 1
     7    5    6 1
     8    6    7 2
     9    6    8 1
    10    6    9 1
    11    8   35 1
    12    9   10 1
    13   10   11 2
    14   10   12 1
    15   10   13 1
    16   12   36 1
    17   13   14 1
    18   14   15 1
    19   14   37 1
    20   14   38 1
    21   15   16 1
    22   15   17 1
    23   15   39 1
    24   16   21 1
    25   17   18 1
    26   17   19 1
    27   17   40 1
    28   18   41 1
    29   19   20 1
    30   19   21 1
    31   19   42 1
    32   20   43 1
    33   21   22 1
    34   21   44 1
    35   22   23 ar
    36   22   32 ar
    37   23   24 ar
    38   23   45 1
    39   24   25 ar
    40   25   26 ar
    41   25   32 ar
    42   26   27 2
    43   26   28 ar
    44   28   29 ar
    45   28   46 1
    46   29   30 1
    47   29   31 ar
    48   30   47 1
    49   30   48 1
    50   31   32 ar
@<TRIPOS>SUBSTRUCTURE
     1 GTP         1 GROUP 0 A     ****
@<TRIPOS>MOLECULE
[[5-(2-amino-6-oxo-1~{H}-purin-9-yl)-3,4-dihydroxy-tetrahydrofuran-2-yl]methoxy-hydroxy-phosphoryl] phosphono hydrogen phosphate
   48    50     1     0     0
SMALL
USER_CHARGES

@<TRIPOS>ATOM
      1 PG         -2.1539    7.4880   -2.4466 P.3       1 GTP         1.8160
      2 O1G        -2.7015    6.8355   -3.6817 O.2       1 GTP        -0.8277
      3 O2G        -0.6292    8.0116   -2.5598 O.3       1 GTP        -0.7983
      4 O3G        -2.9638    8.7929   -1.9425 O.3       1 GTP        -0.7983
      5 O3B        -2.1339    6.5414   -1.1369 O.3       1 GTP        -0.8272
      6 PB         -3.3164    5.7883   -0.3339 P.3       1 GTP         1.9429
      7 O1B        -4.3688    6.6990    0.2267 O.2       1 GTP        -0.8481
      8 O2B        -3.8512    4.6795   -1.3817 O.3       1 GTP        -0.8171
      9 O3A        -2.5313    4.8790    0.7447 O.3       1 GTP        -0.8114
     10 PA         -3.0702    3.8634    1.8796 P.3       1 GTP         1.8017
     11 O1A        -3.9589    4.5039    2.9059 O.2       1 GTP        -0.7846
     12 O2A        -3.7801    2.6911    1.0200 O.3       1 GTP        -0.8074
     13 O5'        -1.7335    3.1724    2.4745 O.3       1 GTP        -0.5669
     14 C5'        -0.8811    2.4285    1.6206 C.3       1 GTP         0.1637
     15 C4'        -0.1994    1.3333    2.4288 C.3       1 GTP         0.1099
     16 O4'        -1.1285    0.2356    2.5840 O.3       1 GTP        -0.4100
     17 C3'         1.0324    0.7610    1.7344 C.3       1 GTP         0.0924
     18 O3'         1.9175    0.2377    2.7247 O.3       1 GTP        -0.5892
     19 C2'         0.4468   -0.3802    0.9263 C.3       1 GTP         0.0635
     20 O2'         1.3993   -1.3703    0.5961 O.3       1 GTP        -0.5749
     21 C1'        -0.6159   -0.9100    1.8769 C.3       1 GTP         0.2557
     22 N9         -1.7127   -1.6108    1.2130 N.pl3     1 GTP        -0.2236
     23 C8         -2.0873   -2.9139    1.4324 C.ar      1 GTP         0.4148
     24 N7         -3.1135   -3.2727    0.6860 N.2       1 GTP        -0.5808
     25 C5         -3.4017   -2.1526   -0.0362 C.ar      1 GTP         0.1777
     26 C6         -4.4318   -1.9582   -1.0186 C.ar      1 GTP         0.6505
     27 O6         -5.2284   -2.8266   -1.3513 O.2       1 GTP        -0.5947
     28 N1         -4.3916   -0.6538   -1.5306 N.pl3     1 GTP        -0.5110
     29 C2         -3.4693    0.3474   -1.1439 C.ar      1 GTP         0.6844
     30 N2         -3.6143    1.5541   -1.7775 N.pl3     1 GTP        -0.8920
     31 N3         -2.5355    0.1410   -0.2407 N.2       1 GTP        -0.6705
     32 C4         -2.5574   -1.1117    0.2656 C.ar      1 GTP         0.1220
     33 HOG2       -0.4070    8.6843   -3.2381 H         1 GTP         0.5087
     34 HOG3       -3.9099    8.7006   -1.7011 H         1 GTP         0.5087
     35 HOB2       -4.2953    4.9784   -2.2036 H         1 GTP         0.5092
     36 HOA2       -4.5719    2.9094    0.4839 H         1 GTP         0.5041
     37 H5'        -1.4796    1.9923    0.8143 H         1 GTP         0.0584
     38 H5''       -0.1364    3.1037    1.1869 H         1 GTP         0.0584
     39 H4'         0.0402    1.7079    3.4343 H         1 GTP         0.1192
     40 H3'         1.5907    1.4859    1.1353 H         1 GTP         0.0735
     41 HO3'        2.6839   -0.1150    2.2479 H         1 GTP         0.4308
     42 H2'        -0.0017    0.0018    0.0005 H         1 GTP         0.0746
     43 HO2'        2.0953   -0.9375    0.0709 H         1 GTP         0.4224
     44 H1'        -0.1998   -1.6319    2.6178 H         1 GTP         0.1162
     45 H8         -1.5757   -3.5474    2.1443 H         1 GTP         0.0741
     46 HN1        -5.0800   -0.4074   -2.2361 H         1 GTP         0.3343
     47 HN21       -2.9894    2.2891   -1.5392 H         1 GTP         0.4229
     48 HN22       -4.3387    1.6483   -2.4512 H         1 GTP         0.4229
@<TRIPOS>BOND
     1    1    2 2
     2    1    3 1
     3    1    4 1
     4    1    5 1
     5    3   33 1
     6    4   34 1
     7    5    6 1
     8    6    7 2
     9    6    8 1
    10    6    9 1
    11    8   35 1
    12    9   10 1
    13   10   11 2
    14   10   12 1
    15   10   13 1
    16   12   36 1
    17   13   14 1
    18   14   15 1
    19   14   37 1
    20   14   38 1
    21   15   16 1
    22   15   17 1
    23   15   39 1
    24   16   21 1
    25   17   18 1
    26   17   19 1
    27   17   40 1
    28   18   41 1
    29   19   20 1
    30   19   21 1
    31   19   42 1
    32   20   43 1
    33   21   22 1
    34   21   44 1
    35   22   23 ar
    36   22   32 ar
    37   23   24 ar
    38   23   45 1
    39   24   25 ar
    40   25   26 ar
    41   25   32 ar
    42   26   27 2
    43   26   28 ar
    44   28   29 ar
    45   28   46 1
    46   29   30 1
    47   29   31 ar
    48   30   47 1
    49   30   48 1
    50   31   32 ar
@<TRIPOS>SUBSTRUCTURE
     1 GTP         1 GROUP 0 A     ****
@<TRIPOS>MOLECULE
[[5-(2-amino-6-oxo-1~{H}-purin-9-yl)-3,4-dihydroxy-tetrahydrofuran-2-yl]methoxy-hydroxy-phosphoryl] phosphono hydrogen phosphate
   48    50     1     0     0
SMALL
USER_CHARGES

@<TRIPOS>ATOM
      1 PG         -0.8647    8.0463   -1.3348 P.3       1 GTP         1.8160
      2 O1G         0.5874    8.2686   -1.0299 O.2       1 GTP        -0.8277
      3 O2G        -1.8627    9.2147   -0.8342 O.3       1 GTP        -0.7983
      4 O3G        -1.2213    7.8929   -2.9039 O.3       1 GTP        -0.7983
      5 O3B        -1.4923    6.7066   -0.6844 O.3       1 GTP        -0.8272
      6 PB         -1.6386    6.2202    0.8493 P.3       1 GTP         1.9429
      7 O1B        -0.3395    6.0806    1.5867 O.2       1 GTP        -0.8481
      8 O2B        -2.6860    7.2712    1.4909 O.3       1 GTP        -0.8171
      9 O3A        -2.5313    4.8790    0.7447 O.3       1 GTP        -0.8114
     10 PA         -3.0702    3.8634    1.8796 P.3       1 GTP         1.8017
     11 O1A        -3.9589    4.5039    2.9059 O.2       1 GTP        -0.7846
     12 O2A        -3.7801    2.6911    1.0200 O.3       1 GTP        -0.8074
     13 O5'        -1.7335    3.1724    2.4745 O.3       1 GTP        -0.5669
     14 C5'        -0.8811    2.4285    1.6206 C.3       1 GTP         0.1637
     15 C4'        -0.1994    1.3333    2.4288 C.3       1 GTP         0.1099
     16 O4'        -1.1285    0.2356    2.5840 O.3       1 GTP        -0.4100
     17 C3'         1.0324    0.7610    1.7344 C.3       1 GTP         0.0924
     18 O3'         1.9175    0.2377    2.7247 O.3       1 GTP        -0.5892
     19 C2'         0.4468   -0.3802    0.9263 C.3       1 GTP         0.0635
     20 O2'         1.3993   -1.3703    0.5961 O.3       1 GTP        -0.5749
     21 C1'        -0.6159   -0.9100    1.8769 C.3       1 GTP         0.2557
     22 N9         -1.7127   -1.6108    1.2130 N.pl3     1 GTP        -0.2236
     23 C8         -2.0873   -2.9139    1.4324 C.ar      1 GTP         0.4148
     24 N7         -3.1135   -3.2727    0.6860 N.2       1 GTP        -0.5808
     25 C5         -3.4017   -2.1526   -0.0362 C.ar      1 GTP         0.1777
     26 C6         -4.4318   -1.9582   -1.0186 C.ar      1 GTP         0.6505
     27 O6         -5.2284   -2.8266   -1.3513 O.2       1 GTP        -0.5947
     28 N1         -4.3916   -0.6538   -1.5306 N.pl3     1 GTP        -0.5110
     29 C2         -3.4693    0.3474   -1.1439 C.ar      1 GTP         0.6844
     30 N2         -3.6143    1.5541   -1.7775 N.pl3     1 GTP        -0.8920
     31 N3         -2.5355    0.1410   -0.2407 N.2       1 GTP        -0.6705
     32 C4         -2.5574   -1.1117    0.2656 C.ar      1 GTP         0.1220
     33 HOG2       -1.7389   10.1249   -1.1782 H         1 GTP         0.5087
     34 HOG3       -0.8094    7.1644   -3.4154 H         1 GTP         0.5087
     35 HOB2       -2.4208    8.2113    1.5797 H         1 GTP         0.5092
     36 HOA2       -4.1331    1.9060    1.4900 H         1 GTP         0.5041
     37 H5'        -1.4796    1.9923    0.8143 H         1 GTP         0.0584
     38 H5''       -0.1364    3.1037    1.1869 H         1 GTP         0.0584
     39 H4'         0.0402    1.7079    3.4343 H         1 GTP         0.1192
     40 H3'         1.5907    1.4859    1.1353 H         1 GTP         0.0735
     41 HO3'        2.1521    0.9800    3.3017 H         1 GTP         0.4308
     42 H2'        -0.0017    0.0018    0.0005 H         1 GTP         0.0746
     43 HO2'        0.9369   -2.0558    0.0825 H         1 GTP         0.4224
     44 H1'        -0.1998   -1.6319    2.6178 H         1 GTP         0.1162
     45 H8         -1.5757   -3.5474    2.1443 H         1 GTP         0.0741
     46 HN1        -5.0800   -0.4074   -2.2361 H         1 GTP         0.3343
     47 HN21       -4.3388    1.6481   -2.4511 H         1 GTP         0.4229
     48 HN22       -2.9895    2.2892   -1.5394 H         1 GTP         0.4229
@<TRIPOS>BOND
     1    1    2 2
     2    1    3 1
     3    1    4 1
     4    1    5 1
     5    3   33 1
     6    4   34 1
     7    5    6 1
     8    6    7 2
     9    6    8 1
    10    6    9 1
    11    8   35 1
    12    9   10 1
    13   10   11 2
    14   10   12 1
    15   10   13 1
    16   12   36 1
    17   13   14 1
    18   14   15 1
    19   14   37 1
    20   14   38 1
    21   15   16 1
    22   15   17 1
    23   15   39 1
    24   16   21 1
    25   17   18 1
    26   17   19 1
    27   17   40 1
    28   18   41 1
    29   19   20 1
    30   19   21 1
    31   19   42 1
    32   20   43 1
    33   21   22 1
    34   21   44 1
    35   22   23 ar
    36   22   32 ar
    37   23   24 ar
    38   23   45 1
    39   24   25 ar
    40   25   26 ar
    41   25   32 ar
    42   26   27 2
    43   26   28 ar
    44   28   29 ar
    45   28   46 1
    46   29   30 1
    47   29   31 ar
    48   30   47 1
    49   30   48 1
    50   31   32 ar
@<TRIPOS>SUBSTRUCTURE
     1 GTP         1 GROUP 0 A     ****
@<TRIPOS>MOLECULE
[[5-(2-amino-6-oxo-1~{H}-purin-9-yl)-3,4-dihydroxy-tetrahydrofuran-2-yl]methoxy-hydroxy-phosphoryl] phosphono hydrogen phosphate
   48    50     1     0     0
SMALL
USER_CHARGES

@<TRIPOS>ATOM
      1 PG          1.2411    4.8221   -6.6373 P.3       1 GTP         1.8160
      2 O1G         0.5405    5.5426   -7.7513 O.2       1 GTP        -0.8277
      3 O2G         2.8281    5.1045   -6.5221 O.3       1 GTP        -0.7983
      4 O3G         0.6912    5.1515   -5.1534 O.3       1 GTP        -0.7983
      5 O3B         1.1469    3.2105   -6.7128 O.3       1 GTP        -0.8272
      6 PB         -0.1166    2.2036   -6.7016 P.3       1 GTP         1.9429
      7 O1B        -1.0859    2.4054   -7.8288 O.2       1 GTP        -0.8481
      8 O2B         0.5578    0.7364   -6.6266 O.3       1 GTP        -0.8171
      9 O3A        -0.7270    2.3681   -5.2160 O.3       1 GTP        -0.8114
     10 PA         -1.9943    1.6687   -4.4986 P.3       1 GTP         1.8017
     11 O1A        -3.3061    1.9239   -5.1824 O.2       1 GTP        -0.7846
     12 O2A        -1.5681    0.1095   -4.4325 O.3       1 GTP        -0.8074
     13 O5'        -1.9200    2.1712   -2.9623 O.3       1 GTP        -0.5669
     14 C5'        -0.7794    1.8744   -2.1748 C.3       1 GTP         0.1637
     15 C4'        -0.9699    2.4597   -0.7819 C.3       1 GTP         0.1099
     16 O4'        -2.1475    1.8640   -0.2014 O.3       1 GTP        -0.4100
     17 C3'         0.1697    2.1347    0.1695 C.3       1 GTP         0.0924
     18 O3'         0.1809    3.0982    1.2223 O.3       1 GTP        -0.5892
     19 C2'        -0.2543    0.7880    0.7187 C.3       1 GTP         0.0635
     20 O2'         0.3606    0.4944    1.9582 O.3       1 GTP        -0.5749
     21 C1'        -1.7682    0.9516    0.8548 C.3       1 GTP         0.2557
     22 N9         -2.5926   -0.2553    0.7436 N.pl3     1 GTP        -0.2236
     23 C8         -2.1292   -1.5330    0.5451 C.ar      1 GTP         0.4148
     24 N7         -3.1061   -2.4167    0.4857 N.2       1 GTP        -0.5808
     25 C5         -4.2348   -1.6702    0.6529 C.ar      1 GTP         0.1777
     26 C6         -5.6038   -2.1053    0.6765 C.ar      1 GTP         0.6505
     27 O6         -5.9501   -3.2720    0.5410 O.2       1 GTP        -0.5947
     28 N1         -6.4680   -1.0192    0.8736 N.pl3     1 GTP        -0.5110
     29 C2         -6.0643    0.3281    1.0298 C.ar      1 GTP         0.6844
     30 N2         -7.0824    1.2278    1.2106 N.pl3     1 GTP        -0.8920
     31 N3         -4.8022    0.6979    1.0037 N.2       1 GTP        -0.6705
     32 C4         -3.9522   -0.3354    0.8146 C.ar      1 GTP         0.1220
     33 HOG2        3.4072    4.8789   -7.2810 H         1 GTP         0.5087
     34 HOG3       -0.2464    4.9576   -4.9406 H         1 GTP         0.5087
     35 HOB2        1.0890    0.4187   -7.3875 H         1 GTP         0.5092
     36 HOA2       -1.4510   -0.3859   -5.2708 H         1 GTP         0.5041
     37 H5'        -0.6595    0.7876   -2.1196 H         1 GTP         0.0584
     38 H5''        0.1048    2.3070   -2.6539 H         1 GTP         0.0584
     39 H4'        -1.1469    3.5409   -0.8523 H         1 GTP         0.1192
     40 H3'         1.1601    2.1310   -0.2934 H         1 GTP         0.0735
     41 HO3'        0.9173    2.8584    1.8048 H         1 GTP         0.4308
     42 H2'        -0.0024   -0.0091    0.0062 H         1 GTP         0.0746
     43 HO2'        0.0384   -0.3797    2.2403 H         1 GTP         0.4224
     44 H1'        -2.0584    1.4255    1.8301 H         1 GTP         0.1162
     45 H8         -1.0747   -1.7545    0.4515 H         1 GTP         0.0741
     46 HN1        -7.4645   -1.2151    0.9069 H         1 GTP         0.3343
     47 HN21       -8.0157    0.8869    1.2203 H         1 GTP         0.4229
     48 HN22       -6.8486    2.1868    1.3250 H         1 GTP         0.4229
@<TRIPOS>BOND
     1    1    2 2
     2    1    3 1
     3    1    4 1
     4    1    5 1
     5    3   33 1
     6    4   34 1
     7    5    6 1
     8    6    7 2
     9    6    8 1
    10    6    9 1
    11    8   35 1
    12    9   10 1
    13   10   11 2
    14   10   12 1
    15   10   13 1
    16   12   36 1
    17   13   14 1
    18   14   15 1
    19   14   37 1
    20   14   38 1
    21   15   16 1
    22   15   17 1
    23   15   39 1
    24   16   21 1
    25   17   18 1
    26   17   19 1
    27   17   40 1
    28   18   41 1
    29   19   20 1
    30   19   21 1
    31   19   42 1
    32   20   43 1
    33   21   22 1
    34   21   44 1
    35   22   23 ar
    36   22   32 ar
    37   23   24 ar
    38   23   45 1
    39   24   25 ar
    40   25   26 ar
    41   25   32 ar
    42   26   27 2
    43   26   28 ar
    44   28   29 ar
    45   28   46 1
    46   29   30 1
    47   29   31 ar
    48   30   47 1
    49   30   48 1
    50   31   32 ar
@<TRIPOS>SUBSTRUCTURE
     1 GTP         1 GROUP 0 A     ****
@<TRIPOS>MOLECULE
[[5-(2-amino-6-oxo-1~{H}-purin-9-yl)-3,4-dihydroxy-tetrahydrofuran-2-yl]methoxy-hydroxy-phosphoryl] phosphono hydrogen phosphate
   48    50     1     0     0
SMALL
USER_CHARGES

@<TRIPOS>ATOM
      1 PG          1.9603    5.3316    3.6016 P.3       1 GTP         1.8160
      2 O1G         1.9092    6.2281    4.8035 O.2       1 GTP        -0.8277
      3 O2G         3.0218    5.7634    2.4621 O.3       1 GTP        -0.7983
      4 O3G         2.3433    3.7916    3.9091 O.3       1 GTP        -0.7983
      5 O3B         0.5660    5.2074    2.7940 O.3       1 GTP        -0.8272
      6 PB         -0.3522    6.3116    2.0538 P.3       1 GTP         1.9429
      7 O1B        -0.8615    7.4021    2.9496 O.2       1 GTP        -0.8481
      8 O2B         0.5603    6.8070    0.8149 O.3       1 GTP        -0.8171
      9 O3A        -1.4833    5.4343    1.3071 O.3       1 GTP        -0.8114
     10 PA         -2.5920    4.4092    1.8815 P.3       1 GTP         1.8017
     11 O1A        -3.5580    5.0276    2.8499 O.2       1 GTP        -0.7846
     12 O2A        -3.2774    3.8166    0.5413 O.3       1 GTP        -0.8074
     13 O5'        -1.7335    3.1724    2.4745 O.3       1 GTP        -0.5669
     14 C5'        -0.8811    2.4285    1.6206 C.3       1 GTP         0.1637
     15 C4'        -0.1994    1.3333    2.4288 C.3       1 GTP         0.1099
     16 O4'        -1.1285    0.2356    2.5840 O.3       1 GTP        -0.4100
     17 C3'         1.0324    0.7610    1.7344 C.3       1 GTP         0.0924
     18 O3'         1.9175    0.2377    2.7247 O.3       1 GTP        -0.5892
     19 C2'         0.4468   -0.3802    0.9263 C.3       1 GTP         0.0635
     20 O2'         1.3993   -1.3703    0.5961 O.3       1 GTP        -0.5749
     21 C1'        -0.6159   -0.9100    1.8769 C.3       1 GTP         0.2557
     22 N9         -1.7127   -1.6108    1.2130 N.pl3     1 GTP        -0.2236
     23 C8         -1.7695   -2.9586    0.9546 C.ar      1 GTP         0.4148
     24 N7         -2.8846   -3.3047    0.3416 N.2       1 GTP        -0.5808
     25 C5         -3.5626   -2.1296    0.2052 C.ar      1 GTP         0.1777
     26 C6         -4.8477   -1.8989   -0.3942 C.ar      1 GTP         0.6505
     27 O6         -5.5373   -2.7819   -0.8881 O.2       1 GTP        -0.5947
     28 N1         -5.1895   -0.5407   -0.3318 N.pl3     1 GTP        -0.5110
     29 C2         -4.3899    0.4774    0.2398 C.ar      1 GTP         0.6844
     30 N2         -4.9233    1.7390    0.1898 N.pl3     1 GTP        -0.8920
     31 N3         -3.2159    0.2369    0.7822 N.2       1 GTP        -0.6705
     32 C4         -2.8678   -1.0679    0.7322 C.ar      1 GTP         0.1220
     33 HOG2        2.9287    6.6410    2.0341 H         1 GTP         0.5087
     34 HOG3        1.7674    3.2694    4.5072 H         1 GTP         0.5087
     35 HOB2        0.1732    7.4226    0.1566 H         1 GTP         0.5092
     36 HOA2       -3.7783    4.4241   -0.0435 H         1 GTP         0.5041
     37 H5'        -1.4796    1.9923    0.8143 H         1 GTP         0.0584
     38 H5''       -0.1364    3.1037    1.1869 H         1 GTP         0.0584
     39 H4'         0.0402    1.7079    3.4343 H         1 GTP         0.1192
     40 H3'         1.5907    1.4859    1.1353 H         1 GTP         0.0735
     41 HO3'        2.6839   -0.1150    2.2479 H         1 GTP         0.4308
     42 H2'        -0.0017    0.0018    0.0005 H         1 GTP         0.0746
     43 HO2'        2.0953   -0.9375    0.0709 H         1 GTP         0.4224
     44 H1'        -0.1998   -1.6319    2.6178 H         1 GTP         0.1162
     45 H8         -0.9713   -3.6323    1.2352 H         1 GTP         0.0741
     46 HN1        -6.0831   -0.2651   -0.7290 H         1 GTP         0.3343
     47 HN21       -4.3984    2.4878    0.5788 H         1 GTP         0.4229
     48 HN22       -5.8145    1.8572   -0.2335 H         1 GTP         0.4229
@<TRIPOS>BOND
     1    1    2 2
     2    1    3 1
     3    1    4 1
     4    1    5 1
     5    3   33 1
     6    4   34 1
     7    5    6 1
     8    6    7 2
     9    6    8 1
    10    6    9 1
    11    8   35 1
    12    9   10 1
    13   10   11 2
    14   10   12 1
    15   10   13 1
    16   12   36 1
    17   13   14 1
    18   14   15 1
    19   14   37 1
    20   14   38 1
    21   15   16 1
    22   15   17 1
    23   15   39 1
    24   16   21 1
    25   17   18 1
    26   17   19 1
    27   17   40 1
    28   18   41 1
    29   19   20 1
    30   19   21 1
    31   19   42 1
    32   20   43 1
    33   21   22 1
    34   21   44 1
    35   22   23 ar
    36   22   32 ar
    37   23   24 ar
    38   23   45 1
    39   24   25 ar
    40   25   26 ar
    41   25   32 ar
    42   26   27 2
    43   26   28 ar
    44   28   29 ar
    45   28   46 1
    46   29   30 1
    47   29   31 ar
    48   30   47 1
    49   30   48 1
    50   31   32 ar
@<TRIPOS>SUBSTRUCTURE
     1 GTP         1 GROUP 0 A     ****
@<TRIPOS>MOLECULE
[[5-(2-amino-6-oxo-1~{H}-purin-9-yl)-3,4-dihydroxy-tetrahydrofuran-2-yl]methoxy-hydroxy-phosphoryl] phosphono hydrogen phosphate
   48    50     1     0     0
SMALL
USER_CHARGES

@<TRIPOS>ATOM
      1 PG          0.0044    2.3540   -2.8106 P.3       1 GTP         1.8160
      2 O1G         1.0459    2.9597   -3.7047 O.2       1 GTP        -0.8277
      3 O2G        -1.3857    1.9622   -3.5359 O.3       1 GTP        -0.7983
      4 O3G         0.4440    0.9840   -2.0740 O.3       1 GTP        -0.7983
      5 O3B        -0.4606    3.2965   -1.5830 O.3       1 GTP        -0.8272
      6 PB         -1.1406    4.7616   -1.5473 P.3       1 GTP         1.9429
      7 O1B        -0.3254    5.8443   -2.1909 O.2       1 GTP        -0.8481
      8 O2B        -2.6042    4.5253   -2.1916 O.3       1 GTP        -0.8171
      9 O3A        -1.4932    4.9848    0.0124 O.3       1 GTP        -0.8114
     10 PA         -0.5527    5.0214    1.3254 P.3       1 GTP         1.8017
     11 O1A         0.4988    6.0924    1.2989 O.2       1 GTP        -0.7846
     12 O2A        -1.6150    5.1587    2.5377 O.3       1 GTP        -0.8074
     13 O5'         0.0173    3.5130    1.4593 O.3       1 GTP        -0.5669
     14 C5'        -0.8811    2.4285    1.6206 C.3       1 GTP         0.1637
     15 C4'        -0.1994    1.3333    2.4288 C.3       1 GTP         0.1099
     16 O4'        -1.1285    0.2356    2.5840 O.3       1 GTP        -0.4100
     17 C3'         1.0324    0.7610    1.7344 C.3       1 GTP         0.0924
     18 O3'         1.9175    0.2377    2.7247 O.3       1 GTP        -0.5892
     19 C2'         0.4468   -0.3802    0.9263 C.3       1 GTP         0.0635
     20 O2'         1.3993   -1.3703    0.5961 O.3       1 GTP        -0.5749
     21 C1'        -0.6159   -0.9100    1.8769 C.3       1 GTP         0.2557
     22 N9         -1.7127   -1.6108    1.2130 N.pl3     1 GTP        -0.2236
     23 C8         -3.0375   -1.2493    1.2452 C.ar      1 GTP         0.4148
     24 N7         -3.7986   -2.0732    0.5519 N.2       1 GTP        -0.5808
     25 C5         -2.9221   -2.9947    0.0601 C.ar      1 GTP         0.1777
     26 C6         -3.1909   -4.1355   -0.7707 C.ar      1 GTP         0.6505
     27 O6         -4.3086   -4.4427   -1.1652 O.2       1 GTP        -0.5947
     28 N1         -2.0085   -4.8320   -1.0576 N.pl3     1 GTP        -0.5110
     29 C2         -0.7182   -4.4742   -0.5998 C.ar      1 GTP         0.6844
     30 N2          0.2972   -5.3016   -1.0037 N.pl3     1 GTP        -0.8920
     31 N3         -0.5015   -3.4231    0.1607 N.2       1 GTP        -0.6705
     32 C4         -1.6297   -2.7374    0.4490 C.ar      1 GTP         0.1220
     33 HOG2       -1.9071    2.6669   -3.9759 H         1 GTP         0.5087
     34 HOG3        0.6934    0.2094   -2.6215 H         1 GTP         0.5087
     35 HOB2       -3.2473    5.2659   -2.1933 H         1 GTP         0.5092
     36 HOA2       -1.2863    5.1327    3.4614 H         1 GTP         0.5041
     37 H5'        -1.7774    2.7844    2.1388 H         1 GTP         0.0584
     38 H5''       -1.1657    2.0536    0.6322 H         1 GTP         0.0584
     39 H4'         0.0402    1.7079    3.4343 H         1 GTP         0.1192
     40 H3'         1.5907    1.4859    1.1353 H         1 GTP         0.0735
     41 HO3'        2.6839   -0.1150    2.2479 H         1 GTP         0.4308
     42 H2'        -0.0017    0.0018    0.0005 H         1 GTP         0.0746
     43 HO2'        2.0953   -0.9375    0.0709 H         1 GTP         0.4224
     44 H1'        -0.1998   -1.6319    2.6178 H         1 GTP         0.1162
     45 H8         -3.3837   -0.3807    1.7887 H         1 GTP         0.0741
     46 HN1        -2.0841   -5.6603   -1.6411 H         1 GTP         0.3343
     47 HN21        1.2221   -5.0911   -0.7073 H         1 GTP         0.4229
     48 HN22        0.0702   -6.0804   -1.5775 H         1 GTP         0.4229
@<TRIPOS>BOND
     1    1    2 2
     2    1    3 1
     3    1    4 1
     4    1    5 1
     5    3   33 1
     6    4   34 1
     7    5    6 1
     8    6    7 2
     9    6    8 1
    10    6    9 1
    11    8   35 1
    12    9   10 1
    13   10   11 2
    14   10   12 1
    15   10   13 1
    16   12   36 1
    17   13   14 1
    18   14   15 1
    19   14   37 1
    20   14   38 1
    21   15   16 1
    22   15   17 1
    23   15   39 1
    24   16   21 1
    25   17   18 1
    26   17   19 1
    27   17   40 1
    28   18   41 1
    29   19   20 1
    30   19   21 1
    31   19   42 1
    32   20   43 1
    33   21   22 1
    34   21   44 1
    35   22   23 ar
    36   22   32 ar
    37   23   24 ar
    38   23   45 1
    39   24   25 ar
    40   25   26 ar
    41   25   32 ar
    42   26   27 2
    43   26   28 ar
    44   28   29 ar
    45   28   46 1
    46   29   30 1
    47   29   31 ar
    48   30   47 1
    49   30   48 1
    50   31   32 ar
@<TRIPOS>SUBSTRUCTURE
     1 GTP         1 GROUP 0 A     ****
@<TRIPOS>MOLECULE
[[5-(2-amino-6-oxo-1~{H}-purin-9-yl)-3,4-dihydroxy-tetrahydrofuran-2-yl]methoxy-hydroxy-phosphoryl] phosphono hydrogen phosphate
   48    50     1     0     0
SMALL
USER_CHARGES

@<TRIPOS>ATOM
      1 PG          3.4008    2.5271   -7.2601 P.3       1 GTP         1.8160
      2 O1G         3.2678    3.1379   -8.6240 O.2       1 GTP        -0.8277
      3 O2G         3.7524    0.9498   -7.2407 O.3       1 GTP        -0.7983
      4 O3G         4.5455    3.1797   -6.3239 O.3       1 GTP        -0.7983
      5 O3B         2.0745    2.6316   -6.3427 O.3       1 GTP        -0.8272
      6 PB          0.5724    2.0751   -6.5534 P.3       1 GTP         1.9429
      7 O1B        -0.1209    2.5969   -7.7773 O.2       1 GTP        -0.8481
      8 O2B         0.7417    0.4688   -6.4890 O.3       1 GTP        -0.8171
      9 O3A        -0.1564    2.3918   -5.1480 O.3       1 GTP        -0.8114
     10 PA         -1.6645    2.1131   -4.6401 P.3       1 GTP         1.8017
     11 O1A        -2.7247    2.7840   -5.4643 O.2       1 GTP        -0.7846
     12 O2A        -1.7559    0.4980   -4.6214 O.3       1 GTP        -0.8074
     13 O5'        -1.6513    2.5331   -3.0776 O.3       1 GTP        -0.5669
     14 C5'        -0.7794    1.8744   -2.1748 C.3       1 GTP         0.1637
     15 C4'        -0.9699    2.4597   -0.7819 C.3       1 GTP         0.1099
     16 O4'        -2.1475    1.8640   -0.2014 O.3       1 GTP        -0.4100
     17 C3'         0.1697    2.1347    0.1695 C.3       1 GTP         0.0924
     18 O3'         0.1809    3.0982    1.2223 O.3       1 GTP        -0.5892
     19 C2'        -0.2543    0.7880    0.7187 C.3       1 GTP         0.0635
     20 O2'         0.3606    0.4944    1.9582 O.3       1 GTP        -0.5749
     21 C1'        -1.7682    0.9516    0.8548 C.3       1 GTP         0.2557
     22 N9         -2.5926   -0.2553    0.7436 N.pl3     1 GTP        -0.2236
     23 C8         -2.2853   -1.3774    0.0134 C.ar      1 GTP         0.4148
     24 N7         -3.2188   -2.3045    0.1026 N.2       1 GTP        -0.5808
     25 C5         -4.1563   -1.7486    0.9220 C.ar      1 GTP         0.1777
     26 C6         -5.4005   -2.3083    1.3722 C.ar      1 GTP         0.6505
     27 O6         -5.7999   -3.4222    1.0575 O.2       1 GTP        -0.5947
     28 N1         -6.0772   -1.4091    2.2084 N.pl3     1 GTP        -0.5110
     29 C2         -5.6128   -0.1223    2.5700 C.ar      1 GTP         0.6844
     30 N2         -6.4404    0.5875    3.4005 N.pl3     1 GTP        -0.8920
     31 N3         -4.4683    0.3649    2.1422 N.2       1 GTP        -0.6705
     32 C4         -3.7999   -0.4873    1.3339 C.ar      1 GTP         0.1220
     33 HOG2        4.5832    0.6430   -7.6624 H         1 GTP         0.5087
     34 HOG3        4.4874    4.1322   -6.0970 H         1 GTP         0.5087
     35 HOB2        1.2481    0.0161   -7.1966 H         1 GTP         0.5092
     36 HOA2       -1.6834    0.0091   -5.4686 H         1 GTP         0.5041
     37 H5'        -1.0111    0.8044   -2.1748 H         1 GTP         0.0584
     38 H5''        0.2527    2.0160   -2.5113 H         1 GTP         0.0584
     39 H4'        -1.1469    3.5409   -0.8523 H         1 GTP         0.1192
     40 H3'         1.1601    2.1310   -0.2934 H         1 GTP         0.0735
     41 HO3'        0.9173    2.8584    1.8048 H         1 GTP         0.4308
     42 H2'        -0.0024   -0.0091    0.0062 H         1 GTP         0.0746
     43 HO2'        1.3225    0.4909    1.8095 H         1 GTP         0.4224
     44 H1'        -2.0584    1.4255    1.8301 H         1 GTP         0.1162
     45 H8         -1.3717   -1.4583   -0.5599 H         1 GTP         0.0741
     46 HN1        -6.9732   -1.7053    2.5850 H         1 GTP         0.3343
     47 HN21       -6.1570    1.4973    3.6824 H         1 GTP         0.4229
     48 HN22       -7.2925    0.1655    3.6894 H         1 GTP         0.4229
@<TRIPOS>BOND
     1    1    2 2
     2    1    3 1
     3    1    4 1
     4    1    5 1
     5    3   33 1
     6    4   34 1
     7    5    6 1
     8    6    7 2
     9    6    8 1
    10    6    9 1
    11    8   35 1
    12    9   10 1
    13   10   11 2
    14   10   12 1
    15   10   13 1
    16   12   36 1
    17   13   14 1
    18   14   15 1
    19   14   37 1
    20   14   38 1
    21   15   16 1
    22   15   17 1
    23   15   39 1
    24   16   21 1
    25   17   18 1
    26   17   19 1
    27   17   40 1
    28   18   41 1
    29   19   20 1
    30   19   21 1
    31   19   42 1
    32   20   43 1
    33   21   22 1
    34   21   44 1
    35   22   23 ar
    36   22   32 ar
    37   23   24 ar
    38   23   45 1
    39   24   25 ar
    40   25   26 ar
    41   25   32 ar
    42   26   27 2
    43   26   28 ar
    44   28   29 ar
    45   28   46 1
    46   29   30 1
    47   29   31 ar
    48   30   47 1
    49   30   48 1
    50   31   32 ar
@<TRIPOS>SUBSTRUCTURE
     1 GTP         1 GROUP 0 A     ****
@<TRIPOS>MOLECULE
[[5-(2-amino-6-oxo-1~{H}-purin-9-yl)-3,4-dihydroxy-tetrahydrofuran-2-yl]methoxy-hydroxy-phosphoryl] phosphono hydrogen phosphate
   48    50     1     0     0
SMALL
USER_CHARGES

@<TRIPOS>ATOM
      1 PG         -4.7783    0.3049    2.4735 P.3       1 GTP         1.8160
      2 O1G        -5.6245   -0.7076    1.7593 O.2       1 GTP        -0.8277
      3 O2G        -5.5601    1.2238    3.5487 O.3       1 GTP        -0.7983
      4 O3G        -3.5475   -0.3063    3.3245 O.3       1 GTP        -0.7983
      5 O3B        -4.0565    1.3812    1.5079 O.3       1 GTP        -0.8272
      6 PB         -4.6519    2.4660    0.4692 P.3       1 GTP         1.9429
      7 O1B        -5.4729    1.8814   -0.6422 O.2       1 GTP        -0.8481
      8 O2B        -5.4260    3.5240    1.4151 O.3       1 GTP        -0.8171
      9 O3A        -3.3556    3.3123    0.0109 O.3       1 GTP        -0.8114
     10 PA         -1.9903    2.8602   -0.7249 P.3       1 GTP         1.8017
     11 O1A        -2.1965    2.2397   -2.0762 O.2       1 GTP        -0.7846
     12 O2A        -1.1115    4.2183   -0.7411 O.3       1 GTP        -0.8074
     13 O5'        -1.2435    1.9109    0.3518 O.3       1 GTP        -0.5669
     14 C5'        -0.8811    2.4285    1.6206 C.3       1 GTP         0.1637
     15 C4'        -0.1994    1.3333    2.4288 C.3       1 GTP         0.1099
     16 O4'        -1.1285    0.2356    2.5840 O.3       1 GTP        -0.4100
     17 C3'         1.0324    0.7610    1.7344 C.3       1 GTP         0.0924
     18 O3'         1.9175    0.2377    2.7247 O.3       1 GTP        -0.5892
     19 C2'         0.4468   -0.3802    0.9263 C.3       1 GTP         0.0635
     20 O2'         1.3993   -1.3703    0.5961 O.3       1 GTP        -0.5749
     21 C1'        -0.6159   -0.9100    1.8769 C.3       1 GTP         0.2557
     22 N9         -1.7127   -1.6108    1.2130 N.pl3     1 GTP        -0.2236
     23 C8         -2.5489   -1.0812    0.2607 C.ar      1 GTP         0.4148
     24 N7         -3.4468   -1.9516   -0.1576 N.2       1 GTP        -0.5808
     25 C5         -3.1696   -3.0787    0.5579 C.ar      1 GTP         0.1777
     26 C6         -3.8307   -4.3536    0.5166 C.ar      1 GTP         0.6505
     27 O6         -4.7841   -4.6033   -0.2101 O.2       1 GTP        -0.5947
     28 N1         -3.2356   -5.2522    1.4132 N.pl3     1 GTP        -0.5110
     29 C2         -2.1338   -4.9602    2.2517 C.ar      1 GTP         0.6844
     30 N2         -1.7156   -5.9923    3.0507 N.pl3     1 GTP        -0.8920
     31 N3         -1.5477   -3.7827    2.2686 N.2       1 GTP        -0.6705
     32 C4         -2.1070   -2.9013    1.4104 C.ar      1 GTP         0.1220
     33 HOG2       -6.3023    1.7868    3.2420 H         1 GTP         0.5087
     34 HOG3       -3.7394   -0.9357    4.0519 H         1 GTP         0.5087
     35 HOB2       -5.7988    4.3368    1.0121 H         1 GTP         0.5092
     36 HOA2       -0.1928    4.1846   -1.0828 H         1 GTP         0.5041
     37 H5'        -0.2032    3.2762    1.4774 H         1 GTP         0.0584
     38 H5''       -1.7839    2.7763    2.1329 H         1 GTP         0.0584
     39 H4'         0.0402    1.7079    3.4343 H         1 GTP         0.1192
     40 H3'         1.5907    1.4859    1.1353 H         1 GTP         0.0735
     41 HO3'        2.6839   -0.1150    2.2479 H         1 GTP         0.4308
     42 H2'        -0.0017    0.0018    0.0005 H         1 GTP         0.0746
     43 HO2'        2.0953   -0.9375    0.0709 H         1 GTP         0.4224
     44 H1'        -0.1998   -1.6319    2.6178 H         1 GTP         0.1162
     45 H8         -2.4545   -0.0604   -0.0844 H         1 GTP         0.0741
     46 HN1        -3.6270   -6.1884    1.4651 H         1 GTP         0.3343
     47 HN21       -0.9445   -5.8354    3.6574 H         1 GTP         0.4229
     48 HN22       -2.1993   -6.8585    2.9930 H         1 GTP         0.4229
@<TRIPOS>BOND
     1    1    2 2
     2    1    3 1
     3    1    4 1
     4    1    5 1
     5    3   33 1
     6    4   34 1
     7    5    6 1
     8    6    7 2
     9    6    8 1
    10    6    9 1
    11    8   35 1
    12    9   10 1
    13   10   11 2
    14   10   12 1
    15   10   13 1
    16   12   36 1
    17   13   14 1
    18   14   15 1
    19   14   37 1
    20   14   38 1
    21   15   16 1
    22   15   17 1
    23   15   39 1
    24   16   21 1
    25   17   18 1
    26   17   19 1
    27   17   40 1
    28   18   41 1
    29   19   20 1
    30   19   21 1
    31   19   42 1
    32   20   43 1
    33   21   22 1
    34   21   44 1
    35   22   23 ar
    36   22   32 ar
    37   23   24 ar
    38   23   45 1
    39   24   25 ar
    40   25   26 ar
    41   25   32 ar
    42   26   27 2
    43   26   28 ar
    44   28   29 ar
    45   28   46 1
    46   29   30 1
    47   29   31 ar
    48   30   47 1
    49   30   48 1
    50   31   32 ar
@<TRIPOS>SUBSTRUCTURE
     1 GTP         1 GROUP 0 A     ****
@<TRIPOS>MOLECULE
[[5-(2-amino-6-oxo-1~{H}-purin-9-yl)-3,4-dihydroxy-tetrahydrofuran-2-yl]methoxy-hydroxy-phosphoryl] phosphono hydrogen phosphate
   48    50     1     0     0
SMALL
USER_CHARGES

@<TRIPOS>ATOM
      1 PG          1.5074    8.2588    0.8481 P.3       1 GTP         1.8160
      2 O1G         1.0998    9.5234    1.5451 O.2       1 GTP        -0.8277
      3 O2G         1.8835    8.4219   -0.7151 O.3       1 GTP        -0.7983
      4 O3G         2.8015    7.5175    1.4715 O.3       1 GTP        -0.7983
      5 O3B         0.3844    7.0967    0.8491 O.3       1 GTP        -0.8272
      6 PB         -0.3522    6.3116    2.0538 P.3       1 GTP         1.9429
      7 O1B         0.5703    5.5488    2.9583 O.2       1 GTP        -0.8481
      8 O2B        -1.2374    7.4546    2.7771 O.3       1 GTP        -0.8171
      9 O3A        -1.4833    5.4343    1.3071 O.3       1 GTP        -0.8114
     10 PA         -2.5920    4.4092    1.8815 P.3       1 GTP         1.8017
     11 O1A        -3.5580    5.0276    2.8499 O.2       1 GTP        -0.7846
     12 O2A        -3.2774    3.8166    0.5413 O.3       1 GTP        -0.8074
     13 O5'        -1.7335    3.1724    2.4745 O.3       1 GTP        -0.5669
     14 C5'        -0.8811    2.4285    1.6206 C.3       1 GTP         0.1637
     15 C4'        -0.1994    1.3333    2.4288 C.3       1 GTP         0.1099
     16 O4'        -1.1285    0.2356    2.5840 O.3       1 GTP        -0.4100
     17 C3'         1.0324    0.7610    1.7344 C.3       1 GTP         0.0924
     18 O3'         1.9175    0.2377    2.7247 O.3       1 GTP        -0.5892
     19 C2'         0.4468   -0.3802    0.9263 C.3       1 GTP         0.0635
     20 O2'         1.3993   -1.3703    0.5961 O.3       1 GTP        -0.5749
     21 C1'        -0.6159   -0.9100    1.8769 C.3       1 GTP         0.2557
     22 N9         -1.7127   -1.6108    1.2130 N.pl3     1 GTP        -0.2236
     23 C8         -1.7695   -2.9586    0.9546 C.ar      1 GTP         0.4148
     24 N7         -2.8846   -3.3047    0.3416 N.2       1 GTP        -0.5808
     25 C5         -3.5626   -2.1296    0.2052 C.ar      1 GTP         0.1777
     26 C6         -4.8477   -1.8989   -0.3942 C.ar      1 GTP         0.6505
     27 O6         -5.5373   -2.7819   -0.8881 O.2       1 GTP        -0.5947
     28 N1         -5.1895   -0.5407   -0.3318 N.pl3     1 GTP        -0.5110
     29 C2         -4.3899    0.4774    0.2398 C.ar      1 GTP         0.6844
     30 N2         -4.9233    1.7390    0.1898 N.pl3     1 GTP        -0.8920
     31 N3         -3.2159    0.2369    0.7822 N.2       1 GTP        -0.6705
     32 C4         -2.8678   -1.0679    0.7322 C.ar      1 GTP         0.1220
     33 HOG2        2.6210    9.0175   -0.9668 H         1 GTP         0.5087
     34 HOG3        2.7723    7.2155    2.4042 H         1 GTP         0.5087
     35 HOB2       -1.8537    7.1946    3.4946 H         1 GTP         0.5092
     36 HOA2       -3.7783    4.4241   -0.0435 H         1 GTP         0.5041
     37 H5'        -1.4796    1.9923    0.8143 H         1 GTP         0.0584
     38 H5''       -0.1364    3.1037    1.1869 H         1 GTP         0.0584
     39 H4'         0.0402    1.7079    3.4343 H         1 GTP         0.1192
     40 H3'         1.5907    1.4859    1.1353 H         1 GTP         0.0735
     41 HO3'        2.6839   -0.1150    2.2479 H         1 GTP         0.4308
     42 H2'        -0.0017    0.0018    0.0005 H         1 GTP         0.0746
     43 HO2'        2.0953   -0.9375    0.0709 H         1 GTP         0.4224
     44 H1'        -0.1998   -1.6319    2.6178 H         1 GTP         0.1162
     45 H8         -0.9713   -3.6323    1.2352 H         1 GTP         0.0741
     46 HN1        -6.0831   -0.2651   -0.7290 H         1 GTP         0.3343
     47 HN21       -4.3984    2.4878    0.5788 H         1 GTP         0.4229
     48 HN22       -5.8145    1.8572   -0.2335 H         1 GTP         0.4229
@<TRIPOS>BOND
     1    1    2 2
     2    1    3 1
     3    1    4 1
     4    1    5 1
     5    3   33 1
     6    4   34 1
     7    5    6 1
     8    6    7 2
     9    6    8 1
    10    6    9 1
    11    8   35 1
    12    9   10 1
    13   10   11 2
    14   10   12 1
    15   10   13 1
    16   12   36 1
    17   13   14 1
    18   14   15 1
    19   14   37 1
    20   14   38 1
    21   15   16 1
    22   15   17 1
    23   15   39 1
    24   16   21 1
    25   17   18 1
    26   17   19 1
    27   17   40 1
    28   18   41 1
    29   19   20 1
    30   19   21 1
    31   19   42 1
    32   20   43 1
    33   21   22 1
    34   21   44 1
    35   22   23 ar
    36   22   32 ar
    37   23   24 ar
    38   23   45 1
    39   24   25 ar
    40   25   26 ar
    41   25   32 ar
    42   26   27 2
    43   26   28 ar
    44   28   29 ar
    45   28   46 1
    46   29   30 1
    47   29   31 ar
    48   30   47 1
    49   30   48 1
    50   31   32 ar
@<TRIPOS>SUBSTRUCTURE
     1 GTP         1 GROUP 0 A     ****
@<TRIPOS>MOLECULE
[[5-(2-amino-6-oxo-1~{H}-purin-9-yl)-3,4-dihydroxy-tetrahydrofuran-2-yl]methoxy-hydroxy-phosphoryl] phosphono hydrogen phosphate
   48    50     1     0     0
SMALL
USER_CHARGES

@<TRIPOS>ATOM
      1 PG         -0.0707    8.0214    2.4855 P.3       1 GTP         1.8160
      2 O1G         0.2305    6.9389    3.4798 O.2       1 GTP        -0.8277
      3 O2G        -1.0404    9.1990    3.0188 O.3       1 GTP        -0.7983
      4 O3G         1.2193    8.8195    1.9273 O.3       1 GTP        -0.7983
      5 O3B        -0.7985    7.5125    1.1353 O.3       1 GTP        -0.8272
      6 PB         -2.2059    6.7585    0.8888 P.3       1 GTP         1.9429
      7 O1B        -3.4113    7.5153    1.3634 O.2       1 GTP        -0.8481
      8 O2B        -2.1879    6.4106   -0.6897 O.3       1 GTP        -0.8171
      9 O3A        -1.9858    5.3044    1.5550 O.3       1 GTP        -0.8114
     10 PA         -2.9681    4.0282    1.6824 P.3       1 GTP         1.8017
     11 O1A        -4.2362    4.3013    2.4378 O.2       1 GTP        -0.7846
     12 O2A        -3.1908    3.5777    0.1446 O.3       1 GTP        -0.8074
     13 O5'        -2.0398    2.8621    2.3123 O.3       1 GTP        -0.5669
     14 C5'        -0.8811    2.4285    1.6206 C.3       1 GTP         0.1637
     15 C4'        -0.1994    1.3333    2.4288 C.3       1 GTP         0.1099
     16 O4'        -1.1285    0.2356    2.5840 O.3       1 GTP        -0.4100
     17 C3'         1.0324    0.7610    1.7344 C.3       1 GTP         0.0924
     18 O3'         1.9175    0.2377    2.7247 O.3       1 GTP        -0.5892
     19 C2'         0.4468   -0.3802    0.9263 C.3       1 GTP         0.0635
     20 O2'         1.3993   -1.3703    0.5961 O.3       1 GTP        -0.5749
     21 C1'        -0.6159   -0.9100    1.8769 C.3       1 GTP         0.2557
     22 N9         -1.7127   -1.6108    1.2130 N.pl3     1 GTP        -0.2236
     23 C8         -1.7695   -2.9586    0.9546 C.ar      1 GTP         0.4148
     24 N7         -2.8846   -3.3047    0.3416 N.2       1 GTP        -0.5808
     25 C5         -3.5626   -2.1296    0.2052 C.ar      1 GTP         0.1777
     26 C6         -4.8477   -1.8989   -0.3942 C.ar      1 GTP         0.6505
     27 O6         -5.5373   -2.7819   -0.8881 O.2       1 GTP        -0.5947
     28 N1         -5.1895   -0.5407   -0.3318 N.pl3     1 GTP        -0.5110
     29 C2         -4.3899    0.4774    0.2398 C.ar      1 GTP         0.6844
     30 N2         -4.9233    1.7390    0.1898 N.pl3     1 GTP        -0.8920
     31 N3         -3.2159    0.2369    0.7822 N.2       1 GTP        -0.6705
     32 C4         -2.8678   -1.0679    0.7322 C.ar      1 GTP         0.1220
     33 HOG2       -1.9447    8.9694    3.3214 H         1 GTP         0.5087
     34 HOG3        1.7901    9.3026    2.5621 H         1 GTP         0.5087
     35 HOB2       -2.2127    7.1461   -1.3382 H         1 GTP         0.5092
     36 HOA2       -3.6542    4.1894   -0.4662 H         1 GTP         0.5041
     37 H5'        -1.1763    2.0500    0.6366 H         1 GTP         0.0584
     38 H5''       -0.2075    3.2812    1.4874 H         1 GTP         0.0584
     39 H4'         0.0402    1.7079    3.4343 H         1 GTP         0.1192
     40 H3'         1.5907    1.4859    1.1353 H         1 GTP         0.0735
     41 HO3'        2.6839   -0.1150    2.2479 H         1 GTP         0.4308
     42 H2'        -0.0017    0.0018    0.0005 H         1 GTP         0.0746
     43 HO2'        2.0953   -0.9375    0.0709 H         1 GTP         0.4224
     44 H1'        -0.1998   -1.6319    2.6178 H         1 GTP         0.1162
     45 H8         -0.9713   -3.6323    1.2352 H         1 GTP         0.0741
     46 HN1        -6.0831   -0.2651   -0.7290 H         1 GTP         0.3343
     47 HN21       -4.3984    2.4878    0.5788 H         1 GTP         0.4229
     48 HN22       -5.8145    1.8572   -0.2335 H         1 GTP         0.4229
@<TRIPOS>BOND
     1    1    2 2
     2    1    3 1
     3    1    4 1
     4    1    5 1
     5    3   33 1
     6    4   34 1
     7    5    6 1
     8    6    7 2
     9    6    8 1
    10    6    9 1
    11    8   35 1
    12    9   10 1
    13   10   11 2
    14   10   12 1
    15   10   13 1
    16   12   36 1
    17   13   14 1
    18   14   15 1
    19   14   37 1
    20   14   38 1
    21   15   16 1
    22   15   17 1
    23   15   39 1
    24   16   21 1
    25   17   18 1
    26   17   19 1
    27   17   40 1
    28   18   41 1
    29   19   20 1
    30   19   21 1
    31   19   42 1
    32   20   43 1
    33   21   22 1
    34   21   44 1
    35   22   23 ar
    36   22   32 ar
    37   23   24 ar
    38   23   45 1
    39   24   25 ar
    40   25   26 ar
    41   25   32 ar
    42   26   27 2
    43   26   28 ar
    44   28   29 ar
    45   28   46 1
    46   29   30 1
    47   29   31 ar
    48   30   47 1
    49   30   48 1
    50   31   32 ar
@<TRIPOS>SUBSTRUCTURE
     1 GTP         1 GROUP 0 A     ****
@<TRIPOS>MOLECULE
[[5-(2-amino-6-oxo-1~{H}-purin-9-yl)-3,4-dihydroxy-tetrahydrofuran-2-yl]methoxy-hydroxy-phosphoryl] phosphono hydrogen phosphate
   48    50     1     0     0
SMALL
USER_CHARGES

@<TRIPOS>ATOM
      1 PG          0.8315    7.1615    0.8271 P.3       1 GTP         1.8160
      2 O1G         2.0671    6.5997    1.4664 O.2       1 GTP        -0.8277
      3 O2G         0.9898    8.6431    0.2014 O.3       1 GTP        -0.7983
      4 O3G         0.2394    6.2948   -0.4021 O.3       1 GTP        -0.7983
      5 O3B        -0.4363    7.3021    1.8195 O.3       1 GTP        -0.8272
      6 PB         -1.2587    6.2081    2.6780 P.3       1 GTP         1.9429
      7 O1B        -0.4369    5.4577    3.6843 O.2       1 GTP        -0.8481
      8 O2B        -2.4986    7.0468    3.2882 O.3       1 GTP        -0.8171
      9 O3A        -1.9858    5.3044    1.5550 O.3       1 GTP        -0.8114
     10 PA         -2.9681    4.0282    1.6824 P.3       1 GTP         1.8017
     11 O1A        -4.2362    4.3013    2.4378 O.2       1 GTP        -0.7846
     12 O2A        -3.1908    3.5777    0.1446 O.3       1 GTP        -0.8074
     13 O5'        -2.0398    2.8621    2.3123 O.3       1 GTP        -0.5669
     14 C5'        -0.8811    2.4285    1.6206 C.3       1 GTP         0.1637
     15 C4'        -0.1994    1.3333    2.4288 C.3       1 GTP         0.1099
     16 O4'        -1.1285    0.2356    2.5840 O.3       1 GTP        -0.4100
     17 C3'         1.0324    0.7610    1.7344 C.3       1 GTP         0.0924
     18 O3'         1.9175    0.2377    2.7247 O.3       1 GTP        -0.5892
     19 C2'         0.4468   -0.3802    0.9263 C.3       1 GTP         0.0635
     20 O2'         1.3993   -1.3703    0.5961 O.3       1 GTP        -0.5749
     21 C1'        -0.6159   -0.9100    1.8769 C.3       1 GTP         0.2557
     22 N9         -1.7127   -1.6108    1.2130 N.pl3     1 GTP        -0.2236
     23 C8         -1.7695   -2.9586    0.9546 C.ar      1 GTP         0.4148
     24 N7         -2.8846   -3.3047    0.3416 N.2       1 GTP        -0.5808
     25 C5         -3.5626   -2.1296    0.2052 C.ar      1 GTP         0.1777
     26 C6         -4.8477   -1.8989   -0.3942 C.ar      1 GTP         0.6505
     27 O6         -5.5373   -2.7819   -0.8881 O.2       1 GTP        -0.5947
     28 N1         -5.1895   -0.5407   -0.3318 N.pl3     1 GTP        -0.5110
     29 C2         -4.3899    0.4774    0.2398 C.ar      1 GTP         0.6844
     30 N2         -4.9233    1.7390    0.1898 N.pl3     1 GTP        -0.8920
     31 N3         -3.2159    0.2369    0.7822 N.2       1 GTP        -0.6705
     32 C4         -2.8678   -1.0679    0.7322 C.ar      1 GTP         0.1220
     33 HOG2        1.2451    9.3834    0.7919 H         1 GTP         0.5087
     34 HOG3       -0.0392    5.3686   -0.2392 H         1 GTP         0.5087
     35 HOB2       -3.0721    7.5577    2.6781 H         1 GTP         0.5092
     36 HOA2       -3.6542    4.1894   -0.4662 H         1 GTP         0.5041
     37 H5'        -1.1763    2.0500    0.6366 H         1 GTP         0.0584
     38 H5''       -0.2075    3.2812    1.4874 H         1 GTP         0.0584
     39 H4'         0.0402    1.7079    3.4343 H         1 GTP         0.1192
     40 H3'         1.5907    1.4859    1.1353 H         1 GTP         0.0735
     41 HO3'        2.6839   -0.1150    2.2479 H         1 GTP         0.4308
     42 H2'        -0.0017    0.0018    0.0005 H         1 GTP         0.0746
     43 HO2'        0.9369   -2.0558    0.0825 H         1 GTP         0.4224
     44 H1'        -0.1998   -1.6319    2.6178 H         1 GTP         0.1162
     45 H8         -0.9713   -3.6323    1.2352 H         1 GTP         0.0741
     46 HN1        -6.0831   -0.2651   -0.7290 H         1 GTP         0.3343
     47 HN21       -4.3984    2.4878    0.5788 H         1 GTP         0.4229
     48 HN22       -5.8145    1.8572   -0.2335 H         1 GTP         0.4229
@<TRIPOS>BOND
     1    1    2 2
     2    1    3 1
     3    1    4 1
     4    1    5 1
     5    3   33 1
     6    4   34 1
     7    5    6 1
     8    6    7 2
     9    6    8 1
    10    6    9 1
    11    8   35 1
    12    9   10 1
    13   10   11 2
    14   10   12 1
    15   10   13 1
    16   12   36 1
    17   13   14 1
    18   14   15 1
    19   14   37 1
    20   14   38 1
    21   15   16 1
    22   15   17 1
    23   15   39 1
    24   16   21 1
    25   17   18 1
    26   17   19 1
    27   17   40 1
    28   18   41 1
    29   19   20 1
    30   19   21 1
    31   19   42 1
    32   20   43 1
    33   21   22 1
    34   21   44 1
    35   22   23 ar
    36   22   32 ar
    37   23   24 ar
    38   23   45 1
    39   24   25 ar
    40   25   26 ar
    41   25   32 ar
    42   26   27 2
    43   26   28 ar
    44   28   29 ar
    45   28   46 1
    46   29   30 1
    47   29   31 ar
    48   30   47 1
    49   30   48 1
    50   31   32 ar
@<TRIPOS>SUBSTRUCTURE
     1 GTP         1 GROUP 0 A     ****
@<TRIPOS>MOLECULE
[[5-(2-amino-6-oxo-1~{H}-purin-9-yl)-3,4-dihydroxy-tetrahydrofuran-2-yl]methoxy-hydroxy-phosphoryl] phosphono hydrogen phosphate
   48    50     1     0     0
SMALL
USER_CHARGES

@<TRIPOS>ATOM
      1 PG          0.7807    5.3588    4.6334 P.3       1 GTP         1.8160
      2 O1G         1.9459    6.2143    4.2314 O.2       1 GTP        -0.8277
      3 O2G         1.1516    3.8491    5.0748 O.3       1 GTP        -0.7983
      4 O3G        -0.0814    5.9154    5.8824 O.3       1 GTP        -0.7983
      5 O3B        -0.3343    5.1545    3.4816 O.3       1 GTP        -0.8272
      6 PB         -1.2587    6.2081    2.6780 P.3       1 GTP         1.9429
      7 O1B        -2.1702    7.0265    3.5443 O.2       1 GTP        -0.8481
      8 O2B        -0.2026    7.0553    1.7949 O.3       1 GTP        -0.8171
      9 O3A        -1.9858    5.3044    1.5550 O.3       1 GTP        -0.8114
     10 PA         -2.9681    4.0282    1.6824 P.3       1 GTP         1.8017
     11 O1A        -4.2362    4.3013    2.4378 O.2       1 GTP        -0.7846
     12 O2A        -3.1908    3.5777    0.1446 O.3       1 GTP        -0.8074
     13 O5'        -2.0398    2.8621    2.3123 O.3       1 GTP        -0.5669
     14 C5'        -0.8811    2.4285    1.6206 C.3       1 GTP         0.1637
     15 C4'        -0.1994    1.3333    2.4288 C.3       1 GTP         0.1099
     16 O4'        -1.1285    0.2356    2.5840 O.3       1 GTP        -0.4100
     17 C3'         1.0324    0.7610    1.7344 C.3       1 GTP         0.0924
     18 O3'         1.9175    0.2377    2.7247 O.3       1 GTP        -0.5892
     19 C2'         0.4468   -0.3802    0.9263 C.3       1 GTP         0.0635
     20 O2'         1.3993   -1.3703    0.5961 O.3       1 GTP        -0.5749
     21 C1'        -0.6159   -0.9100    1.8769 C.3       1 GTP         0.2557
     22 N9         -1.7127   -1.6108    1.2130 N.pl3     1 GTP        -0.2236
     23 C8         -1.7695   -2.9586    0.9546 C.ar      1 GTP         0.4148
     24 N7         -2.8846   -3.3047    0.3416 N.2       1 GTP        -0.5808
     25 C5         -3.5626   -2.1296    0.2052 C.ar      1 GTP         0.1777
     26 C6         -4.8477   -1.8989   -0.3942 C.ar      1 GTP         0.6505
     27 O6         -5.5373   -2.7819   -0.8881 O.2       1 GTP        -0.5947
     28 N1         -5.1895   -0.5407   -0.3318 N.pl3     1 GTP        -0.5110
     29 C2         -4.3899    0.4774    0.2398 C.ar      1 GTP         0.6844
     30 N2         -4.9233    1.7390    0.1898 N.pl3     1 GTP        -0.8920
     31 N3         -3.2159    0.2369    0.7822 N.2       1 GTP        -0.6705
     32 C4         -2.8678   -1.0679    0.7322 C.ar      1 GTP         0.1220
     33 HOG2        1.7536    3.7112    5.8368 H         1 GTP         0.5087
     34 HOG3       -0.8561    5.3996    6.1920 H         1 GTP         0.5087
     35 HOB2       -0.5422    7.7062    1.1444 H         1 GTP         0.5092
     36 HOA2       -3.6542    4.1894   -0.4662 H         1 GTP         0.5041
     37 H5'        -1.1763    2.0500    0.6366 H         1 GTP         0.0584
     38 H5''       -0.2075    3.2812    1.4874 H         1 GTP         0.0584
     39 H4'         0.0402    1.7079    3.4343 H         1 GTP         0.1192
     40 H3'         1.5907    1.4859    1.1353 H         1 GTP         0.0735
     41 HO3'        2.1521    0.9800    3.3017 H         1 GTP         0.4308
     42 H2'        -0.0017    0.0018    0.0005 H         1 GTP         0.0746
     43 HO2'        0.9369   -2.0558    0.0825 H         1 GTP         0.4224
     44 H1'        -0.1998   -1.6319    2.6178 H         1 GTP         0.1162
     45 H8         -0.9713   -3.6323    1.2352 H         1 GTP         0.0741
     46 HN1        -6.0831   -0.2651   -0.7290 H         1 GTP         0.3343
     47 HN21       -4.3984    2.4878    0.5788 H         1 GTP         0.4229
     48 HN22       -5.8145    1.8572   -0.2335 H         1 GTP         0.4229
@<TRIPOS>BOND
     1    1    2 2
     2    1    3 1
     3    1    4 1
     4    1    5 1
     5    3   33 1
     6    4   34 1
     7    5    6 1
     8    6    7 2
     9    6    8 1
    10    6    9 1
    11    8   35 1
    12    9   10 1
    13   10   11 2
    14   10   12 1
    15   10   13 1
    16   12   36 1
    17   13   14 1
    18   14   15 1
    19   14   37 1
    20   14   38 1
    21   15   16 1
    22   15   17 1
    23   15   39 1
    24   16   21 1
    25   17   18 1
    26   17   19 1
    27   17   40 1
    28   18   41 1
    29   19   20 1
    30   19   21 1
    31   19   42 1
    32   20   43 1
    33   21   22 1
    34   21   44 1
    35   22   23 ar
    36   22   32 ar
    37   23   24 ar
    38   23   45 1
    39   24   25 ar
    40   25   26 ar
    41   25   32 ar
    42   26   27 2
    43   26   28 ar
    44   28   29 ar
    45   28   46 1
    46   29   30 1
    47   29   31 ar
    48   30   47 1
    49   30   48 1
    50   31   32 ar
@<TRIPOS>SUBSTRUCTURE
     1 GTP         1 GROUP 0 A     ****
@<TRIPOS>MOLECULE
[[5-(2-amino-6-oxo-1~{H}-purin-9-yl)-3,4-dihydroxy-tetrahydrofuran-2-yl]methoxy-hydroxy-phosphoryl] phosphono hydrogen phosphate
   48    50     1     0     0
SMALL
USER_CHARGES

@<TRIPOS>ATOM
      1 PG         -4.1270    8.8436    1.7044 P.3       1 GTP         1.8160
      2 O1G        -4.6781    9.2699    0.3757 O.2       1 GTP        -0.8277
      3 O2G        -2.9729    9.7978    2.3121 O.3       1 GTP        -0.7983
      4 O3G        -5.2105    8.7544    2.9006 O.3       1 GTP        -0.7983
      5 O3B        -3.4502    7.3761    1.7137 O.3       1 GTP        -0.8272
      6 PB         -2.2059    6.7585    0.8888 P.3       1 GTP         1.9429
      7 O1B        -2.3768    6.7716   -0.6017 O.2       1 GTP        -0.8481
      8 O2B        -0.9280    7.5785    1.4434 O.3       1 GTP        -0.8171
      9 O3A        -1.9858    5.3044    1.5550 O.3       1 GTP        -0.8114
     10 PA         -2.9681    4.0282    1.6824 P.3       1 GTP         1.8017
     11 O1A        -4.2362    4.3013    2.4378 O.2       1 GTP        -0.7846
     12 O2A        -3.1908    3.5777    0.1446 O.3       1 GTP        -0.8074
     13 O5'        -2.0398    2.8621    2.3123 O.3       1 GTP        -0.5669
     14 C5'        -0.8811    2.4285    1.6206 C.3       1 GTP         0.1637
     15 C4'        -0.1994    1.3333    2.4288 C.3       1 GTP         0.1099
     16 O4'        -1.1285    0.2356    2.5840 O.3       1 GTP        -0.4100
     17 C3'         1.0324    0.7610    1.7344 C.3       1 GTP         0.0924
     18 O3'         1.9175    0.2377    2.7247 O.3       1 GTP        -0.5892
     19 C2'         0.4468   -0.3802    0.9263 C.3       1 GTP         0.0635
     20 O2'         1.3993   -1.3703    0.5961 O.3       1 GTP        -0.5749
     21 C1'        -0.6159   -0.9100    1.8769 C.3       1 GTP         0.2557
     22 N9         -1.7127   -1.6108    1.2130 N.pl3     1 GTP        -0.2236
     23 C8         -1.7695   -2.9586    0.9546 C.ar      1 GTP         0.4148
     24 N7         -2.8846   -3.3047    0.3416 N.2       1 GTP        -0.5808
     25 C5         -3.5626   -2.1296    0.2052 C.ar      1 GTP         0.1777
     26 C6         -4.8477   -1.8989   -0.3942 C.ar      1 GTP         0.6505
     27 O6         -5.5373   -2.7819   -0.8881 O.2       1 GTP        -0.5947
     28 N1         -5.1895   -0.5407   -0.3318 N.pl3     1 GTP        -0.5110
     29 C2         -4.3899    0.4774    0.2398 C.ar      1 GTP         0.6844
     30 N2         -4.9233    1.7390    0.1898 N.pl3     1 GTP        -0.8920
     31 N3         -3.2159    0.2369    0.7822 N.2       1 GTP        -0.6705
     32 C4         -2.8678   -1.0679    0.7322 C.ar      1 GTP         0.1220
     33 HOG2       -2.1453    9.9266    1.8016 H         1 GTP         0.5087
     34 HOG3       -5.9704    8.1411    2.8082 H         1 GTP         0.5087
     35 HOB2       -0.0302    7.3128    1.1511 H         1 GTP         0.5092
     36 HOA2       -3.6542    4.1894   -0.4662 H         1 GTP         0.5041
     37 H5'        -1.1763    2.0500    0.6366 H         1 GTP         0.0584
     38 H5''       -0.2075    3.2812    1.4874 H         1 GTP         0.0584
     39 H4'         0.0402    1.7079    3.4343 H         1 GTP         0.1192
     40 H3'         1.5907    1.4859    1.1353 H         1 GTP         0.0735
     41 HO3'        2.6839   -0.1150    2.2479 H         1 GTP         0.4308
     42 H2'        -0.0017    0.0018    0.0005 H         1 GTP         0.0746
     43 HO2'        2.0953   -0.9375    0.0709 H         1 GTP         0.4224
     44 H1'        -0.1998   -1.6319    2.6178 H         1 GTP         0.1162
     45 H8         -0.9713   -3.6323    1.2352 H         1 GTP         0.0741
     46 HN1        -6.0831   -0.2651   -0.7290 H         1 GTP         0.3343
     47 HN21       -4.3984    2.4878    0.5788 H         1 GTP         0.4229
     48 HN22       -5.8145    1.8572   -0.2335 H         1 GTP         0.4229
@<TRIPOS>BOND
     1    1    2 2
     2    1    3 1
     3    1    4 1
     4    1    5 1
     5    3   33 1
     6    4   34 1
     7    5    6 1
     8    6    7 2
     9    6    8 1
    10    6    9 1
    11    8   35 1
    12    9   10 1
    13   10   11 2
    14   10   12 1
    15   10   13 1
    16   12   36 1
    17   13   14 1
    18   14   15 1
    19   14   37 1
    20   14   38 1
    21   15   16 1
    22   15   17 1
    23   15   39 1
    24   16   21 1
    25   17   18 1
    26   17   19 1
    27   17   40 1
    28   18   41 1
    29   19   20 1
    30   19   21 1
    31   19   42 1
    32   20   43 1
    33   21   22 1
    34   21   44 1
    35   22   23 ar
    36   22   32 ar
    37   23   24 ar
    38   23   45 1
    39   24   25 ar
    40   25   26 ar
    41   25   32 ar
    42   26   27 2
    43   26   28 ar
    44   28   29 ar
    45   28   46 1
    46   29   30 1
    47   29   31 ar
    48   30   47 1
    49   30   48 1
    50   31   32 ar
@<TRIPOS>SUBSTRUCTURE
     1 GTP         1 GROUP 0 A     ****
@<TRIPOS>MOLECULE
[[5-(2-amino-6-oxo-1~{H}-purin-9-yl)-3,4-dihydroxy-tetrahydrofuran-2-yl]methoxy-hydroxy-phosphoryl] phosphono hydrogen phosphate
   48    50     1     0     0
SMALL
USER_CHARGES

@<TRIPOS>ATOM
      1 PG         -1.1243    6.4797   -1.9092 P.3       1 GTP         1.8160
      2 O1G        -1.5035    7.9213   -1.7387 O.2       1 GTP        -0.8277
      3 O2G        -0.3665    6.1233   -3.2914 O.3       1 GTP        -0.7983
      4 O3G        -0.1349    5.8909   -0.7746 O.3       1 GTP        -0.7983
      5 O3B        -2.3679    5.4480   -1.8812 O.3       1 GTP        -0.8272
      6 PB         -3.4745    5.1252   -0.7491 P.3       1 GTP         1.9429
      7 O1B        -4.3194    6.2987   -0.3492 O.2       1 GTP        -0.8481
      8 O2B        -4.2870    3.8636   -1.3501 O.3       1 GTP        -0.8171
      9 O3A        -2.6221    4.4398    0.4384 O.3       1 GTP        -0.8114
     10 PA         -3.0702    3.8634    1.8796 P.3       1 GTP         1.8017
     11 O1A        -3.7062    4.8832    2.7789 O.2       1 GTP        -0.7846
     12 O2A        -4.0303    2.6186    1.4978 O.3       1 GTP        -0.8074
     13 O5'        -1.7335    3.1724    2.4745 O.3       1 GTP        -0.5669
     14 C5'        -0.8811    2.4285    1.6206 C.3       1 GTP         0.1637
     15 C4'        -0.1994    1.3333    2.4288 C.3       1 GTP         0.1099
     16 O4'        -1.1285    0.2356    2.5840 O.3       1 GTP        -0.4100
     17 C3'         1.0324    0.7610    1.7344 C.3       1 GTP         0.0924
     18 O3'         1.9175    0.2377    2.7247 O.3       1 GTP        -0.5892
     19 C2'         0.4468   -0.3802    0.9263 C.3       1 GTP         0.0635
     20 O2'         1.3993   -1.3703    0.5961 O.3       1 GTP        -0.5749
     21 C1'        -0.6159   -0.9100    1.8769 C.3       1 GTP         0.2557
     22 N9         -1.7127   -1.6108    1.2130 N.pl3     1 GTP        -0.2236
     23 C8         -2.0873   -2.9139    1.4324 C.ar      1 GTP         0.4148
     24 N7         -3.1135   -3.2727    0.6860 N.2       1 GTP        -0.5808
     25 C5         -3.4017   -2.1526   -0.0362 C.ar      1 GTP         0.1777
     26 C6         -4.4318   -1.9582   -1.0186 C.ar      1 GTP         0.6505
     27 O6         -5.2284   -2.8266   -1.3513 O.2       1 GTP        -0.5947
     28 N1         -4.3916   -0.6538   -1.5306 N.pl3     1 GTP        -0.5110
     29 C2         -3.4693    0.3474   -1.1439 C.ar      1 GTP         0.6844
     30 N2         -3.6143    1.5541   -1.7775 N.pl3     1 GTP        -0.8920
     31 N3         -2.5355    0.1410   -0.2407 N.2       1 GTP        -0.6705
     32 C4         -2.5574   -1.1117    0.2656 C.ar      1 GTP         0.1220
     33 HOG2        0.4864    6.5637   -3.4928 H         1 GTP         0.5087
     34 HOG3       -0.4286    5.8973    0.1613 H         1 GTP         0.5087
     35 HOB2       -4.8265    3.9885   -2.1597 H         1 GTP         0.5092
     36 HOA2       -4.8723    2.7961    1.0272 H         1 GTP         0.5041
     37 H5'        -1.4796    1.9923    0.8143 H         1 GTP         0.0584
     38 H5''       -0.1364    3.1037    1.1869 H         1 GTP         0.0584
     39 H4'         0.0402    1.7079    3.4343 H         1 GTP         0.1192
     40 H3'         1.5907    1.4859    1.1353 H         1 GTP         0.0735
     41 HO3'        2.6839   -0.1150    2.2479 H         1 GTP         0.4308
     42 H2'        -0.0017    0.0018    0.0005 H         1 GTP         0.0746
     43 HO2'        0.9369   -2.0558    0.0825 H         1 GTP         0.4224
     44 H1'        -0.1998   -1.6319    2.6178 H         1 GTP         0.1162
     45 H8         -1.5757   -3.5474    2.1443 H         1 GTP         0.0741
     46 HN1        -5.0800   -0.4074   -2.2361 H         1 GTP         0.3343
     47 HN21       -2.9894    2.2891   -1.5392 H         1 GTP         0.4229
     48 HN22       -4.3387    1.6483   -2.4512 H         1 GTP         0.4229
@<TRIPOS>BOND
     1    1    2 2
     2    1    3 1
     3    1    4 1
     4    1    5 1
     5    3   33 1
     6    4   34 1
     7    5    6 1
     8    6    7 2
     9    6    8 1
    10    6    9 1
    11    8   35 1
    12    9   10 1
    13   10   11 2
    14   10   12 1
    15   10   13 1
    16   12   36 1
    17   13   14 1
    18   14   15 1
    19   14   37 1
    20   14   38 1
    21   15   16 1
    22   15   17 1
    23   15   39 1
    24   16   21 1
    25   17   18 1
    26   17   19 1
    27   17   40 1
    28   18   41 1
    29   19   20 1
    30   19   21 1
    31   19   42 1
    32   20   43 1
    33   21   22 1
    34   21   44 1
    35   22   23 ar
    36   22   32 ar
    37   23   24 ar
    38   23   45 1
    39   24   25 ar
    40   25   26 ar
    41   25   32 ar
    42   26   27 2
    43   26   28 ar
    44   28   29 ar
    45   28   46 1
    46   29   30 1
    47   29   31 ar
    48   30   47 1
    49   30   48 1
    50   31   32 ar
@<TRIPOS>SUBSTRUCTURE
     1 GTP         1 GROUP 0 A     ****
@<TRIPOS>MOLECULE
[[5-(2-amino-6-oxo-1~{H}-purin-9-yl)-3,4-dihydroxy-tetrahydrofuran-2-yl]methoxy-hydroxy-phosphoryl] phosphono hydrogen phosphate
   48    50     1     0     0
SMALL
USER_CHARGES

@<TRIPOS>ATOM
      1 PG         -0.2328    8.9349    0.6171 P.3       1 GTP         1.8160
      2 O1G        -1.0474   10.1227    1.0375 O.2       1 GTP        -0.8277
      3 O2G        -0.0873    8.7268   -0.9789 O.3       1 GTP        -0.7983
      4 O3G         1.2972    8.9321    1.1384 O.3       1 GTP        -0.7983
      5 O3B        -0.7985    7.5125    1.1353 O.3       1 GTP        -0.8272
      6 PB         -2.2059    6.7585    0.8888 P.3       1 GTP         1.9429
      7 O1B        -3.4113    7.5153    1.3634 O.2       1 GTP        -0.8481
      8 O2B        -2.1879    6.4106   -0.6897 O.3       1 GTP        -0.8171
      9 O3A        -1.9858    5.3044    1.5550 O.3       1 GTP        -0.8114
     10 PA         -2.9681    4.0282    1.6824 P.3       1 GTP         1.8017
     11 O1A        -4.2362    4.3013    2.4378 O.2       1 GTP        -0.7846
     12 O2A        -3.1908    3.5777    0.1446 O.3       1 GTP        -0.8074
     13 O5'        -2.0398    2.8621    2.3123 O.3       1 GTP        -0.5669
     14 C5'        -0.8811    2.4285    1.6206 C.3       1 GTP         0.1637
     15 C4'        -0.1994    1.3333    2.4288 C.3       1 GTP         0.1099
     16 O4'        -1.1285    0.2356    2.5840 O.3       1 GTP        -0.4100
     17 C3'         1.0324    0.7610    1.7344 C.3       1 GTP         0.0924
     18 O3'         1.9175    0.2377    2.7247 O.3       1 GTP        -0.5892
     19 C2'         0.4468   -0.3802    0.9263 C.3       1 GTP         0.0635
     20 O2'         1.3993   -1.3703    0.5961 O.3       1 GTP        -0.5749
     21 C1'        -0.6159   -0.9100    1.8769 C.3       1 GTP         0.2557
     22 N9         -1.7127   -1.6108    1.2130 N.pl3     1 GTP        -0.2236
     23 C8         -1.7695   -2.9586    0.9546 C.ar      1 GTP         0.4148
     24 N7         -2.8846   -3.3047    0.3416 N.2       1 GTP        -0.5808
     25 C5         -3.5626   -2.1296    0.2052 C.ar      1 GTP         0.1777
     26 C6         -4.8477   -1.8989   -0.3942 C.ar      1 GTP         0.6505
     27 O6         -5.5373   -2.7819   -0.8881 O.2       1 GTP        -0.5947
     28 N1         -5.1895   -0.5407   -0.3318 N.pl3     1 GTP        -0.5110
     29 C2         -4.3899    0.4774    0.2398 C.ar      1 GTP         0.6844
     30 N2         -4.9233    1.7390    0.1898 N.pl3     1 GTP        -0.8920
     31 N3         -3.2159    0.2369    0.7822 N.2       1 GTP        -0.6705
     32 C4         -2.8678   -1.0679    0.7322 C.ar      1 GTP         0.1220
     33 HOG2        0.3292    9.4353   -1.5144 H         1 GTP         0.5087
     34 HOG3        1.4699    8.9446    2.1039 H         1 GTP         0.5087
     35 HOB2       -2.2127    7.1461   -1.3382 H         1 GTP         0.5092
     36 HOA2       -3.6542    4.1894   -0.4662 H         1 GTP         0.5041
     37 H5'        -1.1763    2.0500    0.6366 H         1 GTP         0.0584
     38 H5''       -0.2075    3.2812    1.4874 H         1 GTP         0.0584
     39 H4'         0.0402    1.7079    3.4343 H         1 GTP         0.1192
     40 H3'         1.5907    1.4859    1.1353 H         1 GTP         0.0735
     41 HO3'        2.6839   -0.1150    2.2479 H         1 GTP         0.4308
     42 H2'        -0.0017    0.0018    0.0005 H         1 GTP         0.0746
     43 HO2'        2.0953   -0.9375    0.0709 H         1 GTP         0.4224
     44 H1'        -0.1998   -1.6319    2.6178 H         1 GTP         0.1162
     45 H8         -0.9713   -3.6323    1.2352 H         1 GTP         0.0741
     46 HN1        -6.0831   -0.2651   -0.7290 H         1 GTP         0.3343
     47 HN21       -4.3984    2.4878    0.5788 H         1 GTP         0.4229
     48 HN22       -5.8145    1.8572   -0.2335 H         1 GTP         0.4229
@<TRIPOS>BOND
     1    1    2 2
     2    1    3 1
     3    1    4 1
     4    1    5 1
     5    3   33 1
     6    4   34 1
     7    5    6 1
     8    6    7 2
     9    6    8 1
    10    6    9 1
    11    8   35 1
    12    9   10 1
    13   10   11 2
    14   10   12 1
    15   10   13 1
    16   12   36 1
    17   13   14 1
    18   14   15 1
    19   14   37 1
    20   14   38 1
    21   15   16 1
    22   15   17 1
    23   15   39 1
    24   16   21 1
    25   17   18 1
    26   17   19 1
    27   17   40 1
    28   18   41 1
    29   19   20 1
    30   19   21 1
    31   19   42 1
    32   20   43 1
    33   21   22 1
    34   21   44 1
    35   22   23 ar
    36   22   32 ar
    37   23   24 ar
    38   23   45 1
    39   24   25 ar
    40   25   26 ar
    41   25   32 ar
    42   26   27 2
    43   26   28 ar
    44   28   29 ar
    45   28   46 1
    46   29   30 1
    47   29   31 ar
    48   30   47 1
    49   30   48 1
    50   31   32 ar
@<TRIPOS>SUBSTRUCTURE
     1 GTP         1 GROUP 0 A     ****
@<TRIPOS>MOLECULE
[[5-(2-amino-6-oxo-1~{H}-purin-9-yl)-3,4-dihydroxy-tetrahydrofuran-2-yl]methoxy-hydroxy-phosphoryl] phosphono hydrogen phosphate
   48    50     1     0     0
SMALL
USER_CHARGES

@<TRIPOS>ATOM
      1 PG         -2.5039    5.9932   -3.3964 P.3       1 GTP         1.8160
      2 O1G        -3.1568    7.3383   -3.5210 O.2       1 GTP        -0.8277
      3 O2G        -3.2535    4.7872   -4.1679 O.3       1 GTP        -0.7983
      4 O3G        -0.9882    5.9113   -3.9521 O.3       1 GTP        -0.7983
      5 O3B        -2.3679    5.4480   -1.8812 O.3       1 GTP        -0.8272
      6 PB         -3.4745    5.1252   -0.7491 P.3       1 GTP         1.9429
      7 O1B        -4.3194    6.2987   -0.3492 O.2       1 GTP        -0.8481
      8 O2B        -4.2870    3.8636   -1.3501 O.3       1 GTP        -0.8171
      9 O3A        -2.6221    4.4398    0.4384 O.3       1 GTP        -0.8114
     10 PA         -3.0702    3.8634    1.8796 P.3       1 GTP         1.8017
     11 O1A        -3.7062    4.8832    2.7789 O.2       1 GTP        -0.7846
     12 O2A        -4.0303    2.6186    1.4978 O.3       1 GTP        -0.8074
     13 O5'        -1.7335    3.1724    2.4745 O.3       1 GTP        -0.5669
     14 C5'        -0.8811    2.4285    1.6206 C.3       1 GTP         0.1637
     15 C4'        -0.1994    1.3333    2.4288 C.3       1 GTP         0.1099
     16 O4'        -1.1285    0.2356    2.5840 O.3       1 GTP        -0.4100
     17 C3'         1.0324    0.7610    1.7344 C.3       1 GTP         0.0924
     18 O3'         1.9175    0.2377    2.7247 O.3       1 GTP        -0.5892
     19 C2'         0.4468   -0.3802    0.9263 C.3       1 GTP         0.0635
     20 O2'         1.3993   -1.3703    0.5961 O.3       1 GTP        -0.5749
     21 C1'        -0.6159   -0.9100    1.8769 C.3       1 GTP         0.2557
     22 N9         -1.7127   -1.6108    1.2130 N.pl3     1 GTP        -0.2236
     23 C8         -2.0873   -2.9139    1.4324 C.ar      1 GTP         0.4148
     24 N7         -3.1135   -3.2727    0.6860 N.2       1 GTP        -0.5808
     25 C5         -3.4017   -2.1526   -0.0362 C.ar      1 GTP         0.1777
     26 C6         -4.4318   -1.9582   -1.0186 C.ar      1 GTP         0.6505
     27 O6         -5.2284   -2.8266   -1.3513 O.2       1 GTP        -0.5947
     28 N1         -4.3916   -0.6538   -1.5306 N.pl3     1 GTP        -0.5110
     29 C2         -3.4693    0.3474   -1.1439 C.ar      1 GTP         0.6844
     30 N2         -3.6143    1.5541   -1.7775 N.pl3     1 GTP        -0.8920
     31 N3         -2.5355    0.1410   -0.2407 N.2       1 GTP        -0.6705
     32 C4         -2.5574   -1.1117    0.2656 C.ar      1 GTP         0.1220
     33 HOG2       -4.1773    4.5675   -3.9222 H         1 GTP         0.5087
     34 HOG3       -0.8169    6.1153   -4.8961 H         1 GTP         0.5087
     35 HOB2       -4.8265    3.9885   -2.1597 H         1 GTP         0.5092
     36 HOA2       -4.8723    2.7961    1.0272 H         1 GTP         0.5041
     37 H5'        -1.4796    1.9923    0.8143 H         1 GTP         0.0584
     38 H5''       -0.1364    3.1037    1.1869 H         1 GTP         0.0584
     39 H4'         0.0402    1.7079    3.4343 H         1 GTP         0.1192
     40 H3'         1.5907    1.4859    1.1353 H         1 GTP         0.0735
     41 HO3'        2.6839   -0.1150    2.2479 H         1 GTP         0.4308
     42 H2'        -0.0017    0.0018    0.0005 H         1 GTP         0.0746
     43 HO2'        0.9369   -2.0558    0.0825 H         1 GTP         0.4224
     44 H1'        -0.1998   -1.6319    2.6178 H         1 GTP         0.1162
     45 H8         -1.5757   -3.5474    2.1443 H         1 GTP         0.0741
     46 HN1        -5.0800   -0.4074   -2.2361 H         1 GTP         0.3343
     47 HN21       -4.3388    1.6481   -2.4511 H         1 GTP         0.4229
     48 HN22       -2.9895    2.2892   -1.5394 H         1 GTP         0.4229
@<TRIPOS>BOND
     1    1    2 2
     2    1    3 1
     3    1    4 1
     4    1    5 1
     5    3   33 1
     6    4   34 1
     7    5    6 1
     8    6    7 2
     9    6    8 1
    10    6    9 1
    11    8   35 1
    12    9   10 1
    13   10   11 2
    14   10   12 1
    15   10   13 1
    16   12   36 1
    17   13   14 1
    18   14   15 1
    19   14   37 1
    20   14   38 1
    21   15   16 1
    22   15   17 1
    23   15   39 1
    24   16   21 1
    25   17   18 1
    26   17   19 1
    27   17   40 1
    28   18   41 1
    29   19   20 1
    30   19   21 1
    31   19   42 1
    32   20   43 1
    33   21   22 1
    34   21   44 1
    35   22   23 ar
    36   22   32 ar
    37   23   24 ar
    38   23   45 1
    39   24   25 ar
    40   25   26 ar
    41   25   32 ar
    42   26   27 2
    43   26   28 ar
    44   28   29 ar
    45   28   46 1
    46   29   30 1
    47   29   31 ar
    48   30   47 1
    49   30   48 1
    50   31   32 ar
@<TRIPOS>SUBSTRUCTURE
     1 GTP         1 GROUP 0 A     ****
@<TRIPOS>MOLECULE
[[5-(2-amino-6-oxo-1~{H}-purin-9-yl)-3,4-dihydroxy-tetrahydrofuran-2-yl]methoxy-hydroxy-phosphoryl] phosphono hydrogen phosphate
   48    50     1     0     0
SMALL
USER_CHARGES

@<TRIPOS>ATOM
      1 PG         -5.4743    4.4589    2.4832 P.3       1 GTP         1.8160
      2 O1G        -5.3610    3.6604    3.7484 O.2       1 GTP        -0.8277
      3 O2G        -6.7363    5.4658    2.4123 O.3       1 GTP        -0.7983
      4 O3G        -4.2115    5.4142    2.1586 O.3       1 GTP        -0.7983
      5 O3B        -5.6187    3.5740    1.1386 O.3       1 GTP        -0.8272
      6 PB         -4.6519    2.4660    0.4692 P.3       1 GTP         1.9429
      7 O1B        -4.3761    1.2726    1.3356 O.2       1 GTP        -0.8481
      8 O2B        -5.3584    2.1407   -0.9479 O.3       1 GTP        -0.8171
      9 O3A        -3.3556    3.3123    0.0109 O.3       1 GTP        -0.8114
     10 PA         -1.9903    2.8602   -0.7249 P.3       1 GTP         1.8017
     11 O1A        -2.1965    2.2397   -2.0762 O.2       1 GTP        -0.7846
     12 O2A        -1.1115    4.2183   -0.7411 O.3       1 GTP        -0.8074
     13 O5'        -1.2435    1.9109    0.3518 O.3       1 GTP        -0.5669
     14 C5'        -0.8811    2.4285    1.6206 C.3       1 GTP         0.1637
     15 C4'        -0.1994    1.3333    2.4288 C.3       1 GTP         0.1099
     16 O4'        -1.1285    0.2356    2.5840 O.3       1 GTP        -0.4100
     17 C3'         1.0324    0.7610    1.7344 C.3       1 GTP         0.0924
     18 O3'         1.9175    0.2377    2.7247 O.3       1 GTP        -0.5892
     19 C2'         0.4468   -0.3802    0.9263 C.3       1 GTP         0.0635
     20 O2'         1.3993   -1.3703    0.5961 O.3       1 GTP        -0.5749
     21 C1'        -0.6159   -0.9100    1.8769 C.3       1 GTP         0.2557
     22 N9         -1.7127   -1.6108    1.2130 N.pl3     1 GTP        -0.2236
     23 C8         -3.0375   -1.2493    1.2452 C.ar      1 GTP         0.4148
     24 N7         -3.7986   -2.0732    0.5519 N.2       1 GTP        -0.5808
     25 C5         -2.9221   -2.9947    0.0601 C.ar      1 GTP         0.1777
     26 C6         -3.1909   -4.1355   -0.7707 C.ar      1 GTP         0.6505
     27 O6         -4.3086   -4.4427   -1.1652 O.2       1 GTP        -0.5947
     28 N1         -2.0085   -4.8320   -1.0576 N.pl3     1 GTP        -0.5110
     29 C2         -0.7182   -4.4742   -0.5998 C.ar      1 GTP         0.6844
     30 N2          0.2972   -5.3016   -1.0037 N.pl3     1 GTP        -0.8920
     31 N3         -0.5015   -3.4231    0.1607 N.2       1 GTP        -0.6705
     32 C4         -1.6297   -2.7374    0.4490 C.ar      1 GTP         0.1220
     33 HOG2       -6.8173    6.1743    3.0857 H         1 GTP         0.5087
     34 HOG3       -3.3259    5.0082    2.0445 H         1 GTP         0.5087
     35 HOB2       -6.2357    1.7020   -0.9512 H         1 GTP         0.5092
     36 HOA2       -0.1928    4.1846   -1.0828 H         1 GTP         0.5041
     37 H5'        -0.2032    3.2762    1.4774 H         1 GTP         0.0584
     38 H5''       -1.7839    2.7763    2.1329 H         1 GTP         0.0584
     39 H4'         0.0402    1.7079    3.4343 H         1 GTP         0.1192
     40 H3'         1.5907    1.4859    1.1353 H         1 GTP         0.0735
     41 HO3'        2.6839   -0.1150    2.2479 H         1 GTP         0.4308
     42 H2'        -0.0017    0.0018    0.0005 H         1 GTP         0.0746
     43 HO2'        2.0953   -0.9375    0.0709 H         1 GTP         0.4224
     44 H1'        -0.1998   -1.6319    2.6178 H         1 GTP         0.1162
     45 H8         -3.3837   -0.3807    1.7887 H         1 GTP         0.0741
     46 HN1        -2.0841   -5.6603   -1.6411 H         1 GTP         0.3343
     47 HN21        1.2221   -5.0911   -0.7073 H         1 GTP         0.4229
     48 HN22        0.0702   -6.0804   -1.5775 H         1 GTP         0.4229
@<TRIPOS>BOND
     1    1    2 2
     2    1    3 1
     3    1    4 1
     4    1    5 1
     5    3   33 1
     6    4   34 1
     7    5    6 1
     8    6    7 2
     9    6    8 1
    10    6    9 1
    11    8   35 1
    12    9   10 1
    13   10   11 2
    14   10   12 1
    15   10   13 1
    16   12   36 1
    17   13   14 1
    18   14   15 1
    19   14   37 1
    20   14   38 1
    21   15   16 1
    22   15   17 1
    23   15   39 1
    24   16   21 1
    25   17   18 1
    26   17   19 1
    27   17   40 1
    28   18   41 1
    29   19   20 1
    30   19   21 1
    31   19   42 1
    32   20   43 1
    33   21   22 1
    34   21   44 1
    35   22   23 ar
    36   22   32 ar
    37   23   24 ar
    38   23   45 1
    39   24   25 ar
    40   25   26 ar
    41   25   32 ar
    42   26   27 2
    43   26   28 ar
    44   28   29 ar
    45   28   46 1
    46   29   30 1
    47   29   31 ar
    48   30   47 1
    49   30   48 1
    50   31   32 ar
@<TRIPOS>SUBSTRUCTURE
     1 GTP         1 GROUP 0 A     ****
@<TRIPOS>MOLECULE
[[5-(2-amino-6-oxo-1~{H}-purin-9-yl)-3,4-dihydroxy-tetrahydrofuran-2-yl]methoxy-hydroxy-phosphoryl] phosphono hydrogen phosphate
   48    50     1     0     0
SMALL
USER_CHARGES

@<TRIPOS>ATOM
      1 PG         -3.8744    3.8914   -2.2347 P.3       1 GTP         1.8160
      2 O1G        -4.4813    3.7288   -0.8722 O.2       1 GTP        -0.8277
      3 O2G        -3.3627    2.5255   -2.9306 O.3       1 GTP        -0.7983
      4 O3G        -4.8506    4.5388   -3.3485 O.3       1 GTP        -0.7983
      5 O3B        -2.5758    4.8520   -2.2837 O.3       1 GTP        -0.8272
      6 PB         -1.1406    4.7616   -1.5473 P.3       1 GTP         1.9429
      7 O1B        -0.3525    3.5252   -1.8651 O.2       1 GTP        -0.8481
      8 O2B        -0.4195    6.1565   -1.9312 O.3       1 GTP        -0.8171
      9 O3A        -1.4932    4.9848    0.0124 O.3       1 GTP        -0.8114
     10 PA         -0.5527    5.0214    1.3254 P.3       1 GTP         1.8017
     11 O1A         0.4988    6.0924    1.2989 O.2       1 GTP        -0.7846
     12 O2A        -1.6150    5.1587    2.5377 O.3       1 GTP        -0.8074
     13 O5'         0.0173    3.5130    1.4593 O.3       1 GTP        -0.5669
     14 C5'        -0.8811    2.4285    1.6206 C.3       1 GTP         0.1637
     15 C4'        -0.1994    1.3333    2.4288 C.3       1 GTP         0.1099
     16 O4'        -1.1285    0.2356    2.5840 O.3       1 GTP        -0.4100
     17 C3'         1.0324    0.7610    1.7344 C.3       1 GTP         0.0924
     18 O3'         1.9175    0.2377    2.7247 O.3       1 GTP        -0.5892
     19 C2'         0.4468   -0.3802    0.9263 C.3       1 GTP         0.0635
     20 O2'         1.3993   -1.3703    0.5961 O.3       1 GTP        -0.5749
     21 C1'        -0.6159   -0.9100    1.8769 C.3       1 GTP         0.2557
     22 N9         -1.7127   -1.6108    1.2130 N.pl3     1 GTP        -0.2236
     23 C8         -1.7695   -2.9586    0.9546 C.ar      1 GTP         0.4148
     24 N7         -2.8846   -3.3047    0.3416 N.2       1 GTP        -0.5808
     25 C5         -3.5626   -2.1296    0.2052 C.ar      1 GTP         0.1777
     26 C6         -4.8477   -1.8989   -0.3942 C.ar      1 GTP         0.6505
     27 O6         -5.5373   -2.7819   -0.8881 O.2       1 GTP        -0.5947
     28 N1         -5.1895   -0.5407   -0.3318 N.pl3     1 GTP        -0.5110
     29 C2         -4.3899    0.4774    0.2398 C.ar      1 GTP         0.6844
     30 N2         -4.9233    1.7390    0.1898 N.pl3     1 GTP        -0.8920
     31 N3         -3.2159    0.2369    0.7822 N.2       1 GTP        -0.6705
     32 C4         -2.8678   -1.0679    0.7322 C.ar      1 GTP         0.1220
     33 HOG2       -2.6707    1.9943   -2.4824 H         1 GTP         0.5087
     34 HOG3       -5.2134    5.4375   -3.1973 H         1 GTP         0.5087
     35 HOB2       -0.1793    6.3248   -2.8672 H         1 GTP         0.5092
     36 HOA2       -1.2863    5.1327    3.4614 H         1 GTP         0.5041
     37 H5'        -1.7774    2.7844    2.1388 H         1 GTP         0.0584
     38 H5''       -1.1657    2.0536    0.6322 H         1 GTP         0.0584
     39 H4'         0.0402    1.7079    3.4343 H         1 GTP         0.1192
     40 H3'         1.5907    1.4859    1.1353 H         1 GTP         0.0735
     41 HO3'        2.6839   -0.1150    2.2479 H         1 GTP         0.4308
     42 H2'        -0.0017    0.0018    0.0005 H         1 GTP         0.0746
     43 HO2'        2.0953   -0.9375    0.0709 H         1 GTP         0.4224
     44 H1'        -0.1998   -1.6319    2.6178 H         1 GTP         0.1162
     45 H8         -0.9713   -3.6323    1.2352 H         1 GTP         0.0741
     46 HN1        -6.0831   -0.2651   -0.7290 H         1 GTP         0.3343
     47 HN21       -4.3984    2.4878    0.5788 H         1 GTP         0.4229
     48 HN22       -5.8145    1.8572   -0.2335 H         1 GTP         0.4229
@<TRIPOS>BOND
     1    1    2 2
     2    1    3 1
     3    1    4 1
     4    1    5 1
     5    3   33 1
     6    4   34 1
     7    5    6 1
     8    6    7 2
     9    6    8 1
    10    6    9 1
    11    8   35 1
    12    9   10 1
    13   10   11 2
    14   10   12 1
    15   10   13 1
    16   12   36 1
    17   13   14 1
    18   14   15 1
    19   14   37 1
    20   14   38 1
    21   15   16 1
    22   15   17 1
    23   15   39 1
    24   16   21 1
    25   17   18 1
    26   17   19 1
    27   17   40 1
    28   18   41 1
    29   19   20 1
    30   19   21 1
    31   19   42 1
    32   20   43 1
    33   21   22 1
    34   21   44 1
    35   22   23 ar
    36   22   32 ar
    37   23   24 ar
    38   23   45 1
    39   24   25 ar
    40   25   26 ar
    41   25   32 ar
    42   26   27 2
    43   26   28 ar
    44   28   29 ar
    45   28   46 1
    46   29   30 1
    47   29   31 ar
    48   30   47 1
    49   30   48 1
    50   31   32 ar
@<TRIPOS>SUBSTRUCTURE
     1 GTP         1 GROUP 0 A     ****
@<TRIPOS>MOLECULE
[[5-(2-amino-6-oxo-1~{H}-purin-9-yl)-3,4-dihydroxy-tetrahydrofuran-2-yl]methoxy-hydroxy-phosphoryl] phosphono hydrogen phosphate
   48    50     1     0     0
SMALL
USER_CHARGES

@<TRIPOS>ATOM
      1 PG         -7.1390    3.4914    1.6804 P.3       1 GTP         1.8160
      2 O1G        -8.1517    3.1006    0.6447 O.2       1 GTP        -0.8277
      3 O2G        -7.3757    4.9344    2.3684 O.3       1 GTP        -0.7983
      4 O3G        -7.0238    2.4870    2.9416 O.3       1 GTP        -0.7983
      5 O3B        -5.6187    3.5740    1.1386 O.3       1 GTP        -0.8272
      6 PB         -4.6519    2.4660    0.4692 P.3       1 GTP         1.9429
      7 O1B        -4.3761    1.2726    1.3356 O.2       1 GTP        -0.8481
      8 O2B        -5.3584    2.1407   -0.9479 O.3       1 GTP        -0.8171
      9 O3A        -3.3556    3.3123    0.0109 O.3       1 GTP        -0.8114
     10 PA         -1.9903    2.8602   -0.7249 P.3       1 GTP         1.8017
     11 O1A        -2.1965    2.2397   -2.0762 O.2       1 GTP        -0.7846
     12 O2A        -1.1115    4.2183   -0.7411 O.3       1 GTP        -0.8074
     13 O5'        -1.2435    1.9109    0.3518 O.3       1 GTP        -0.5669
     14 C5'        -0.8811    2.4285    1.6206 C.3       1 GTP         0.1637
     15 C4'        -0.1994    1.3333    2.4288 C.3       1 GTP         0.1099
     16 O4'        -1.1285    0.2356    2.5840 O.3       1 GTP        -0.4100
     17 C3'         1.0324    0.7610    1.7344 C.3       1 GTP         0.0924
     18 O3'         1.9175    0.2377    2.7247 O.3       1 GTP        -0.5892
     19 C2'         0.4468   -0.3802    0.9263 C.3       1 GTP         0.0635
     20 O2'         1.3993   -1.3703    0.5961 O.3       1 GTP        -0.5749
     21 C1'        -0.6159   -0.9100    1.8769 C.3       1 GTP         0.2557
     22 N9         -1.7127   -1.6108    1.2130 N.pl3     1 GTP        -0.2236
     23 C8         -3.0375   -1.2493    1.2452 C.ar      1 GTP         0.4148
     24 N7         -3.7986   -2.0732    0.5519 N.2       1 GTP        -0.5808
     25 C5         -2.9221   -2.9947    0.0601 C.ar      1 GTP         0.1777
     26 C6         -3.1909   -4.1355   -0.7707 C.ar      1 GTP         0.6505
     27 O6         -4.3086   -4.4427   -1.1652 O.2       1 GTP        -0.5947
     28 N1         -2.0085   -4.8320   -1.0576 N.pl3     1 GTP        -0.5110
     29 C2         -0.7182   -4.4742   -0.5998 C.ar      1 GTP         0.6844
     30 N2          0.2972   -5.3016   -1.0037 N.pl3     1 GTP        -0.8920
     31 N3         -0.5015   -3.4231    0.1607 N.2       1 GTP        -0.6705
     32 C4         -1.6297   -2.7374    0.4490 C.ar      1 GTP         0.1220
     33 HOG2       -8.2110    5.0968    2.8562 H         1 GTP         0.5087
     34 HOG3       -6.7766    1.5513    2.7825 H         1 GTP         0.5087
     35 HOB2       -4.8985    1.5520   -1.5835 H         1 GTP         0.5092
     36 HOA2       -0.1928    4.1846   -1.0828 H         1 GTP         0.5041
     37 H5'        -0.2032    3.2762    1.4774 H         1 GTP         0.0584
     38 H5''       -1.7839    2.7763    2.1329 H         1 GTP         0.0584
     39 H4'         0.0402    1.7079    3.4343 H         1 GTP         0.1192
     40 H3'         1.5907    1.4859    1.1353 H         1 GTP         0.0735
     41 HO3'        2.6839   -0.1150    2.2479 H         1 GTP         0.4308
     42 H2'        -0.0017    0.0018    0.0005 H         1 GTP         0.0746
     43 HO2'        2.0953   -0.9375    0.0709 H         1 GTP         0.4224
     44 H1'        -0.1998   -1.6319    2.6178 H         1 GTP         0.1162
     45 H8         -3.3837   -0.3807    1.7887 H         1 GTP         0.0741
     46 HN1        -2.0841   -5.6603   -1.6411 H         1 GTP         0.3343
     47 HN21        1.2221   -5.0911   -0.7073 H         1 GTP         0.4229
     48 HN22        0.0702   -6.0804   -1.5775 H         1 GTP         0.4229
@<TRIPOS>BOND
     1    1    2 2
     2    1    3 1
     3    1    4 1
     4    1    5 1
     5    3   33 1
     6    4   34 1
     7    5    6 1
     8    6    7 2
     9    6    8 1
    10    6    9 1
    11    8   35 1
    12    9   10 1
    13   10   11 2
    14   10   12 1
    15   10   13 1
    16   12   36 1
    17   13   14 1
    18   14   15 1
    19   14   37 1
    20   14   38 1
    21   15   16 1
    22   15   17 1
    23   15   39 1
    24   16   21 1
    25   17   18 1
    26   17   19 1
    27   17   40 1
    28   18   41 1
    29   19   20 1
    30   19   21 1
    31   19   42 1
    32   20   43 1
    33   21   22 1
    34   21   44 1
    35   22   23 ar
    36   22   32 ar
    37   23   24 ar
    38   23   45 1
    39   24   25 ar
    40   25   26 ar
    41   25   32 ar
    42   26   27 2
    43   26   28 ar
    44   28   29 ar
    45   28   46 1
    46   29   30 1
    47   29   31 ar
    48   30   47 1
    49   30   48 1
    50   31   32 ar
@<TRIPOS>SUBSTRUCTURE
     1 GTP         1 GROUP 0 A     ****
@<TRIPOS>MOLECULE
[[5-(2-amino-6-oxo-1~{H}-purin-9-yl)-3,4-dihydroxy-tetrahydrofuran-2-yl]methoxy-hydroxy-phosphoryl] phosphono hydrogen phosphate
   48    50     1     0     0
SMALL
USER_CHARGES

@<TRIPOS>ATOM
      1 PG          1.0431    7.0818   -0.2702 P.3       1 GTP         1.8160
      2 O1G         1.0166    8.4697    0.2992 O.2       1 GTP        -0.8277
      3 O2G         2.0736    6.8568   -1.4946 O.3       1 GTP        -0.7983
      4 O3G         1.4425    5.9173    0.7772 O.3       1 GTP        -0.7983
      5 O3B        -0.3700    6.5702   -0.8645 O.3       1 GTP        -0.8272
      6 PB         -1.8175    6.3664   -0.1765 P.3       1 GTP         1.9429
      7 O1B        -2.4107    7.6129    0.4111 O.2       1 GTP        -0.8481
      8 O2B        -2.7004    5.6616   -1.3328 O.3       1 GTP        -0.8171
      9 O3A        -1.5848    5.1480    0.8569 O.3       1 GTP        -0.8114
     10 PA         -2.5920    4.4092    1.8815 P.3       1 GTP         1.8017
     11 O1A        -3.1892    5.3162    2.9178 O.2       1 GTP        -0.7846
     12 O2A        -3.6736    3.7135    0.8999 O.3       1 GTP        -0.8074
     13 O5'        -1.7335    3.1724    2.4745 O.3       1 GTP        -0.5669
     14 C5'        -0.8811    2.4285    1.6206 C.3       1 GTP         0.1637
     15 C4'        -0.1994    1.3333    2.4288 C.3       1 GTP         0.1099
     16 O4'        -1.1285    0.2356    2.5840 O.3       1 GTP        -0.4100
     17 C3'         1.0324    0.7610    1.7344 C.3       1 GTP         0.0924
     18 O3'         1.9175    0.2377    2.7247 O.3       1 GTP        -0.5892
     19 C2'         0.4468   -0.3802    0.9263 C.3       1 GTP         0.0635
     20 O2'         1.3993   -1.3703    0.5961 O.3       1 GTP        -0.5749
     21 C1'        -0.6159   -0.9100    1.8769 C.3       1 GTP         0.2557
     22 N9         -1.7127   -1.6108    1.2130 N.pl3     1 GTP        -0.2236
     23 C8         -1.7695   -2.9586    0.9546 C.ar      1 GTP         0.4148
     24 N7         -2.8846   -3.3047    0.3416 N.2       1 GTP        -0.5808
     25 C5         -3.5626   -2.1296    0.2052 C.ar      1 GTP         0.1777
     26 C6         -4.8477   -1.8989   -0.3942 C.ar      1 GTP         0.6505
     27 O6         -5.5373   -2.7819   -0.8881 O.2       1 GTP        -0.5947
     28 N1         -5.1895   -0.5407   -0.3318 N.pl3     1 GTP        -0.5110
     29 C2         -4.3899    0.4774    0.2398 C.ar      1 GTP         0.6844
     30 N2         -4.9233    1.7390    0.1898 N.pl3     1 GTP        -0.8920
     31 N3         -3.2159    0.2369    0.7822 N.2       1 GTP        -0.6705
     32 C4         -2.8678   -1.0679    0.7322 C.ar      1 GTP         0.1220
     33 HOG2        3.0302    7.0135   -1.3453 H         1 GTP         0.5087
     34 HOG3        0.8847    5.7822    1.5726 H         1 GTP         0.5087
     35 HOB2       -2.9097    6.1688   -2.1458 H         1 GTP         0.5092
     36 HOA2       -4.2512    4.2846    0.3502 H         1 GTP         0.5041
     37 H5'        -1.4796    1.9923    0.8143 H         1 GTP         0.0584
     38 H5''       -0.1364    3.1037    1.1869 H         1 GTP         0.0584
     39 H4'         0.0402    1.7079    3.4343 H         1 GTP         0.1192
     40 H3'         1.5907    1.4859    1.1353 H         1 GTP         0.0735
     41 HO3'        2.6839   -0.1150    2.2479 H         1 GTP         0.4308
     42 H2'        -0.0017    0.0018    0.0005 H         1 GTP         0.0746
     43 HO2'        2.0953   -0.9375    0.0709 H         1 GTP         0.4224
     44 H1'        -0.1998   -1.6319    2.6178 H         1 GTP         0.1162
     45 H8         -0.9713   -3.6323    1.2352 H         1 GTP         0.0741
     46 HN1        -6.0831   -0.2651   -0.7290 H         1 GTP         0.3343
     47 HN21       -5.8145    1.8569   -0.2336 H         1 GTP         0.4229
     48 HN22       -4.3986    2.4880    0.5787 H         1 GTP         0.4229
@<TRIPOS>BOND
     1    1    2 2
     2    1    3 1
     3    1    4 1
     4    1    5 1
     5    3   33 1
     6    4   34 1
     7    5    6 1
     8    6    7 2
     9    6    8 1
    10    6    9 1
    11    8   35 1
    12    9   10 1
    13   10   11 2
    14   10   12 1
    15   10   13 1
    16   12   36 1
    17   13   14 1
    18   14   15 1
    19   14   37 1
    20   14   38 1
    21   15   16 1
    22   15   17 1
    23   15   39 1
    24   16   21 1
    25   17   18 1
    26   17   19 1
    27   17   40 1
    28   18   41 1
    29   19   20 1
    30   19   21 1
    31   19   42 1
    32   20   43 1
    33   21   22 1
    34   21   44 1
    35   22   23 ar
    36   22   32 ar
    37   23   24 ar
    38   23   45 1
    39   24   25 ar
    40   25   26 ar
    41   25   32 ar
    42   26   27 2
    43   26   28 ar
    44   28   29 ar
    45   28   46 1
    46   29   30 1
    47   29   31 ar
    48   30   47 1
    49   30   48 1
    50   31   32 ar
@<TRIPOS>SUBSTRUCTURE
     1 GTP         1 GROUP 0 A     ****
@<TRIPOS>MOLECULE
[[5-(2-amino-6-oxo-1~{H}-purin-9-yl)-3,4-dihydroxy-tetrahydrofuran-2-yl]methoxy-hydroxy-phosphoryl] phosphono hydrogen phosphate
   48    50     1     0     0
SMALL
USER_CHARGES

@<TRIPOS>ATOM
      1 PG          0.1180    7.5006   -2.0925 P.3       1 GTP         1.8160
      2 O1G        -0.5652    7.2214   -3.3987 O.2       1 GTP        -0.8277
      3 O2G         1.7229    7.3111   -2.0978 O.3       1 GTP        -0.7983
      4 O3G        -0.0826    8.9984   -1.5188 O.3       1 GTP        -0.7983
      5 O3B        -0.3700    6.5702   -0.8645 O.3       1 GTP        -0.8272
      6 PB         -1.8175    6.3664   -0.1765 P.3       1 GTP         1.9429
      7 O1B        -2.4107    7.6129    0.4111 O.2       1 GTP        -0.8481
      8 O2B        -2.7004    5.6616   -1.3328 O.3       1 GTP        -0.8171
      9 O3A        -1.5848    5.1480    0.8569 O.3       1 GTP        -0.8114
     10 PA         -2.5920    4.4092    1.8815 P.3       1 GTP         1.8017
     11 O1A        -3.1892    5.3162    2.9178 O.2       1 GTP        -0.7846
     12 O2A        -3.6736    3.7135    0.8999 O.3       1 GTP        -0.8074
     13 O5'        -1.7335    3.1724    2.4745 O.3       1 GTP        -0.5669
     14 C5'        -0.8811    2.4285    1.6206 C.3       1 GTP         0.1637
     15 C4'        -0.1994    1.3333    2.4288 C.3       1 GTP         0.1099
     16 O4'        -1.1285    0.2356    2.5840 O.3       1 GTP        -0.4100
     17 C3'         1.0324    0.7610    1.7344 C.3       1 GTP         0.0924
     18 O3'         1.9175    0.2377    2.7247 O.3       1 GTP        -0.5892
     19 C2'         0.4468   -0.3802    0.9263 C.3       1 GTP         0.0635
     20 O2'         1.3993   -1.3703    0.5961 O.3       1 GTP        -0.5749
     21 C1'        -0.6159   -0.9100    1.8769 C.3       1 GTP         0.2557
     22 N9         -1.7127   -1.6108    1.2130 N.pl3     1 GTP        -0.2236
     23 C8         -1.7695   -2.9586    0.9546 C.ar      1 GTP         0.4148
     24 N7         -2.8846   -3.3047    0.3416 N.2       1 GTP        -0.5808
     25 C5         -3.5626   -2.1296    0.2052 C.ar      1 GTP         0.1777
     26 C6         -4.8477   -1.8989   -0.3942 C.ar      1 GTP         0.6505
     27 O6         -5.5373   -2.7819   -0.8881 O.2       1 GTP        -0.5947
     28 N1         -5.1895   -0.5407   -0.3318 N.pl3     1 GTP        -0.5110
     29 C2         -4.3899    0.4774    0.2398 C.ar      1 GTP         0.6844
     30 N2         -4.9233    1.7390    0.1898 N.pl3     1 GTP        -0.8920
     31 N3         -3.2159    0.2369    0.7822 N.2       1 GTP        -0.6705
     32 C4         -2.8678   -1.0679    0.7322 C.ar      1 GTP         0.1220
     33 HOG2        2.2635    7.8553   -2.7090 H         1 GTP         0.5087
     34 HOG3       -0.9906    9.3154   -1.3261 H         1 GTP         0.5087
     35 HOB2       -2.9097    6.1688   -2.1458 H         1 GTP         0.5092
     36 HOA2       -4.2512    4.2846    0.3502 H         1 GTP         0.5041
     37 H5'        -1.4796    1.9923    0.8143 H         1 GTP         0.0584
     38 H5''       -0.1364    3.1037    1.1869 H         1 GTP         0.0584
     39 H4'         0.0402    1.7079    3.4343 H         1 GTP         0.1192
     40 H3'         1.5907    1.4859    1.1353 H         1 GTP         0.0735
     41 HO3'        2.6839   -0.1150    2.2479 H         1 GTP         0.4308
     42 H2'        -0.0017    0.0018    0.0005 H         1 GTP         0.0746
     43 HO2'        2.0953   -0.9375    0.0709 H         1 GTP         0.4224
     44 H1'        -0.1998   -1.6319    2.6178 H         1 GTP         0.1162
     45 H8         -0.9713   -3.6323    1.2352 H         1 GTP         0.0741
     46 HN1        -6.0831   -0.2651   -0.7290 H         1 GTP         0.3343
     47 HN21       -5.8145    1.8569   -0.2336 H         1 GTP         0.4229
     48 HN22       -4.3986    2.4880    0.5787 H         1 GTP         0.4229
@<TRIPOS>BOND
     1    1    2 2
     2    1    3 1
     3    1    4 1
     4    1    5 1
     5    3   33 1
     6    4   34 1
     7    5    6 1
     8    6    7 2
     9    6    8 1
    10    6    9 1
    11    8   35 1
    12    9   10 1
    13   10   11 2
    14   10   12 1
    15   10   13 1
    16   12   36 1
    17   13   14 1
    18   14   15 1
    19   14   37 1
    20   14   38 1
    21   15   16 1
    22   15   17 1
    23   15   39 1
    24   16   21 1
    25   17   18 1
    26   17   19 1
    27   17   40 1
    28   18   41 1
    29   19   20 1
    30   19   21 1
    31   19   42 1
    32   20   43 1
    33   21   22 1
    34   21   44 1
    35   22   23 ar
    36   22   32 ar
    37   23   24 ar
    38   23   45 1
    39   24   25 ar
    40   25   26 ar
    41   25   32 ar
    42   26   27 2
    43   26   28 ar
    44   28   29 ar
    45   28   46 1
    46   29   30 1
    47   29   31 ar
    48   30   47 1
    49   30   48 1
    50   31   32 ar
@<TRIPOS>SUBSTRUCTURE
     1 GTP         1 GROUP 0 A     ****
@<TRIPOS>MOLECULE
[[5-(2-amino-6-oxo-1~{H}-purin-9-yl)-3,4-dihydroxy-tetrahydrofuran-2-yl]methoxy-hydroxy-phosphoryl] phosphono hydrogen phosphate
   48    50     1     0     0
SMALL
USER_CHARGES

@<TRIPOS>ATOM
      1 PG         -2.5518    9.1527    0.4567 P.3       1 GTP         1.8160
      2 O1G        -1.3583    9.8961   -0.0666 O.2       1 GTP        -0.8277
      3 O2G        -3.1656    9.7178    1.8408 O.3       1 GTP        -0.7983
      4 O3G        -3.8280    9.1176   -0.5347 O.3       1 GTP        -0.7983
      5 O3B        -2.2880    7.5891    0.7689 O.3       1 GTP        -0.8272
      6 PB         -1.8175    6.3664   -0.1765 P.3       1 GTP         1.9429
      7 O1B        -2.7366    6.0768   -1.3265 O.2       1 GTP        -0.8481
      8 O2B        -0.3023    6.7535   -0.5854 O.3       1 GTP        -0.8171
      9 O3A        -1.5848    5.1480    0.8569 O.3       1 GTP        -0.8114
     10 PA         -2.5920    4.4092    1.8815 P.3       1 GTP         1.8017
     11 O1A        -3.1892    5.3162    2.9178 O.2       1 GTP        -0.7846
     12 O2A        -3.6736    3.7135    0.8999 O.3       1 GTP        -0.8074
     13 O5'        -1.7335    3.1724    2.4745 O.3       1 GTP        -0.5669
     14 C5'        -0.8811    2.4285    1.6206 C.3       1 GTP         0.1637
     15 C4'        -0.1994    1.3333    2.4288 C.3       1 GTP         0.1099
     16 O4'        -1.1285    0.2356    2.5840 O.3       1 GTP        -0.4100
     17 C3'         1.0324    0.7610    1.7344 C.3       1 GTP         0.0924
     18 O3'         1.9175    0.2377    2.7247 O.3       1 GTP        -0.5892
     19 C2'         0.4468   -0.3802    0.9263 C.3       1 GTP         0.0635
     20 O2'         1.3993   -1.3703    0.5961 O.3       1 GTP        -0.5749
     21 C1'        -0.6159   -0.9100    1.8769 C.3       1 GTP         0.2557
     22 N9         -1.7127   -1.6108    1.2130 N.pl3     1 GTP        -0.2236
     23 C8         -1.7695   -2.9586    0.9546 C.ar      1 GTP         0.4148
     24 N7         -2.8846   -3.3047    0.3416 N.2       1 GTP        -0.5808
     25 C5         -3.5626   -2.1296    0.2052 C.ar      1 GTP         0.1777
     26 C6         -4.8477   -1.8989   -0.3942 C.ar      1 GTP         0.6505
     27 O6         -5.5373   -2.7819   -0.8881 O.2       1 GTP        -0.5947
     28 N1         -5.1895   -0.5407   -0.3318 N.pl3     1 GTP        -0.5110
     29 C2         -4.3899    0.4774    0.2398 C.ar      1 GTP         0.6844
     30 N2         -4.9233    1.7390    0.1898 N.pl3     1 GTP        -0.8920
     31 N3         -3.2159    0.2369    0.7822 N.2       1 GTP        -0.6705
     32 C4         -2.8678   -1.0679    0.7322 C.ar      1 GTP         0.1220
     33 HOG2       -2.5964    9.7389    2.6393 H         1 GTP         0.5087
     34 HOG3       -3.7291    8.7111   -1.4218 H         1 GTP         0.5087
     35 HOB2        0.2327    6.1063   -1.0923 H         1 GTP         0.5092
     36 HOA2       -4.2512    4.2846    0.3502 H         1 GTP         0.5041
     37 H5'        -1.4796    1.9923    0.8143 H         1 GTP         0.0584
     38 H5''       -0.1364    3.1037    1.1869 H         1 GTP         0.0584
     39 H4'         0.0402    1.7079    3.4343 H         1 GTP         0.1192
     40 H3'         1.5907    1.4859    1.1353 H         1 GTP         0.0735
     41 HO3'        2.1521    0.9800    3.3017 H         1 GTP         0.4308
     42 H2'        -0.0017    0.0018    0.0005 H         1 GTP         0.0746
     43 HO2'        0.9369   -2.0558    0.0825 H         1 GTP         0.4224
     44 H1'        -0.1998   -1.6319    2.6178 H         1 GTP         0.1162
     45 H8         -0.9713   -3.6323    1.2352 H         1 GTP         0.0741
     46 HN1        -6.0831   -0.2651   -0.7290 H         1 GTP         0.3343
     47 HN21       -5.8145    1.8569   -0.2336 H         1 GTP         0.4229
     48 HN22       -4.3986    2.4880    0.5787 H         1 GTP         0.4229
@<TRIPOS>BOND
     1    1    2 2
     2    1    3 1
     3    1    4 1
     4    1    5 1
     5    3   33 1
     6    4   34 1
     7    5    6 1
     8    6    7 2
     9    6    8 1
    10    6    9 1
    11    8   35 1
    12    9   10 1
    13   10   11 2
    14   10   12 1
    15   10   13 1
    16   12   36 1
    17   13   14 1
    18   14   15 1
    19   14   37 1
    20   14   38 1
    21   15   16 1
    22   15   17 1
    23   15   39 1
    24   16   21 1
    25   17   18 1
    26   17   19 1
    27   17   40 1
    28   18   41 1
    29   19   20 1
    30   19   21 1
    31   19   42 1
    32   20   43 1
    33   21   22 1
    34   21   44 1
    35   22   23 ar
    36   22   32 ar
    37   23   24 ar
    38   23   45 1
    39   24   25 ar
    40   25   26 ar
    41   25   32 ar
    42   26   27 2
    43   26   28 ar
    44   28   29 ar
    45   28   46 1
    46   29   30 1
    47   29   31 ar
    48   30   47 1
    49   30   48 1
    50   31   32 ar
@<TRIPOS>SUBSTRUCTURE
     1 GTP         1 GROUP 0 A     ****
@<TRIPOS>MOLECULE
[[5-(2-amino-6-oxo-1~{H}-purin-9-yl)-3,4-dihydroxy-tetrahydrofuran-2-yl]methoxy-hydroxy-phosphoryl] phosphono hydrogen phosphate
   48    50     1     0     0
SMALL
USER_CHARGES

@<TRIPOS>ATOM
      1 PG         -7.1390    3.4914    1.6804 P.3       1 GTP         1.8160
      2 O1G        -7.3560    2.5009    2.7863 O.2       1 GTP        -0.8277
      3 O2G        -8.0056    3.2325    0.3411 O.3       1 GTP        -0.7983
      4 O3G        -7.4771    5.0264    2.0570 O.3       1 GTP        -0.7983
      5 O3B        -5.6187    3.5740    1.1386 O.3       1 GTP        -0.8272
      6 PB         -4.6519    2.4660    0.4692 P.3       1 GTP         1.9429
      7 O1B        -4.3761    1.2726    1.3356 O.2       1 GTP        -0.8481
      8 O2B        -5.3584    2.1407   -0.9479 O.3       1 GTP        -0.8171
      9 O3A        -3.3556    3.3123    0.0109 O.3       1 GTP        -0.8114
     10 PA         -1.9903    2.8602   -0.7249 P.3       1 GTP         1.8017
     11 O1A        -2.1965    2.2397   -2.0762 O.2       1 GTP        -0.7846
     12 O2A        -1.1115    4.2183   -0.7411 O.3       1 GTP        -0.8074
     13 O5'        -1.2435    1.9109    0.3518 O.3       1 GTP        -0.5669
     14 C5'        -0.8811    2.4285    1.6206 C.3       1 GTP         0.1637
     15 C4'        -0.1994    1.3333    2.4288 C.3       1 GTP         0.1099
     16 O4'        -1.1285    0.2356    2.5840 O.3       1 GTP        -0.4100
     17 C3'         1.0324    0.7610    1.7344 C.3       1 GTP         0.0924
     18 O3'         1.9175    0.2377    2.7247 O.3       1 GTP        -0.5892
     19 C2'         0.4468   -0.3802    0.9263 C.3       1 GTP         0.0635
     20 O2'         1.3993   -1.3703    0.5961 O.3       1 GTP        -0.5749
     21 C1'        -0.6159   -0.9100    1.8769 C.3       1 GTP         0.2557
     22 N9         -1.7127   -1.6108    1.2130 N.pl3     1 GTP        -0.2236
     23 C8         -2.8667   -1.0365    0.7385 C.ar      1 GTP         0.4148
     24 N7         -3.6757   -1.9196    0.1868 N.2       1 GTP        -0.5808
     25 C5         -3.0088   -3.1018    0.3164 C.ar      1 GTP         0.1777
     26 C6         -3.4148   -4.4130   -0.1079 C.ar      1 GTP         0.6505
     27 O6         -4.4752   -4.6480   -0.6732 O.2       1 GTP        -0.5947
     28 N1         -2.4377   -5.3653    0.2144 N.pl3     1 GTP        -0.5110
     29 C2         -1.2132   -5.0902    0.8680 C.ar      1 GTP         0.6844
     30 N2         -0.4066   -6.1772    1.0834 N.pl3     1 GTP        -0.8920
     31 N3         -0.8672   -3.8786    1.2457 N.2       1 GTP        -0.6705
     32 C4         -1.7966   -2.9451    0.9439 C.ar      1 GTP         0.1220
     33 HOG2       -8.9846    3.2341    0.4010 H         1 GTP         0.5087
     34 HOG3       -6.9860    5.4547    2.7902 H         1 GTP         0.5087
     35 HOB2       -6.2357    1.7020   -0.9512 H         1 GTP         0.5092
     36 HOA2       -0.1928    4.1846   -1.0828 H         1 GTP         0.5041
     37 H5'        -0.2032    3.2762    1.4774 H         1 GTP         0.0584
     38 H5''       -1.7839    2.7763    2.1329 H         1 GTP         0.0584
     39 H4'         0.0402    1.7079    3.4343 H         1 GTP         0.1192
     40 H3'         1.5907    1.4859    1.1353 H         1 GTP         0.0735
     41 HO3'        2.6839   -0.1150    2.2479 H         1 GTP         0.4308
     42 H2'        -0.0017    0.0018    0.0005 H         1 GTP         0.0746
     43 HO2'        2.0953   -0.9375    0.0709 H         1 GTP         0.4224
     44 H1'        -0.1998   -1.6319    2.6178 H         1 GTP         0.1162
     45 H8         -3.0589    0.0244    0.8247 H         1 GTP         0.0741
     46 HN1        -2.6238   -6.3307   -0.0420 H         1 GTP         0.3343
     47 HN21        0.4646   -6.0341    1.5394 H         1 GTP         0.4229
     48 HN22       -0.7235   -7.0673    0.7753 H         1 GTP         0.4229
@<TRIPOS>BOND
     1    1    2 2
     2    1    3 1
     3    1    4 1
     4    1    5 1
     5    3   33 1
     6    4   34 1
     7    5    6 1
     8    6    7 2
     9    6    8 1
    10    6    9 1
    11    8   35 1
    12    9   10 1
    13   10   11 2
    14   10   12 1
    15   10   13 1
    16   12   36 1
    17   13   14 1
    18   14   15 1
    19   14   37 1
    20   14   38 1
    21   15   16 1
    22   15   17 1
    23   15   39 1
    24   16   21 1
    25   17   18 1
    26   17   19 1
    27   17   40 1
    28   18   41 1
    29   19   20 1
    30   19   21 1
    31   19   42 1
    32   20   43 1
    33   21   22 1
    34   21   44 1
    35   22   23 ar
    36   22   32 ar
    37   23   24 ar
    38   23   45 1
    39   24   25 ar
    40   25   26 ar
    41   25   32 ar
    42   26   27 2
    43   26   28 ar
    44   28   29 ar
    45   28   46 1
    46   29   30 1
    47   29   31 ar
    48   30   47 1
    49   30   48 1
    50   31   32 ar
@<TRIPOS>SUBSTRUCTURE
     1 GTP         1 GROUP 0 A     ****
