@<TRIPOS>MOLECULE
[[[5-(2-amino-6-oxo-1,3-dihydropurin-2-ylium-9-yl)-3,4-dihydroxy-tetrahydrofuran-2-yl]methoxy-oxido-phosphoryl]oxy-oxido-phosphoryl] hydrogen phosphate
   46    48     1     0     0
SMALL
USER_CHARGES

@<TRIPOS>ATOM
      1 PG         -5.7785    0.0202    3.0025 P.3       1 GTP         1.5400
      2 O1G        -4.3425    0.0029    3.4770 O.co2     1 GTP        -0.8909
      3 O2G        -6.8937    0.4773    3.9164 O.co2     1 GTP        -0.8909
      4 O3G        -6.1530   -1.4619    2.4288 O.3       1 GTP        -0.7980
      5 O3B        -5.8655    0.8555    1.6031 O.3       1 GTP        -0.7612
      6 PB         -5.6201    2.4439    1.3161 P.3       1 GTP         1.5847
      7 O1B        -5.6883    2.6833   -0.1757 O.co2     1 GTP        -0.8859
      8 O2B        -6.4499    3.2544    2.2868 O.co2     1 GTP        -0.8859
      9 O3A        -4.0713    2.5645    1.8176 O.3       1 GTP        -0.7486
     10 PA         -3.0798    3.8627    1.8536 P.3       1 GTP         1.5001
     11 O1A        -2.8255    4.3201    0.4336 O.co2     1 GTP        -0.8487
     12 O2A        -3.5807    4.8256    2.9078 O.co2     1 GTP        -0.8487
     13 O5'        -1.7336    3.1724    2.4750 O.3       1 GTP        -0.5474
     14 C5'        -0.8811    2.4285    1.6206 C.3       1 GTP         0.2547
     15 C4'        -0.1994    1.3333    2.4288 C.3       1 GTP         0.0926
     16 O4'        -1.1285    0.2356    2.5840 O.3       1 GTP        -0.3593
     17 C3'         1.0324    0.7610    1.7344 C.3       1 GTP         0.0907
     18 O3'         1.9175    0.2377    2.7247 O.3       1 GTP        -0.5209
     19 C2'         0.4468   -0.3802    0.9263 C.3       1 GTP         0.0305
     20 O2'         1.3993   -1.3703    0.5961 O.3       1 GTP        -0.5978
     21 C1'        -0.6159   -0.9100    1.8769 C.3       1 GTP         0.2339
     22 N9         -1.7127   -1.6108    1.2130 N.pl3     1 GTP        -0.1765
     23 C8         -2.8692   -1.0463    0.7355 C.ar      1 GTP         0.4947
     24 N7         -3.6707   -1.9381    0.1856 N.2       1 GTP        -0.5802
     25 C5         -3.0027   -3.1275    0.3134 C.ar      1 GTP         0.2279
     26 C6         -3.4659   -4.4142   -0.1355 C.ar      1 GTP         0.6513
     27 O6         -4.5328   -4.6133   -0.6980 O.2       1 GTP        -0.5111
     28 N1         -2.5102   -5.4606    0.1612 N.pl3     1 GTP        -0.4713
     29 C2         -1.2711   -5.2547    0.8113 C.ar      1 GTP         0.5256
     30 N2         -0.4228   -6.3256    1.0482 N.pl3     1 GTP        -0.8665
     31 N3         -0.9033   -3.9563    1.2146 N.pl3     1 GTP        -0.5398
     32 C4         -1.7979   -2.9400    0.9438 C.ar      1 GTP        -0.0275
     33 HOG3       -7.0576   -1.6130    2.0808 H         1 GTP         0.4161
     34 H5'        -1.4800    1.9927    0.8146 H         1 GTP         0.0348
     35 H5''       -0.1367    3.1040    1.1872 H         1 GTP         0.0348
     36 H4'         0.0403    1.7078    3.4343 H         1 GTP         0.1215
     37 H3'         1.5907    1.4859    1.1353 H         1 GTP         0.0576
     38 HO3'        2.6839   -0.1150    2.2479 H         1 GTP         0.3842
     39 H2'        -0.0017    0.0018    0.0005 H         1 GTP         0.0252
     40 HO2'        2.0953   -0.9375    0.0709 H         1 GTP         0.4224
     41 H1'        -0.1998   -1.6319    2.6178 H         1 GTP         0.0745
     42 H8         -3.0691    0.0134    0.8177 H         1 GTP         0.1522
     43 HN1        -2.7468   -6.4119   -0.1177 H         1 GTP         0.3518
     44 HN21        0.4233   -6.1297    1.5018 H         1 GTP         0.4761
     45 HN22       -0.7261   -7.2071    0.7466 H         1 GTP         0.4761
     46 H46        -0.0124   -3.8015    1.6821 H         1 GTP         0.5030
@<TRIPOS>BOND
     1    1    2 2
     2    1    3 1
     3    1    4 1
     4    1    5 1
     5    4   33 1
     6    5    6 1
     7    6    7 2
     8    6    8 1
     9    6    9 1
    10    9   10 1
    11   10   11 2
    12   10   12 1
    13   10   13 1
    14   13   14 1
    15   14   15 1
    16   14   34 1
    17   14   35 1
    18   15   16 1
    19   15   17 1
    20   15   36 1
    21   16   21 1
    22   17   18 1
    23   17   19 1
    24   17   37 1
    25   18   38 1
    26   19   20 1
    27   19   21 1
    28   19   39 1
    29   20   40 1
    30   21   22 1
    31   21   41 1
    32   22   23 ar
    33   22   32 ar
    34   23   24 ar
    35   23   42 1
    36   24   25 ar
    37   25   26 ar
    38   25   32 ar
    39   26   27 2
    40   26   28 ar
    41   28   29 ar
    42   28   43 1
    43   29   30 1
    44   29   31 ar
    45   30   44 1
    46   30   45 1
    47   31   32 ar
    48   31   46 1
@<TRIPOS>SUBSTRUCTURE
     1 GTP         1 GROUP 0 A     ****
@<TRIPOS>MOLECULE
[[[5-(2-amino-6-oxo-1,3-dihydropurin-2-ylium-9-yl)-3,4-dihydroxy-tetrahydrofuran-2-yl]methoxy-oxido-phosphoryl]oxy-oxido-phosphoryl] hydrogen phosphate
   46    48     1     0     0
SMALL
USER_CHARGES

@<TRIPOS>ATOM
      1 PG         -6.3470    1.8233   -2.3656 P.3       1 GTP         1.5400
      2 O1G        -7.7534    2.0223   -1.8460 O.co2     1 GTP        -0.8909
      3 O2G        -5.8951    2.4739   -3.6541 O.co2     1 GTP        -0.8909
      4 O3G        -6.0519    0.2204   -2.4630 O.3       1 GTP        -0.7980
      5 O3B        -5.2860    2.1980   -1.1834 O.3       1 GTP        -0.7612
      6 PB         -4.9597    3.6391   -0.4890 P.3       1 GTP         1.5847
      7 O1B        -4.3436    4.5495   -1.5278 O.co2     1 GTP        -0.8859
      8 O2B        -6.1524    4.0710    0.3348 O.co2     1 GTP        -0.8859
      9 O3A        -3.8118    3.1654    0.5706 O.3       1 GTP        -0.7486
     10 PA         -2.9646    4.0418    1.6587 P.3       1 GTP         1.5001
     11 O1A        -2.0975    5.0342    0.9147 O.co2     1 GTP        -0.8487
     12 O2A        -3.9049    4.4925    2.7552 O.co2     1 GTP        -0.8487
     13 O5'        -2.0401    2.8620    2.3128 O.3       1 GTP        -0.5474
     14 C5'        -0.8811    2.4285    1.6206 C.3       1 GTP         0.2547
     15 C4'        -0.1994    1.3333    2.4288 C.3       1 GTP         0.0926
     16 O4'        -1.1285    0.2356    2.5840 O.3       1 GTP        -0.3593
     17 C3'         1.0324    0.7610    1.7344 C.3       1 GTP         0.0907
     18 O3'         1.9175    0.2377    2.7247 O.3       1 GTP        -0.5209
     19 C2'         0.4468   -0.3802    0.9263 C.3       1 GTP         0.0305
     20 O2'         1.3993   -1.3703    0.5961 O.3       1 GTP        -0.5978
     21 C1'        -0.6159   -0.9100    1.8769 C.3       1 GTP         0.2339
     22 N9         -1.7127   -1.6108    1.2130 N.pl3     1 GTP        -0.1765
     23 C8         -1.6092   -2.7449    0.4467 C.ar      1 GTP         0.4947
     24 N7         -2.7778   -3.1416   -0.0191 N.2       1 GTP        -0.5802
     25 C5         -3.6725   -2.2253    0.4675 C.ar      1 GTP         0.2279
     26 C6         -5.0932   -2.2202    0.2371 C.ar      1 GTP         0.6513
     27 O6         -5.6933   -3.0474   -0.4337 O.2       1 GTP        -0.5111
     28 N1         -5.7390   -1.1061    0.8992 N.pl3     1 GTP        -0.4713
     29 C2         -5.0661   -0.1368    1.6789 C.ar      1 GTP         0.5256
     30 N2         -5.7774    0.8934    2.2749 N.pl3     1 GTP        -0.8665
     31 N3         -3.6705   -0.2251    1.8481 N.pl3     1 GTP        -0.5398
     32 C4         -3.0303   -1.2785    1.2262 C.ar      1 GTP        -0.0275
     33 HOG3       -5.1738   -0.0740   -2.7862 H         1 GTP         0.4161
     34 H5'        -1.1767    2.0502    0.6368 H         1 GTP         0.0348
     35 H5''       -0.2080    3.2814    1.4876 H         1 GTP         0.0348
     36 H4'         0.0403    1.7078    3.4343 H         1 GTP         0.1215
     37 H3'         1.5907    1.4859    1.1353 H         1 GTP         0.0576
     38 HO3'        2.6839   -0.1150    2.2479 H         1 GTP         0.3842
     39 H2'        -0.0017    0.0018    0.0005 H         1 GTP         0.0252
     40 HO2'        2.0953   -0.9375    0.0709 H         1 GTP         0.4224
     41 H1'        -0.1998   -1.6319    2.6178 H         1 GTP         0.0745
     42 H8         -0.6610   -3.2324    0.2653 H         1 GTP         0.1522
     43 HN1        -6.7487   -1.0139    0.7961 H         1 GTP         0.3518
     44 HN21       -5.2644    1.5388    2.8044 H         1 GTP         0.4761
     45 HN22       -6.7459    0.9078    2.1265 H         1 GTP         0.4761
     46 H46        -3.1807    0.4690    2.4089 H         1 GTP         0.5030
@<TRIPOS>BOND
     1    1    2 2
     2    1    3 1
     3    1    4 1
     4    1    5 1
     5    4   33 1
     6    5    6 1
     7    6    7 2
     8    6    8 1
     9    6    9 1
    10    9   10 1
    11   10   11 2
    12   10   12 1
    13   10   13 1
    14   13   14 1
    15   14   15 1
    16   14   34 1
    17   14   35 1
    18   15   16 1
    19   15   17 1
    20   15   36 1
    21   16   21 1
    22   17   18 1
    23   17   19 1
    24   17   37 1
    25   18   38 1
    26   19   20 1
    27   19   21 1
    28   19   39 1
    29   20   40 1
    30   21   22 1
    31   21   41 1
    32   22   23 ar
    33   22   32 ar
    34   23   24 ar
    35   23   42 1
    36   24   25 ar
    37   25   26 ar
    38   25   32 ar
    39   26   27 2
    40   26   28 ar
    41   28   29 ar
    42   28   43 1
    43   29   30 1
    44   29   31 ar
    45   30   44 1
    46   30   45 1
    47   31   32 ar
    48   31   46 1
@<TRIPOS>SUBSTRUCTURE
     1 GTP         1 GROUP 0 A     ****
@<TRIPOS>MOLECULE
[[[5-(2-amino-6-oxo-1,3-dihydropurin-2-ylium-9-yl)-3,4-dihydroxy-tetrahydrofuran-2-yl]methoxy-oxido-phosphoryl]oxy-oxido-phosphoryl] hydrogen phosphate
   46    48     1     0     0
SMALL
USER_CHARGES

@<TRIPOS>ATOM
      1 PG         -2.9333    1.8918   -2.6708 P.3       1 GTP         1.5400
      2 O1G        -2.3411    2.8537   -3.6766 O.co2     1 GTP        -0.8909
      3 O2G        -2.0734    1.2631   -1.5970 O.co2     1 GTP        -0.8909
      4 O3G        -3.7025    0.7017   -3.4819 O.3       1 GTP        -0.7980
      5 O3B        -4.2306    2.5898   -1.9683 O.3       1 GTP        -0.7612
      6 PB         -4.3123    3.8795   -0.9705 P.3       1 GTP         1.5847
      7 O1B        -3.6262    5.0516   -1.6361 O.co2     1 GTP        -0.8859
      8 O2B        -5.7177    3.9914   -0.4230 O.co2     1 GTP        -0.8859
      9 O3A        -3.3820    3.3250    0.2509 O.3       1 GTP        -0.7486
     10 PA         -2.9646    4.0418    1.6587 P.3       1 GTP         1.5001
     11 O1A        -2.1198    5.2596    1.3528 O.co2     1 GTP        -0.8487
     12 O2A        -4.1947    4.1429    2.5341 O.co2     1 GTP        -0.8487
     13 O5'        -2.0401    2.8620    2.3128 O.3       1 GTP        -0.5474
     14 C5'        -0.8811    2.4285    1.6206 C.3       1 GTP         0.2547
     15 C4'        -0.1994    1.3333    2.4288 C.3       1 GTP         0.0926
     16 O4'        -1.1285    0.2356    2.5840 O.3       1 GTP        -0.3593
     17 C3'         1.0324    0.7610    1.7344 C.3       1 GTP         0.0907
     18 O3'         1.9175    0.2377    2.7247 O.3       1 GTP        -0.5209
     19 C2'         0.4468   -0.3802    0.9263 C.3       1 GTP         0.0305
     20 O2'         1.3993   -1.3703    0.5961 O.3       1 GTP        -0.5978
     21 C1'        -0.6159   -0.9100    1.8769 C.3       1 GTP         0.2339
     22 N9         -1.7127   -1.6108    1.2130 N.pl3     1 GTP        -0.1765
     23 C8         -1.6092   -2.7449    0.4467 C.ar      1 GTP         0.4947
     24 N7         -2.7778   -3.1416   -0.0191 N.2       1 GTP        -0.5802
     25 C5         -3.6725   -2.2253    0.4675 C.ar      1 GTP         0.2279
     26 C6         -5.0932   -2.2202    0.2371 C.ar      1 GTP         0.6513
     27 O6         -5.6933   -3.0474   -0.4337 O.2       1 GTP        -0.5111
     28 N1         -5.7390   -1.1061    0.8992 N.pl3     1 GTP        -0.4713
     29 C2         -5.0661   -0.1368    1.6789 C.ar      1 GTP         0.5256
     30 N2         -5.7774    0.8934    2.2749 N.pl3     1 GTP        -0.8665
     31 N3         -3.6705   -0.2251    1.8481 N.pl3     1 GTP        -0.5398
     32 C4         -3.0303   -1.2785    1.2262 C.ar      1 GTP        -0.0275
     33 HOG3       -4.1425   -0.0066   -2.9653 H         1 GTP         0.4161
     34 H5'        -1.1767    2.0502    0.6368 H         1 GTP         0.0348
     35 H5''       -0.2080    3.2814    1.4876 H         1 GTP         0.0348
     36 H4'         0.0403    1.7078    3.4343 H         1 GTP         0.1215
     37 H3'         1.5907    1.4859    1.1353 H         1 GTP         0.0576
     38 HO3'        2.6839   -0.1150    2.2479 H         1 GTP         0.3842
     39 H2'        -0.0017    0.0018    0.0005 H         1 GTP         0.0252
     40 HO2'        2.0953   -0.9375    0.0709 H         1 GTP         0.4224
     41 H1'        -0.1998   -1.6319    2.6178 H         1 GTP         0.0745
     42 H8         -0.6610   -3.2324    0.2653 H         1 GTP         0.1522
     43 HN1        -6.7487   -1.0139    0.7961 H         1 GTP         0.3518
     44 HN21       -5.2644    1.5388    2.8044 H         1 GTP         0.4761
     45 HN22       -6.7459    0.9078    2.1265 H         1 GTP         0.4761
     46 H46        -3.1807    0.4690    2.4089 H         1 GTP         0.5030
@<TRIPOS>BOND
     1    1    2 2
     2    1    3 1
     3    1    4 1
     4    1    5 1
     5    4   33 1
     6    5    6 1
     7    6    7 2
     8    6    8 1
     9    6    9 1
    10    9   10 1
    11   10   11 2
    12   10   12 1
    13   10   13 1
    14   13   14 1
    15   14   15 1
    16   14   34 1
    17   14   35 1
    18   15   16 1
    19   15   17 1
    20   15   36 1
    21   16   21 1
    22   17   18 1
    23   17   19 1
    24   17   37 1
    25   18   38 1
    26   19   20 1
    27   19   21 1
    28   19   39 1
    29   20   40 1
    30   21   22 1
    31   21   41 1
    32   22   23 ar
    33   22   32 ar
    34   23   24 ar
    35   23   42 1
    36   24   25 ar
    37   25   26 ar
    38   25   32 ar
    39   26   27 2
    40   26   28 ar
    41   28   29 ar
    42   28   43 1
    43   29   30 1
    44   29   31 ar
    45   30   44 1
    46   30   45 1
    47   31   32 ar
    48   31   46 1
@<TRIPOS>SUBSTRUCTURE
     1 GTP         1 GROUP 0 A     ****
@<TRIPOS>MOLECULE
[[[5-(2-amino-6-oxo-1,3-dihydropurin-2-ylium-9-yl)-3,4-dihydroxy-tetrahydrofuran-2-yl]methoxy-oxido-phosphoryl]oxy-oxido-phosphoryl] hydrogen phosphate
   46    48     1     0     0
SMALL
USER_CHARGES

@<TRIPOS>ATOM
      1 PG         -5.8579   -1.5410    3.9886 P.3       1 GTP         1.5400
      2 O1G        -6.8091   -1.0860    5.0728 O.co2     1 GTP        -0.8909
      3 O2G        -6.3720   -2.2159    2.7365 O.co2     1 GTP        -0.8909
      4 O3G        -4.7212   -2.4988    4.6644 O.3       1 GTP        -0.7980
      5 O3B        -4.9025   -0.2890    3.5604 O.3       1 GTP        -0.7612
      6 PB         -5.2852    1.1104    2.8114 P.3       1 GTP         1.5847
      7 O1B        -5.7487    0.7972    1.4063 O.co2     1 GTP        -0.8859
      8 O2B        -6.1149    1.9602    3.7479 O.co2     1 GTP        -0.8859
      9 O3A        -3.8031    1.7924    2.7575 O.3       1 GTP        -0.7486
     10 PA         -3.3347    3.2338    2.1468 P.3       1 GTP         1.5001
     11 O1A        -3.5629    3.2256    0.6508 O.co2     1 GTP        -0.8487
     12 O2A        -3.8982    4.3351    3.0181 O.co2     1 GTP        -0.8487
     13 O5'        -1.7336    3.1724    2.4750 O.3       1 GTP        -0.5474
     14 C5'        -0.8811    2.4285    1.6206 C.3       1 GTP         0.2547
     15 C4'        -0.1994    1.3333    2.4288 C.3       1 GTP         0.0926
     16 O4'        -1.1285    0.2356    2.5840 O.3       1 GTP        -0.3593
     17 C3'         1.0324    0.7610    1.7344 C.3       1 GTP         0.0907
     18 O3'         1.9175    0.2377    2.7247 O.3       1 GTP        -0.5209
     19 C2'         0.4468   -0.3802    0.9263 C.3       1 GTP         0.0305
     20 O2'         1.3993   -1.3703    0.5961 O.3       1 GTP        -0.5978
     21 C1'        -0.6159   -0.9100    1.8769 C.3       1 GTP         0.2339
     22 N9         -1.7127   -1.6108    1.2130 N.pl3     1 GTP        -0.1765
     23 C8         -2.5534   -1.0907    0.2607 C.ar      1 GTP         0.4947
     24 N7         -3.4469   -1.9695   -0.1508 N.2       1 GTP        -0.5802
     25 C5         -3.1705   -3.1041    0.5657 C.ar      1 GTP         0.2279
     26 C6         -3.8738   -4.3568    0.4777 C.ar      1 GTP         0.6513
     27 O6         -4.8240   -4.5720   -0.2607 O.2       1 GTP        -0.5111
     28 N1         -3.3198   -5.3462    1.3780 N.pl3     1 GTP        -0.4713
     29 C2         -2.2226   -5.1203    2.2413 C.ar      1 GTP         0.5256
     30 N2         -1.7649   -6.1367    3.0659 N.pl3     1 GTP        -0.8665
     31 N3         -1.5969   -3.8585    2.2574 N.pl3     1 GTP        -0.5398
     32 C4         -2.1068   -2.8965    1.4082 C.ar      1 GTP        -0.0275
     33 HOG3       -4.0252   -2.8769    4.0857 H         1 GTP         0.4161
     34 H5'        -1.4800    1.9927    0.8146 H         1 GTP         0.0348
     35 H5''       -0.1367    3.1040    1.1872 H         1 GTP         0.0348
     36 H4'         0.0403    1.7078    3.4343 H         1 GTP         0.1215
     37 H3'         1.5907    1.4859    1.1353 H         1 GTP         0.0576
     38 HO3'        2.6839   -0.1150    2.2479 H         1 GTP         0.3842
     39 H2'        -0.0017    0.0018    0.0005 H         1 GTP         0.0252
     40 HO2'        2.0953   -0.9375    0.0709 H         1 GTP         0.4224
     41 H1'        -0.1998   -1.6319    2.6178 H         1 GTP         0.0745
     42 H8         -2.4657   -0.0713   -0.0897 H         1 GTP         0.1522
     43 HN1        -3.7505   -6.2699    1.3904 H         1 GTP         0.3518
     44 HN21       -1.0023   -5.9289    3.6451 H         1 GTP         0.4761
     45 HN22       -2.2347   -6.9951    3.0150 H         1 GTP         0.4761
     46 H46        -0.8062   -3.6900    2.8760 H         1 GTP         0.5030
@<TRIPOS>BOND
     1    1    2 2
     2    1    3 1
     3    1    4 1
     4    1    5 1
     5    4   33 1
     6    5    6 1
     7    6    7 2
     8    6    8 1
     9    6    9 1
    10    9   10 1
    11   10   11 2
    12   10   12 1
    13   10   13 1
    14   13   14 1
    15   14   15 1
    16   14   34 1
    17   14   35 1
    18   15   16 1
    19   15   17 1
    20   15   36 1
    21   16   21 1
    22   17   18 1
    23   17   19 1
    24   17   37 1
    25   18   38 1
    26   19   20 1
    27   19   21 1
    28   19   39 1
    29   20   40 1
    30   21   22 1
    31   21   41 1
    32   22   23 ar
    33   22   32 ar
    34   23   24 ar
    35   23   42 1
    36   24   25 ar
    37   25   26 ar
    38   25   32 ar
    39   26   27 2
    40   26   28 ar
    41   28   29 ar
    42   28   43 1
    43   29   30 1
    44   29   31 ar
    45   30   44 1
    46   30   45 1
    47   31   32 ar
    48   31   46 1
@<TRIPOS>SUBSTRUCTURE
     1 GTP         1 GROUP 0 A     ****
@<TRIPOS>MOLECULE
[[[5-(2-amino-6-oxo-1,3-dihydropurin-2-ylium-9-yl)-3,4-dihydroxy-tetrahydrofuran-2-yl]methoxy-oxido-phosphoryl]oxy-oxido-phosphoryl] hydrogen phosphate
   46    48     1     0     0
SMALL
USER_CHARGES

@<TRIPOS>ATOM
      1 PG         -2.9333    1.8918   -2.6708 P.3       1 GTP         1.5400
      2 O1G        -2.3411    2.8537   -3.6766 O.co2     1 GTP        -0.8909
      3 O2G        -2.0734    1.2631   -1.5970 O.co2     1 GTP        -0.8909
      4 O3G        -3.7025    0.7017   -3.4819 O.3       1 GTP        -0.7980
      5 O3B        -4.2306    2.5898   -1.9683 O.3       1 GTP        -0.7612
      6 PB         -4.3123    3.8795   -0.9705 P.3       1 GTP         1.5847
      7 O1B        -3.6262    5.0516   -1.6361 O.co2     1 GTP        -0.8859
      8 O2B        -5.7177    3.9914   -0.4230 O.co2     1 GTP        -0.8859
      9 O3A        -3.3820    3.3250    0.2509 O.3       1 GTP        -0.7486
     10 PA         -2.9646    4.0418    1.6587 P.3       1 GTP         1.5001
     11 O1A        -2.1198    5.2596    1.3528 O.co2     1 GTP        -0.8487
     12 O2A        -4.1947    4.1429    2.5341 O.co2     1 GTP        -0.8487
     13 O5'        -2.0401    2.8620    2.3128 O.3       1 GTP        -0.5474
     14 C5'        -0.8811    2.4285    1.6206 C.3       1 GTP         0.2547
     15 C4'        -0.1994    1.3333    2.4288 C.3       1 GTP         0.0926
     16 O4'        -1.1285    0.2356    2.5840 O.3       1 GTP        -0.3593
     17 C3'         1.0324    0.7610    1.7344 C.3       1 GTP         0.0907
     18 O3'         1.9175    0.2377    2.7247 O.3       1 GTP        -0.5209
     19 C2'         0.4468   -0.3802    0.9263 C.3       1 GTP         0.0305
     20 O2'         1.3993   -1.3703    0.5961 O.3       1 GTP        -0.5978
     21 C1'        -0.6159   -0.9100    1.8769 C.3       1 GTP         0.2339
     22 N9         -1.7127   -1.6108    1.2130 N.pl3     1 GTP        -0.1765
     23 C8         -2.8692   -1.0463    0.7355 C.ar      1 GTP         0.4947
     24 N7         -3.6707   -1.9381    0.1856 N.2       1 GTP        -0.5802
     25 C5         -3.0027   -3.1275    0.3134 C.ar      1 GTP         0.2279
     26 C6         -3.4659   -4.4142   -0.1355 C.ar      1 GTP         0.6513
     27 O6         -4.5328   -4.6133   -0.6980 O.2       1 GTP        -0.5111
     28 N1         -2.5102   -5.4606    0.1612 N.pl3     1 GTP        -0.4713
     29 C2         -1.2711   -5.2547    0.8113 C.ar      1 GTP         0.5256
     30 N2         -0.4228   -6.3256    1.0482 N.pl3     1 GTP        -0.8665
     31 N3         -0.9033   -3.9563    1.2146 N.pl3     1 GTP        -0.5398
     32 C4         -1.7979   -2.9400    0.9438 C.ar      1 GTP        -0.0275
     33 HOG3       -4.1425   -0.0066   -2.9653 H         1 GTP         0.4161
     34 H5'        -1.1767    2.0502    0.6368 H         1 GTP         0.0348
     35 H5''       -0.2080    3.2814    1.4876 H         1 GTP         0.0348
     36 H4'         0.0403    1.7078    3.4343 H         1 GTP         0.1215
     37 H3'         1.5907    1.4859    1.1353 H         1 GTP         0.0576
     38 HO3'        2.6839   -0.1150    2.2479 H         1 GTP         0.3842
     39 H2'        -0.0017    0.0018    0.0005 H         1 GTP         0.0252
     40 HO2'        2.0953   -0.9375    0.0709 H         1 GTP         0.4224
     41 H1'        -0.1998   -1.6319    2.6178 H         1 GTP         0.0745
     42 H8         -3.0691    0.0134    0.8177 H         1 GTP         0.1522
     43 HN1        -2.7468   -6.4119   -0.1177 H         1 GTP         0.3518
     44 HN21        0.4233   -6.1297    1.5018 H         1 GTP         0.4761
     45 HN22       -0.7261   -7.2071    0.7466 H         1 GTP         0.4761
     46 H46        -0.0124   -3.8015    1.6821 H         1 GTP         0.5030
@<TRIPOS>BOND
     1    1    2 2
     2    1    3 1
     3    1    4 1
     4    1    5 1
     5    4   33 1
     6    5    6 1
     7    6    7 2
     8    6    8 1
     9    6    9 1
    10    9   10 1
    11   10   11 2
    12   10   12 1
    13   10   13 1
    14   13   14 1
    15   14   15 1
    16   14   34 1
    17   14   35 1
    18   15   16 1
    19   15   17 1
    20   15   36 1
    21   16   21 1
    22   17   18 1
    23   17   19 1
    24   17   37 1
    25   18   38 1
    26   19   20 1
    27   19   21 1
    28   19   39 1
    29   20   40 1
    30   21   22 1
    31   21   41 1
    32   22   23 ar
    33   22   32 ar
    34   23   24 ar
    35   23   42 1
    36   24   25 ar
    37   25   26 ar
    38   25   32 ar
    39   26   27 2
    40   26   28 ar
    41   28   29 ar
    42   28   43 1
    43   29   30 1
    44   29   31 ar
    45   30   44 1
    46   30   45 1
    47   31   32 ar
    48   31   46 1
@<TRIPOS>SUBSTRUCTURE
     1 GTP         1 GROUP 0 A     ****
@<TRIPOS>MOLECULE
[[[5-(2-amino-6-oxo-1,3-dihydropurin-2-ylium-9-yl)-3,4-dihydroxy-tetrahydrofuran-2-yl]methoxy-oxido-phosphoryl]oxy-oxido-phosphoryl] hydrogen phosphate
   46    48     1     0     0
SMALL
USER_CHARGES

@<TRIPOS>ATOM
      1 PG         -6.9186    0.4823    0.4280 P.3       1 GTP         1.5400
      2 O1G        -7.0038   -1.0150    0.6230 O.co2     1 GTP        -0.8909
      3 O2G        -8.0973    1.3757    0.7445 O.co2     1 GTP        -0.8909
      4 O3G        -6.4398    0.7793   -1.1045 O.3       1 GTP        -0.7980
      5 O3B        -5.6023    1.0460    1.2112 O.3       1 GTP        -0.7612
      6 PB         -5.2852    1.1104    2.8114 P.3       1 GTP         1.5847
      7 O1B        -6.2589    2.0685    3.4605 O.co2     1 GTP        -0.8859
      8 O2B        -5.0917   -0.2961    3.3329 O.co2     1 GTP        -0.8859
      9 O3A        -3.8031    1.7924    2.7575 O.3       1 GTP        -0.7486
     10 PA         -3.3347    3.2338    2.1468 P.3       1 GTP         1.5001
     11 O1A        -3.5629    3.2256    0.6508 O.co2     1 GTP        -0.8487
     12 O2A        -3.8982    4.3351    3.0181 O.co2     1 GTP        -0.8487
     13 O5'        -1.7336    3.1724    2.4750 O.3       1 GTP        -0.5474
     14 C5'        -0.8811    2.4285    1.6206 C.3       1 GTP         0.2547
     15 C4'        -0.1994    1.3333    2.4288 C.3       1 GTP         0.0926
     16 O4'        -1.1285    0.2356    2.5840 O.3       1 GTP        -0.3593
     17 C3'         1.0324    0.7610    1.7344 C.3       1 GTP         0.0907
     18 O3'         1.9175    0.2377    2.7247 O.3       1 GTP        -0.5209
     19 C2'         0.4468   -0.3802    0.9263 C.3       1 GTP         0.0305
     20 O2'         1.3993   -1.3703    0.5961 O.3       1 GTP        -0.5978
     21 C1'        -0.6159   -0.9100    1.8769 C.3       1 GTP         0.2339
     22 N9         -1.7127   -1.6108    1.2130 N.pl3     1 GTP        -0.1765
     23 C8         -2.8692   -1.0463    0.7355 C.ar      1 GTP         0.4947
     24 N7         -3.6707   -1.9381    0.1856 N.2       1 GTP        -0.5802
     25 C5         -3.0027   -3.1275    0.3134 C.ar      1 GTP         0.2279
     26 C6         -3.4659   -4.4142   -0.1355 C.ar      1 GTP         0.6513
     27 O6         -4.5328   -4.6133   -0.6980 O.2       1 GTP        -0.5111
     28 N1         -2.5102   -5.4606    0.1612 N.pl3     1 GTP        -0.4713
     29 C2         -1.2711   -5.2547    0.8113 C.ar      1 GTP         0.5256
     30 N2         -0.4228   -6.3256    1.0482 N.pl3     1 GTP        -0.8665
     31 N3         -0.9033   -3.9563    1.2146 N.pl3     1 GTP        -0.5398
     32 C4         -1.7979   -2.9400    0.9438 C.ar      1 GTP        -0.0275
     33 HOG3       -6.3364    1.7125   -1.3888 H         1 GTP         0.4161
     34 H5'        -1.4800    1.9927    0.8146 H         1 GTP         0.0348
     35 H5''       -0.1367    3.1040    1.1872 H         1 GTP         0.0348
     36 H4'         0.0403    1.7078    3.4343 H         1 GTP         0.1215
     37 H3'         1.5907    1.4859    1.1353 H         1 GTP         0.0576
     38 HO3'        2.6839   -0.1150    2.2479 H         1 GTP         0.3842
     39 H2'        -0.0017    0.0018    0.0005 H         1 GTP         0.0252
     40 HO2'        2.0953   -0.9375    0.0709 H         1 GTP         0.4224
     41 H1'        -0.1998   -1.6319    2.6178 H         1 GTP         0.0745
     42 H8         -3.0691    0.0134    0.8177 H         1 GTP         0.1522
     43 HN1        -2.7468   -6.4119   -0.1177 H         1 GTP         0.3518
     44 HN21        0.4233   -6.1297    1.5018 H         1 GTP         0.4761
     45 HN22       -0.7261   -7.2071    0.7466 H         1 GTP         0.4761
     46 H46        -0.0124   -3.8015    1.6821 H         1 GTP         0.5030
@<TRIPOS>BOND
     1    1    2 2
     2    1    3 1
     3    1    4 1
     4    1    5 1
     5    4   33 1
     6    5    6 1
     7    6    7 2
     8    6    8 1
     9    6    9 1
    10    9   10 1
    11   10   11 2
    12   10   12 1
    13   10   13 1
    14   13   14 1
    15   14   15 1
    16   14   34 1
    17   14   35 1
    18   15   16 1
    19   15   17 1
    20   15   36 1
    21   16   21 1
    22   17   18 1
    23   17   19 1
    24   17   37 1
    25   18   38 1
    26   19   20 1
    27   19   21 1
    28   19   39 1
    29   20   40 1
    30   21   22 1
    31   21   41 1
    32   22   23 ar
    33   22   32 ar
    34   23   24 ar
    35   23   42 1
    36   24   25 ar
    37   25   26 ar
    38   25   32 ar
    39   26   27 2
    40   26   28 ar
    41   28   29 ar
    42   28   43 1
    43   29   30 1
    44   29   31 ar
    45   30   44 1
    46   30   45 1
    47   31   32 ar
    48   31   46 1
@<TRIPOS>SUBSTRUCTURE
     1 GTP         1 GROUP 0 A     ****
@<TRIPOS>MOLECULE
[[[5-(2-amino-6-oxo-1,3-dihydropurin-2-ylium-9-yl)-3,4-dihydroxy-tetrahydrofuran-2-yl]methoxy-oxido-phosphoryl]oxy-oxido-phosphoryl] hydrogen phosphate
   46    48     1     0     0
SMALL
USER_CHARGES

@<TRIPOS>ATOM
      1 PG         -6.3470    1.8233   -2.3656 P.3       1 GTP         1.5400
      2 O1G        -7.7534    2.0223   -1.8460 O.co2     1 GTP        -0.8909
      3 O2G        -5.8951    2.4739   -3.6541 O.co2     1 GTP        -0.8909
      4 O3G        -6.0519    0.2204   -2.4630 O.3       1 GTP        -0.7980
      5 O3B        -5.2860    2.1980   -1.1834 O.3       1 GTP        -0.7612
      6 PB         -4.9597    3.6391   -0.4890 P.3       1 GTP         1.5847
      7 O1B        -4.3436    4.5495   -1.5278 O.co2     1 GTP        -0.8859
      8 O2B        -6.1524    4.0710    0.3348 O.co2     1 GTP        -0.8859
      9 O3A        -3.8118    3.1654    0.5706 O.3       1 GTP        -0.7486
     10 PA         -2.9646    4.0418    1.6587 P.3       1 GTP         1.5001
     11 O1A        -2.0975    5.0342    0.9147 O.co2     1 GTP        -0.8487
     12 O2A        -3.9049    4.4925    2.7552 O.co2     1 GTP        -0.8487
     13 O5'        -2.0401    2.8620    2.3128 O.3       1 GTP        -0.5474
     14 C5'        -0.8811    2.4285    1.6206 C.3       1 GTP         0.2547
     15 C4'        -0.1994    1.3333    2.4288 C.3       1 GTP         0.0926
     16 O4'        -1.1285    0.2356    2.5840 O.3       1 GTP        -0.3593
     17 C3'         1.0324    0.7610    1.7344 C.3       1 GTP         0.0907
     18 O3'         1.9175    0.2377    2.7247 O.3       1 GTP        -0.5209
     19 C2'         0.4468   -0.3802    0.9263 C.3       1 GTP         0.0305
     20 O2'         1.3993   -1.3703    0.5961 O.3       1 GTP        -0.5978
     21 C1'        -0.6159   -0.9100    1.8769 C.3       1 GTP         0.2339
     22 N9         -1.7127   -1.6108    1.2130 N.pl3     1 GTP        -0.1765
     23 C8         -2.8692   -1.0463    0.7355 C.ar      1 GTP         0.4947
     24 N7         -3.6707   -1.9381    0.1856 N.2       1 GTP        -0.5802
     25 C5         -3.0027   -3.1275    0.3134 C.ar      1 GTP         0.2279
     26 C6         -3.4659   -4.4142   -0.1355 C.ar      1 GTP         0.6513
     27 O6         -4.5328   -4.6133   -0.6980 O.2       1 GTP        -0.5111
     28 N1         -2.5102   -5.4606    0.1612 N.pl3     1 GTP        -0.4713
     29 C2         -1.2711   -5.2547    0.8113 C.ar      1 GTP         0.5256
     30 N2         -0.4228   -6.3256    1.0482 N.pl3     1 GTP        -0.8665
     31 N3         -0.9033   -3.9563    1.2146 N.pl3     1 GTP        -0.5398
     32 C4         -1.7979   -2.9400    0.9438 C.ar      1 GTP        -0.0275
     33 HOG3       -5.1738   -0.0740   -2.7862 H         1 GTP         0.4161
     34 H5'        -1.1767    2.0502    0.6368 H         1 GTP         0.0348
     35 H5''       -0.2080    3.2814    1.4876 H         1 GTP         0.0348
     36 H4'         0.0403    1.7078    3.4343 H         1 GTP         0.1215
     37 H3'         1.5907    1.4859    1.1353 H         1 GTP         0.0576
     38 HO3'        2.6839   -0.1150    2.2479 H         1 GTP         0.3842
     39 H2'        -0.0017    0.0018    0.0005 H         1 GTP         0.0252
     40 HO2'        2.0953   -0.9375    0.0709 H         1 GTP         0.4224
     41 H1'        -0.1998   -1.6319    2.6178 H         1 GTP         0.0745
     42 H8         -3.0691    0.0134    0.8177 H         1 GTP         0.1522
     43 HN1        -2.7468   -6.4119   -0.1177 H         1 GTP         0.3518
     44 HN21        0.4233   -6.1297    1.5018 H         1 GTP         0.4761
     45 HN22       -0.7261   -7.2071    0.7466 H         1 GTP         0.4761
     46 H46        -0.0124   -3.8015    1.6821 H         1 GTP         0.5030
@<TRIPOS>BOND
     1    1    2 2
     2    1    3 1
     3    1    4 1
     4    1    5 1
     5    4   33 1
     6    5    6 1
     7    6    7 2
     8    6    8 1
     9    6    9 1
    10    9   10 1
    11   10   11 2
    12   10   12 1
    13   10   13 1
    14   13   14 1
    15   14   15 1
    16   14   34 1
    17   14   35 1
    18   15   16 1
    19   15   17 1
    20   15   36 1
    21   16   21 1
    22   17   18 1
    23   17   19 1
    24   17   37 1
    25   18   38 1
    26   19   20 1
    27   19   21 1
    28   19   39 1
    29   20   40 1
    30   21   22 1
    31   21   41 1
    32   22   23 ar
    33   22   32 ar
    34   23   24 ar
    35   23   42 1
    36   24   25 ar
    37   25   26 ar
    38   25   32 ar
    39   26   27 2
    40   26   28 ar
    41   28   29 ar
    42   28   43 1
    43   29   30 1
    44   29   31 ar
    45   30   44 1
    46   30   45 1
    47   31   32 ar
    48   31   46 1
@<TRIPOS>SUBSTRUCTURE
     1 GTP         1 GROUP 0 A     ****
@<TRIPOS>MOLECULE
[[[5-(2-amino-6-oxo-1,3-dihydropurin-2-ylium-9-yl)-3,4-dihydroxy-tetrahydrofuran-2-yl]methoxy-oxido-phosphoryl]oxy-oxido-phosphoryl] hydrogen phosphate
   46    48     1     0     0
SMALL
USER_CHARGES

@<TRIPOS>ATOM
      1 PG         -7.1966   -0.0573    1.3610 P.3       1 GTP         1.5400
      2 O1G        -8.2857    0.4003    2.3054 O.co2     1 GTP        -0.8909
      3 O2G        -7.4523   -0.1666   -0.1258 O.co2     1 GTP        -0.8909
      4 O3G        -6.6154   -1.4872    1.8935 O.3       1 GTP        -0.7980
      5 O3B        -5.8655    0.8555    1.6031 O.3       1 GTP        -0.7612
      6 PB         -5.6201    2.4439    1.3161 P.3       1 GTP         1.5847
      7 O1B        -5.6883    2.6833   -0.1757 O.co2     1 GTP        -0.8859
      8 O2B        -6.4499    3.2544    2.2868 O.co2     1 GTP        -0.8859
      9 O3A        -4.0713    2.5645    1.8176 O.3       1 GTP        -0.7486
     10 PA         -3.0798    3.8627    1.8536 P.3       1 GTP         1.5001
     11 O1A        -2.8255    4.3201    0.4336 O.co2     1 GTP        -0.8487
     12 O2A        -3.5807    4.8256    2.9078 O.co2     1 GTP        -0.8487
     13 O5'        -1.7336    3.1724    2.4750 O.3       1 GTP        -0.5474
     14 C5'        -0.8811    2.4285    1.6206 C.3       1 GTP         0.2547
     15 C4'        -0.1994    1.3333    2.4288 C.3       1 GTP         0.0926
     16 O4'        -1.1285    0.2356    2.5840 O.3       1 GTP        -0.3593
     17 C3'         1.0324    0.7610    1.7344 C.3       1 GTP         0.0907
     18 O3'         1.9175    0.2377    2.7247 O.3       1 GTP        -0.5209
     19 C2'         0.4468   -0.3802    0.9263 C.3       1 GTP         0.0305
     20 O2'         1.3993   -1.3703    0.5961 O.3       1 GTP        -0.5978
     21 C1'        -0.6159   -0.9100    1.8769 C.3       1 GTP         0.2339
     22 N9         -1.7127   -1.6108    1.2130 N.pl3     1 GTP        -0.1765
     23 C8         -2.5534   -1.0907    0.2607 C.ar      1 GTP         0.4947
     24 N7         -3.4469   -1.9695   -0.1508 N.2       1 GTP        -0.5802
     25 C5         -3.1705   -3.1041    0.5657 C.ar      1 GTP         0.2279
     26 C6         -3.8738   -4.3568    0.4777 C.ar      1 GTP         0.6513
     27 O6         -4.8240   -4.5720   -0.2607 O.2       1 GTP        -0.5111
     28 N1         -3.3198   -5.3462    1.3780 N.pl3     1 GTP        -0.4713
     29 C2         -2.2226   -5.1203    2.2413 C.ar      1 GTP         0.5256
     30 N2         -1.7649   -6.1367    3.0659 N.pl3     1 GTP        -0.8665
     31 N3         -1.5969   -3.8585    2.2574 N.pl3     1 GTP        -0.5398
     32 C4         -2.1068   -2.8965    1.4082 C.ar      1 GTP        -0.0275
     33 HOG3       -5.8969   -1.9183    1.3834 H         1 GTP         0.4161
     34 H5'        -1.4800    1.9927    0.8146 H         1 GTP         0.0348
     35 H5''       -0.1367    3.1040    1.1872 H         1 GTP         0.0348
     36 H4'         0.0403    1.7078    3.4343 H         1 GTP         0.1215
     37 H3'         1.5907    1.4859    1.1353 H         1 GTP         0.0576
     38 HO3'        2.6839   -0.1150    2.2479 H         1 GTP         0.3842
     39 H2'        -0.0017    0.0018    0.0005 H         1 GTP         0.0252
     40 HO2'        0.9369   -2.0558    0.0825 H         1 GTP         0.4224
     41 H1'        -0.1998   -1.6319    2.6178 H         1 GTP         0.0745
     42 H8         -2.4657   -0.0713   -0.0897 H         1 GTP         0.1522
     43 HN1        -3.7505   -6.2699    1.3904 H         1 GTP         0.3518
     44 HN21       -1.0023   -5.9289    3.6451 H         1 GTP         0.4761
     45 HN22       -2.2347   -6.9951    3.0150 H         1 GTP         0.4761
     46 H46        -0.8062   -3.6900    2.8760 H         1 GTP         0.5030
@<TRIPOS>BOND
     1    1    2 2
     2    1    3 1
     3    1    4 1
     4    1    5 1
     5    4   33 1
     6    5    6 1
     7    6    7 2
     8    6    8 1
     9    6    9 1
    10    9   10 1
    11   10   11 2
    12   10   12 1
    13   10   13 1
    14   13   14 1
    15   14   15 1
    16   14   34 1
    17   14   35 1
    18   15   16 1
    19   15   17 1
    20   15   36 1
    21   16   21 1
    22   17   18 1
    23   17   19 1
    24   17   37 1
    25   18   38 1
    26   19   20 1
    27   19   21 1
    28   19   39 1
    29   20   40 1
    30   21   22 1
    31   21   41 1
    32   22   23 ar
    33   22   32 ar
    34   23   24 ar
    35   23   42 1
    36   24   25 ar
    37   25   26 ar
    38   25   32 ar
    39   26   27 2
    40   26   28 ar
    41   28   29 ar
    42   28   43 1
    43   29   30 1
    44   29   31 ar
    45   30   44 1
    46   30   45 1
    47   31   32 ar
    48   31   46 1
@<TRIPOS>SUBSTRUCTURE
     1 GTP         1 GROUP 0 A     ****
@<TRIPOS>MOLECULE
[[[5-(2-amino-6-oxo-1,3-dihydropurin-2-ylium-9-yl)-3,4-dihydroxy-tetrahydrofuran-2-yl]methoxy-oxido-phosphoryl]oxy-oxido-phosphoryl] hydrogen phosphate
   46    48     1     0     0
SMALL
USER_CHARGES

@<TRIPOS>ATOM
      1 PG         -7.5164    4.9095    0.2811 P.3       1 GTP         1.5400
      2 O1G        -7.3191    6.2258   -0.4372 O.co2     1 GTP        -0.8909
      3 O2G        -8.4466    3.8535   -0.2732 O.co2     1 GTP        -0.8909
      4 O3G        -7.9466    5.2206    1.8251 O.3       1 GTP        -0.7980
      5 O3B        -6.0575    4.2342    0.5628 O.3       1 GTP        -0.7612
      6 PB         -4.9597    3.6391   -0.4890 P.3       1 GTP         1.5847
      7 O1B        -5.5500    2.4249   -1.1707 O.co2     1 GTP        -0.8859
      8 O2B        -4.3664    4.7822   -1.2821 O.co2     1 GTP        -0.8859
      9 O3A        -3.8118    3.1654    0.5706 O.3       1 GTP        -0.7486
     10 PA         -2.9646    4.0418    1.6587 P.3       1 GTP         1.5001
     11 O1A        -2.0975    5.0342    0.9147 O.co2     1 GTP        -0.8487
     12 O2A        -3.9049    4.4925    2.7552 O.co2     1 GTP        -0.8487
     13 O5'        -2.0401    2.8620    2.3128 O.3       1 GTP        -0.5474
     14 C5'        -0.8811    2.4285    1.6206 C.3       1 GTP         0.2547
     15 C4'        -0.1994    1.3333    2.4288 C.3       1 GTP         0.0926
     16 O4'        -1.1285    0.2356    2.5840 O.3       1 GTP        -0.3593
     17 C3'         1.0324    0.7610    1.7344 C.3       1 GTP         0.0907
     18 O3'         1.9175    0.2377    2.7247 O.3       1 GTP        -0.5209
     19 C2'         0.4468   -0.3802    0.9263 C.3       1 GTP         0.0305
     20 O2'         1.3993   -1.3703    0.5961 O.3       1 GTP        -0.5978
     21 C1'        -0.6159   -0.9100    1.8769 C.3       1 GTP         0.2339
     22 N9         -1.7127   -1.6108    1.2130 N.pl3     1 GTP        -0.1765
     23 C8         -1.6092   -2.7449    0.4467 C.ar      1 GTP         0.4947
     24 N7         -2.7778   -3.1416   -0.0191 N.2       1 GTP        -0.5802
     25 C5         -3.6725   -2.2253    0.4675 C.ar      1 GTP         0.2279
     26 C6         -5.0932   -2.2202    0.2371 C.ar      1 GTP         0.6513
     27 O6         -5.6933   -3.0474   -0.4337 O.2       1 GTP        -0.5111
     28 N1         -5.7390   -1.1061    0.8992 N.pl3     1 GTP        -0.4713
     29 C2         -5.0661   -0.1368    1.6789 C.ar      1 GTP         0.5256
     30 N2         -5.7774    0.8934    2.2749 N.pl3     1 GTP        -0.8665
     31 N3         -3.6705   -0.2251    1.8481 N.pl3     1 GTP        -0.5398
     32 C4         -3.0303   -1.2785    1.2262 C.ar      1 GTP        -0.0275
     33 HOG3       -8.1122    4.4626    2.4254 H         1 GTP         0.4161
     34 H5'        -1.1767    2.0502    0.6368 H         1 GTP         0.0348
     35 H5''       -0.2080    3.2814    1.4876 H         1 GTP         0.0348
     36 H4'         0.0403    1.7078    3.4343 H         1 GTP         0.1215
     37 H3'         1.5907    1.4859    1.1353 H         1 GTP         0.0576
     38 HO3'        2.6839   -0.1150    2.2479 H         1 GTP         0.3842
     39 H2'        -0.0017    0.0018    0.0005 H         1 GTP         0.0252
     40 HO2'        2.0953   -0.9375    0.0709 H         1 GTP         0.4224
     41 H1'        -0.1998   -1.6319    2.6178 H         1 GTP         0.0745
     42 H8         -0.6610   -3.2324    0.2653 H         1 GTP         0.1522
     43 HN1        -6.7487   -1.0139    0.7961 H         1 GTP         0.3518
     44 HN21       -5.2644    1.5388    2.8044 H         1 GTP         0.4761
     45 HN22       -6.7459    0.9078    2.1265 H         1 GTP         0.4761
     46 H46        -3.1807    0.4690    2.4089 H         1 GTP         0.5030
@<TRIPOS>BOND
     1    1    2 2
     2    1    3 1
     3    1    4 1
     4    1    5 1
     5    4   33 1
     6    5    6 1
     7    6    7 2
     8    6    8 1
     9    6    9 1
    10    9   10 1
    11   10   11 2
    12   10   12 1
    13   10   13 1
    14   13   14 1
    15   14   15 1
    16   14   34 1
    17   14   35 1
    18   15   16 1
    19   15   17 1
    20   15   36 1
    21   16   21 1
    22   17   18 1
    23   17   19 1
    24   17   37 1
    25   18   38 1
    26   19   20 1
    27   19   21 1
    28   19   39 1
    29   20   40 1
    30   21   22 1
    31   21   41 1
    32   22   23 ar
    33   22   32 ar
    34   23   24 ar
    35   23   42 1
    36   24   25 ar
    37   25   26 ar
    38   25   32 ar
    39   26   27 2
    40   26   28 ar
    41   28   29 ar
    42   28   43 1
    43   29   30 1
    44   29   31 ar
    45   30   44 1
    46   30   45 1
    47   31   32 ar
    48   31   46 1
@<TRIPOS>SUBSTRUCTURE
     1 GTP         1 GROUP 0 A     ****
@<TRIPOS>MOLECULE
[[[5-(2-amino-6-oxo-1,3-dihydropurin-2-ylium-9-yl)-3,4-dihydroxy-tetrahydrofuran-2-yl]methoxy-oxido-phosphoryl]oxy-oxido-phosphoryl] hydrogen phosphate
   46    48     1     0     0
SMALL
USER_CHARGES

@<TRIPOS>ATOM
      1 PG         -3.7254    6.3170   -2.5383 P.3       1 GTP         1.5400
      2 O1G        -3.5806    5.6623   -3.8940 O.co2     1 GTP        -0.8909
      3 O2G        -4.9711    7.0969   -2.1809 O.co2     1 GTP        -0.8909
      4 O3G        -2.4252    7.2705   -2.2812 O.3       1 GTP        -0.7980
      5 O3B        -3.4477    5.2032   -1.3781 O.3       1 GTP        -0.7612
      6 PB         -4.3123    3.8795   -0.9705 P.3       1 GTP         1.5847
      7 O1B        -5.6509    4.3239   -0.4245 O.co2     1 GTP        -0.8859
      8 O2B        -4.2100    2.8614   -2.0843 O.co2     1 GTP        -0.8859
      9 O3A        -3.3820    3.3250    0.2509 O.3       1 GTP        -0.7486
     10 PA         -2.9646    4.0418    1.6587 P.3       1 GTP         1.5001
     11 O1A        -2.1198    5.2596    1.3528 O.co2     1 GTP        -0.8487
     12 O2A        -4.1947    4.1429    2.5341 O.co2     1 GTP        -0.8487
     13 O5'        -2.0401    2.8620    2.3128 O.3       1 GTP        -0.5474
     14 C5'        -0.8811    2.4285    1.6206 C.3       1 GTP         0.2547
     15 C4'        -0.1994    1.3333    2.4288 C.3       1 GTP         0.0926
     16 O4'        -1.1285    0.2356    2.5840 O.3       1 GTP        -0.3593
     17 C3'         1.0324    0.7610    1.7344 C.3       1 GTP         0.0907
     18 O3'         1.9175    0.2377    2.7247 O.3       1 GTP        -0.5209
     19 C2'         0.4468   -0.3802    0.9263 C.3       1 GTP         0.0305
     20 O2'         1.3993   -1.3703    0.5961 O.3       1 GTP        -0.5978
     21 C1'        -0.6159   -0.9100    1.8769 C.3       1 GTP         0.2339
     22 N9         -1.7127   -1.6108    1.2130 N.pl3     1 GTP        -0.1765
     23 C8         -2.8692   -1.0463    0.7355 C.ar      1 GTP         0.4947
     24 N7         -3.6707   -1.9381    0.1856 N.2       1 GTP        -0.5802
     25 C5         -3.0027   -3.1275    0.3134 C.ar      1 GTP         0.2279
     26 C6         -3.4659   -4.4142   -0.1355 C.ar      1 GTP         0.6513
     27 O6         -4.5328   -4.6133   -0.6980 O.2       1 GTP        -0.5111
     28 N1         -2.5102   -5.4606    0.1612 N.pl3     1 GTP        -0.4713
     29 C2         -1.2711   -5.2547    0.8113 C.ar      1 GTP         0.5256
     30 N2         -0.4228   -6.3256    1.0482 N.pl3     1 GTP        -0.8665
     31 N3         -0.9033   -3.9563    1.2146 N.pl3     1 GTP        -0.5398
     32 C4         -1.7979   -2.9400    0.9438 C.ar      1 GTP        -0.0275
     33 HOG3       -2.3707    7.7682   -1.4376 H         1 GTP         0.4161
     34 H5'        -1.1767    2.0502    0.6368 H         1 GTP         0.0348
     35 H5''       -0.2080    3.2814    1.4876 H         1 GTP         0.0348
     36 H4'         0.0403    1.7078    3.4343 H         1 GTP         0.1215
     37 H3'         1.5907    1.4859    1.1353 H         1 GTP         0.0576
     38 HO3'        2.6839   -0.1150    2.2479 H         1 GTP         0.3842
     39 H2'        -0.0017    0.0018    0.0005 H         1 GTP         0.0252
     40 HO2'        2.0953   -0.9375    0.0709 H         1 GTP         0.4224
     41 H1'        -0.1998   -1.6319    2.6178 H         1 GTP         0.0745
     42 H8         -3.0691    0.0134    0.8177 H         1 GTP         0.1522
     43 HN1        -2.7468   -6.4119   -0.1177 H         1 GTP         0.3518
     44 HN21        0.4233   -6.1297    1.5018 H         1 GTP         0.4761
     45 HN22       -0.7261   -7.2071    0.7466 H         1 GTP         0.4761
     46 H46        -0.0124   -3.8015    1.6821 H         1 GTP         0.5030
@<TRIPOS>BOND
     1    1    2 2
     2    1    3 1
     3    1    4 1
     4    1    5 1
     5    4   33 1
     6    5    6 1
     7    6    7 2
     8    6    8 1
     9    6    9 1
    10    9   10 1
    11   10   11 2
    12   10   12 1
    13   10   13 1
    14   13   14 1
    15   14   15 1
    16   14   34 1
    17   14   35 1
    18   15   16 1
    19   15   17 1
    20   15   36 1
    21   16   21 1
    22   17   18 1
    23   17   19 1
    24   17   37 1
    25   18   38 1
    26   19   20 1
    27   19   21 1
    28   19   39 1
    29   20   40 1
    30   21   22 1
    31   21   41 1
    32   22   23 ar
    33   22   32 ar
    34   23   24 ar
    35   23   42 1
    36   24   25 ar
    37   25   26 ar
    38   25   32 ar
    39   26   27 2
    40   26   28 ar
    41   28   29 ar
    42   28   43 1
    43   29   30 1
    44   29   31 ar
    45   30   44 1
    46   30   45 1
    47   31   32 ar
    48   31   46 1
@<TRIPOS>SUBSTRUCTURE
     1 GTP         1 GROUP 0 A     ****
@<TRIPOS>MOLECULE
[[[5-(2-amino-6-oxo-1,3-dihydropurin-2-ylium-9-yl)-3,4-dihydroxy-tetrahydrofuran-2-yl]methoxy-oxido-phosphoryl]oxy-oxido-phosphoryl] hydrogen phosphate
   46    48     1     0     0
SMALL
USER_CHARGES

@<TRIPOS>ATOM
      1 PG         -4.5317    5.6356   -2.6278 P.3       1 GTP         1.5400
      2 O1G        -4.8192    4.7379   -3.8106 O.co2     1 GTP        -0.8909
      3 O2G        -5.5457    6.6569   -2.1626 O.co2     1 GTP        -0.8909
      4 O3G        -3.1109    6.3969   -2.8878 O.3       1 GTP        -0.7980
      5 O3B        -4.0883    4.7132   -1.3564 O.3       1 GTP        -0.7612
      6 PB         -4.9597    3.6391   -0.4890 P.3       1 GTP         1.5847
      7 O1B        -6.0514    4.3828    0.2477 O.co2     1 GTP        -0.8859
      8 O2B        -5.2659    2.4380   -1.3556 O.co2     1 GTP        -0.8859
      9 O3A        -3.8118    3.1654    0.5706 O.3       1 GTP        -0.7486
     10 PA         -2.9646    4.0418    1.6587 P.3       1 GTP         1.5001
     11 O1A        -2.0975    5.0342    0.9147 O.co2     1 GTP        -0.8487
     12 O2A        -3.9049    4.4925    2.7552 O.co2     1 GTP        -0.8487
     13 O5'        -2.0401    2.8620    2.3128 O.3       1 GTP        -0.5474
     14 C5'        -0.8811    2.4285    1.6206 C.3       1 GTP         0.2547
     15 C4'        -0.1994    1.3333    2.4288 C.3       1 GTP         0.0926
     16 O4'        -1.1285    0.2356    2.5840 O.3       1 GTP        -0.3593
     17 C3'         1.0324    0.7610    1.7344 C.3       1 GTP         0.0907
     18 O3'         1.9175    0.2377    2.7247 O.3       1 GTP        -0.5209
     19 C2'         0.4468   -0.3802    0.9263 C.3       1 GTP         0.0305
     20 O2'         1.3993   -1.3703    0.5961 O.3       1 GTP        -0.5978
     21 C1'        -0.6159   -0.9100    1.8769 C.3       1 GTP         0.2339
     22 N9         -1.7127   -1.6108    1.2130 N.pl3     1 GTP        -0.1765
     23 C8         -1.6092   -2.7449    0.4467 C.ar      1 GTP         0.4947
     24 N7         -2.7778   -3.1416   -0.0191 N.2       1 GTP        -0.5802
     25 C5         -3.6725   -2.2253    0.4675 C.ar      1 GTP         0.2279
     26 C6         -5.0932   -2.2202    0.2371 C.ar      1 GTP         0.6513
     27 O6         -5.6933   -3.0474   -0.4337 O.2       1 GTP        -0.5111
     28 N1         -5.7390   -1.1061    0.8992 N.pl3     1 GTP        -0.4713
     29 C2         -5.0661   -0.1368    1.6789 C.ar      1 GTP         0.5256
     30 N2         -5.7774    0.8934    2.2749 N.pl3     1 GTP        -0.8665
     31 N3         -3.6705   -0.2251    1.8481 N.pl3     1 GTP        -0.5398
     32 C4         -3.0303   -1.2785    1.2262 C.ar      1 GTP        -0.0275
     33 HOG3       -2.7831    7.0198   -2.2046 H         1 GTP         0.4161
     34 H5'        -1.1767    2.0502    0.6368 H         1 GTP         0.0348
     35 H5''       -0.2080    3.2814    1.4876 H         1 GTP         0.0348
     36 H4'         0.0403    1.7078    3.4343 H         1 GTP         0.1215
     37 H3'         1.5907    1.4859    1.1353 H         1 GTP         0.0576
     38 HO3'        2.6839   -0.1150    2.2479 H         1 GTP         0.3842
     39 H2'        -0.0017    0.0018    0.0005 H         1 GTP         0.0252
     40 HO2'        2.0953   -0.9375    0.0709 H         1 GTP         0.4224
     41 H1'        -0.1998   -1.6319    2.6178 H         1 GTP         0.0745
     42 H8         -0.6610   -3.2324    0.2653 H         1 GTP         0.1522
     43 HN1        -6.7487   -1.0139    0.7961 H         1 GTP         0.3518
     44 HN21       -5.2644    1.5388    2.8044 H         1 GTP         0.4761
     45 HN22       -6.7459    0.9078    2.1265 H         1 GTP         0.4761
     46 H46        -3.1807    0.4690    2.4089 H         1 GTP         0.5030
@<TRIPOS>BOND
     1    1    2 2
     2    1    3 1
     3    1    4 1
     4    1    5 1
     5    4   33 1
     6    5    6 1
     7    6    7 2
     8    6    8 1
     9    6    9 1
    10    9   10 1
    11   10   11 2
    12   10   12 1
    13   10   13 1
    14   13   14 1
    15   14   15 1
    16   14   34 1
    17   14   35 1
    18   15   16 1
    19   15   17 1
    20   15   36 1
    21   16   21 1
    22   17   18 1
    23   17   19 1
    24   17   37 1
    25   18   38 1
    26   19   20 1
    27   19   21 1
    28   19   39 1
    29   20   40 1
    30   21   22 1
    31   21   41 1
    32   22   23 ar
    33   22   32 ar
    34   23   24 ar
    35   23   42 1
    36   24   25 ar
    37   25   26 ar
    38   25   32 ar
    39   26   27 2
    40   26   28 ar
    41   28   29 ar
    42   28   43 1
    43   29   30 1
    44   29   31 ar
    45   30   44 1
    46   30   45 1
    47   31   32 ar
    48   31   46 1
@<TRIPOS>SUBSTRUCTURE
     1 GTP         1 GROUP 0 A     ****
@<TRIPOS>MOLECULE
[[[5-(2-amino-6-oxo-1,3-dihydropurin-2-ylium-9-yl)-3,4-dihydroxy-tetrahydrofuran-2-yl]methoxy-oxido-phosphoryl]oxy-oxido-phosphoryl] hydrogen phosphate
   46    48     1     0     0
SMALL
USER_CHARGES

@<TRIPOS>ATOM
      1 PG         -4.9121    2.3560   -3.4328 P.3       1 GTP         1.5400
      2 O1G        -4.3917    1.0616   -4.0169 O.co2     1 GTP        -0.8909
      3 O2G        -6.3977    2.6206   -3.3300 O.co2     1 GTP        -0.8909
      4 O3G        -4.2177    3.6007   -4.2295 O.3       1 GTP        -0.7980
      5 O3B        -4.2306    2.5898   -1.9683 O.3       1 GTP        -0.7612
      6 PB         -4.3123    3.8795   -0.9705 P.3       1 GTP         1.5847
      7 O1B        -3.6262    5.0516   -1.6361 O.co2     1 GTP        -0.8859
      8 O2B        -5.7177    3.9914   -0.4230 O.co2     1 GTP        -0.8859
      9 O3A        -3.3820    3.3250    0.2509 O.3       1 GTP        -0.7486
     10 PA         -2.9646    4.0418    1.6587 P.3       1 GTP         1.5001
     11 O1A        -2.1198    5.2596    1.3528 O.co2     1 GTP        -0.8487
     12 O2A        -4.1947    4.1429    2.5341 O.co2     1 GTP        -0.8487
     13 O5'        -2.0401    2.8620    2.3128 O.3       1 GTP        -0.5474
     14 C5'        -0.8811    2.4285    1.6206 C.3       1 GTP         0.2547
     15 C4'        -0.1994    1.3333    2.4288 C.3       1 GTP         0.0926
     16 O4'        -1.1285    0.2356    2.5840 O.3       1 GTP        -0.3593
     17 C3'         1.0324    0.7610    1.7344 C.3       1 GTP         0.0907
     18 O3'         1.9175    0.2377    2.7247 O.3       1 GTP        -0.5209
     19 C2'         0.4468   -0.3802    0.9263 C.3       1 GTP         0.0305
     20 O2'         1.3993   -1.3703    0.5961 O.3       1 GTP        -0.5978
     21 C1'        -0.6159   -0.9100    1.8769 C.3       1 GTP         0.2339
     22 N9         -1.7127   -1.6108    1.2130 N.pl3     1 GTP        -0.1765
     23 C8         -2.8692   -1.0463    0.7355 C.ar      1 GTP         0.4947
     24 N7         -3.6707   -1.9381    0.1856 N.2       1 GTP        -0.5802
     25 C5         -3.0027   -3.1275    0.3134 C.ar      1 GTP         0.2279
     26 C6         -3.4659   -4.4142   -0.1355 C.ar      1 GTP         0.6513
     27 O6         -4.5328   -4.6133   -0.6980 O.2       1 GTP        -0.5111
     28 N1         -2.5102   -5.4606    0.1612 N.pl3     1 GTP        -0.4713
     29 C2         -1.2711   -5.2547    0.8113 C.ar      1 GTP         0.5256
     30 N2         -0.4228   -6.3256    1.0482 N.pl3     1 GTP        -0.8665
     31 N3         -0.9033   -3.9563    1.2146 N.pl3     1 GTP        -0.5398
     32 C4         -1.7979   -2.9400    0.9438 C.ar      1 GTP        -0.0275
     33 HOG3       -4.4551    4.5150   -3.9649 H         1 GTP         0.4161
     34 H5'        -1.1767    2.0502    0.6368 H         1 GTP         0.0348
     35 H5''       -0.2080    3.2814    1.4876 H         1 GTP         0.0348
     36 H4'         0.0403    1.7078    3.4343 H         1 GTP         0.1215
     37 H3'         1.5907    1.4859    1.1353 H         1 GTP         0.0576
     38 HO3'        2.6839   -0.1150    2.2479 H         1 GTP         0.3842
     39 H2'        -0.0017    0.0018    0.0005 H         1 GTP         0.0252
     40 HO2'        2.0953   -0.9375    0.0709 H         1 GTP         0.4224
     41 H1'        -0.1998   -1.6319    2.6178 H         1 GTP         0.0745
     42 H8         -3.0691    0.0134    0.8177 H         1 GTP         0.1522
     43 HN1        -2.7468   -6.4119   -0.1177 H         1 GTP         0.3518
     44 HN21        0.4233   -6.1297    1.5018 H         1 GTP         0.4761
     45 HN22       -0.7261   -7.2071    0.7466 H         1 GTP         0.4761
     46 H46        -0.0124   -3.8015    1.6821 H         1 GTP         0.5030
@<TRIPOS>BOND
     1    1    2 2
     2    1    3 1
     3    1    4 1
     4    1    5 1
     5    4   33 1
     6    5    6 1
     7    6    7 2
     8    6    8 1
     9    6    9 1
    10    9   10 1
    11   10   11 2
    12   10   12 1
    13   10   13 1
    14   13   14 1
    15   14   15 1
    16   14   34 1
    17   14   35 1
    18   15   16 1
    19   15   17 1
    20   15   36 1
    21   16   21 1
    22   17   18 1
    23   17   19 1
    24   17   37 1
    25   18   38 1
    26   19   20 1
    27   19   21 1
    28   19   39 1
    29   20   40 1
    30   21   22 1
    31   21   41 1
    32   22   23 ar
    33   22   32 ar
    34   23   24 ar
    35   23   42 1
    36   24   25 ar
    37   25   26 ar
    38   25   32 ar
    39   26   27 2
    40   26   28 ar
    41   28   29 ar
    42   28   43 1
    43   29   30 1
    44   29   31 ar
    45   30   44 1
    46   30   45 1
    47   31   32 ar
    48   31   46 1
@<TRIPOS>SUBSTRUCTURE
     1 GTP         1 GROUP 0 A     ****
@<TRIPOS>MOLECULE
[[[5-(2-amino-6-oxo-1,3-dihydropurin-2-ylium-9-yl)-3,4-dihydroxy-tetrahydrofuran-2-yl]methoxy-oxido-phosphoryl]oxy-oxido-phosphoryl] hydrogen phosphate
   46    48     1     0     0
SMALL
USER_CHARGES

@<TRIPOS>ATOM
      1 PG         -7.1486    4.6640   -0.6817 P.3       1 GTP         1.5400
      2 O1G        -7.0044    6.1157   -1.0805 O.co2     1 GTP        -0.8909
      3 O2G        -7.7410    3.6509   -1.6358 O.co2     1 GTP        -0.8909
      4 O3G        -7.9713    4.5924    0.7269 O.3       1 GTP        -0.7980
      5 O3B        -5.7062    4.1125   -0.1531 O.3       1 GTP        -0.7612
      6 PB         -4.3123    3.8795   -0.9705 P.3       1 GTP         1.5847
      7 O1B        -4.5235    2.7779   -1.9851 O.co2     1 GTP        -0.8859
      8 O2B        -3.7429    5.2232   -1.3678 O.co2     1 GTP        -0.8859
      9 O3A        -3.3820    3.3250    0.2509 O.3       1 GTP        -0.7486
     10 PA         -2.9646    4.0418    1.6587 P.3       1 GTP         1.5001
     11 O1A        -2.1198    5.2596    1.3528 O.co2     1 GTP        -0.8487
     12 O2A        -4.1947    4.1429    2.5341 O.co2     1 GTP        -0.8487
     13 O5'        -2.0401    2.8620    2.3128 O.3       1 GTP        -0.5474
     14 C5'        -0.8811    2.4285    1.6206 C.3       1 GTP         0.2547
     15 C4'        -0.1994    1.3333    2.4288 C.3       1 GTP         0.0926
     16 O4'        -1.1285    0.2356    2.5840 O.3       1 GTP        -0.3593
     17 C3'         1.0324    0.7610    1.7344 C.3       1 GTP         0.0907
     18 O3'         1.9175    0.2377    2.7247 O.3       1 GTP        -0.5209
     19 C2'         0.4468   -0.3802    0.9263 C.3       1 GTP         0.0305
     20 O2'         1.3993   -1.3703    0.5961 O.3       1 GTP        -0.5978
     21 C1'        -0.6159   -0.9100    1.8769 C.3       1 GTP         0.2339
     22 N9         -1.7127   -1.6108    1.2130 N.pl3     1 GTP        -0.1765
     23 C8         -2.8692   -1.0463    0.7355 C.ar      1 GTP         0.4947
     24 N7         -3.6707   -1.9381    0.1856 N.2       1 GTP        -0.5802
     25 C5         -3.0027   -3.1275    0.3134 C.ar      1 GTP         0.2279
     26 C6         -3.4659   -4.4142   -0.1355 C.ar      1 GTP         0.6513
     27 O6         -4.5328   -4.6133   -0.6980 O.2       1 GTP        -0.5111
     28 N1         -2.5102   -5.4606    0.1612 N.pl3     1 GTP        -0.4713
     29 C2         -1.2711   -5.2547    0.8113 C.ar      1 GTP         0.5256
     30 N2         -0.4228   -6.3256    1.0482 N.pl3     1 GTP        -0.8665
     31 N3         -0.9033   -3.9563    1.2146 N.pl3     1 GTP        -0.5398
     32 C4         -1.7979   -2.9400    0.9438 C.ar      1 GTP        -0.0275
     33 HOG3       -8.1476    3.7112    1.1203 H         1 GTP         0.4161
     34 H5'        -1.1767    2.0502    0.6368 H         1 GTP         0.0348
     35 H5''       -0.2080    3.2814    1.4876 H         1 GTP         0.0348
     36 H4'         0.0403    1.7078    3.4343 H         1 GTP         0.1215
     37 H3'         1.5907    1.4859    1.1353 H         1 GTP         0.0576
     38 HO3'        2.6839   -0.1150    2.2479 H         1 GTP         0.3842
     39 H2'        -0.0017    0.0018    0.0005 H         1 GTP         0.0252
     40 HO2'        2.0953   -0.9375    0.0709 H         1 GTP         0.4224
     41 H1'        -0.1998   -1.6319    2.6178 H         1 GTP         0.0745
     42 H8         -3.0691    0.0134    0.8177 H         1 GTP         0.1522
     43 HN1        -2.7468   -6.4119   -0.1177 H         1 GTP         0.3518
     44 HN21        0.4233   -6.1297    1.5018 H         1 GTP         0.4761
     45 HN22       -0.7261   -7.2071    0.7466 H         1 GTP         0.4761
     46 H46        -0.0124   -3.8015    1.6821 H         1 GTP         0.5030
@<TRIPOS>BOND
     1    1    2 2
     2    1    3 1
     3    1    4 1
     4    1    5 1
     5    4   33 1
     6    5    6 1
     7    6    7 2
     8    6    8 1
     9    6    9 1
    10    9   10 1
    11   10   11 2
    12   10   12 1
    13   10   13 1
    14   13   14 1
    15   14   15 1
    16   14   34 1
    17   14   35 1
    18   15   16 1
    19   15   17 1
    20   15   36 1
    21   16   21 1
    22   17   18 1
    23   17   19 1
    24   17   37 1
    25   18   38 1
    26   19   20 1
    27   19   21 1
    28   19   39 1
    29   20   40 1
    30   21   22 1
    31   21   41 1
    32   22   23 ar
    33   22   32 ar
    34   23   24 ar
    35   23   42 1
    36   24   25 ar
    37   25   26 ar
    38   25   32 ar
    39   26   27 2
    40   26   28 ar
    41   28   29 ar
    42   28   43 1
    43   29   30 1
    44   29   31 ar
    45   30   44 1
    46   30   45 1
    47   31   32 ar
    48   31   46 1
@<TRIPOS>SUBSTRUCTURE
     1 GTP         1 GROUP 0 A     ****
@<TRIPOS>MOLECULE
[[[5-(2-amino-6-oxo-1,3-dihydropurin-2-ylium-9-yl)-3,4-dihydroxy-tetrahydrofuran-2-yl]methoxy-oxido-phosphoryl]oxy-oxido-phosphoryl] hydrogen phosphate
   46    48     1     0     0
SMALL
USER_CHARGES

@<TRIPOS>ATOM
      1 PG         -4.9121    2.3560   -3.4328 P.3       1 GTP         1.5400
      2 O1G        -4.3917    1.0616   -4.0169 O.co2     1 GTP        -0.8909
      3 O2G        -6.3977    2.6206   -3.3300 O.co2     1 GTP        -0.8909
      4 O3G        -4.2177    3.6007   -4.2295 O.3       1 GTP        -0.7980
      5 O3B        -4.2306    2.5898   -1.9683 O.3       1 GTP        -0.7612
      6 PB         -4.3123    3.8795   -0.9705 P.3       1 GTP         1.5847
      7 O1B        -3.6262    5.0516   -1.6361 O.co2     1 GTP        -0.8859
      8 O2B        -5.7177    3.9914   -0.4230 O.co2     1 GTP        -0.8859
      9 O3A        -3.3820    3.3250    0.2509 O.3       1 GTP        -0.7486
     10 PA         -2.9646    4.0418    1.6587 P.3       1 GTP         1.5001
     11 O1A        -2.1198    5.2596    1.3528 O.co2     1 GTP        -0.8487
     12 O2A        -4.1947    4.1429    2.5341 O.co2     1 GTP        -0.8487
     13 O5'        -2.0401    2.8620    2.3128 O.3       1 GTP        -0.5474
     14 C5'        -0.8811    2.4285    1.6206 C.3       1 GTP         0.2547
     15 C4'        -0.1994    1.3333    2.4288 C.3       1 GTP         0.0926
     16 O4'        -1.1285    0.2356    2.5840 O.3       1 GTP        -0.3593
     17 C3'         1.0324    0.7610    1.7344 C.3       1 GTP         0.0907
     18 O3'         1.9175    0.2377    2.7247 O.3       1 GTP        -0.5209
     19 C2'         0.4468   -0.3802    0.9263 C.3       1 GTP         0.0305
     20 O2'         1.3993   -1.3703    0.5961 O.3       1 GTP        -0.5978
     21 C1'        -0.6159   -0.9100    1.8769 C.3       1 GTP         0.2339
     22 N9         -1.7127   -1.6108    1.2130 N.pl3     1 GTP        -0.1765
     23 C8         -1.6092   -2.7449    0.4467 C.ar      1 GTP         0.4947
     24 N7         -2.7778   -3.1416   -0.0191 N.2       1 GTP        -0.5802
     25 C5         -3.6725   -2.2253    0.4675 C.ar      1 GTP         0.2279
     26 C6         -5.0932   -2.2202    0.2371 C.ar      1 GTP         0.6513
     27 O6         -5.6933   -3.0474   -0.4337 O.2       1 GTP        -0.5111
     28 N1         -5.7390   -1.1061    0.8992 N.pl3     1 GTP        -0.4713
     29 C2         -5.0661   -0.1368    1.6789 C.ar      1 GTP         0.5256
     30 N2         -5.7774    0.8934    2.2749 N.pl3     1 GTP        -0.8665
     31 N3         -3.6705   -0.2251    1.8481 N.pl3     1 GTP        -0.5398
     32 C4         -3.0303   -1.2785    1.2262 C.ar      1 GTP        -0.0275
     33 HOG3       -4.4551    4.5150   -3.9649 H         1 GTP         0.4161
     34 H5'        -1.1767    2.0502    0.6368 H         1 GTP         0.0348
     35 H5''       -0.2080    3.2814    1.4876 H         1 GTP         0.0348
     36 H4'         0.0403    1.7078    3.4343 H         1 GTP         0.1215
     37 H3'         1.5907    1.4859    1.1353 H         1 GTP         0.0576
     38 HO3'        2.6839   -0.1150    2.2479 H         1 GTP         0.3842
     39 H2'        -0.0017    0.0018    0.0005 H         1 GTP         0.0252
     40 HO2'        2.0953   -0.9375    0.0709 H         1 GTP         0.4224
     41 H1'        -0.1998   -1.6319    2.6178 H         1 GTP         0.0745
     42 H8         -0.6610   -3.2324    0.2653 H         1 GTP         0.1522
     43 HN1        -6.7487   -1.0139    0.7961 H         1 GTP         0.3518
     44 HN21       -5.2644    1.5388    2.8044 H         1 GTP         0.4761
     45 HN22       -6.7459    0.9078    2.1265 H         1 GTP         0.4761
     46 H46        -3.1807    0.4690    2.4089 H         1 GTP         0.5030
@<TRIPOS>BOND
     1    1    2 2
     2    1    3 1
     3    1    4 1
     4    1    5 1
     5    4   33 1
     6    5    6 1
     7    6    7 2
     8    6    8 1
     9    6    9 1
    10    9   10 1
    11   10   11 2
    12   10   12 1
    13   10   13 1
    14   13   14 1
    15   14   15 1
    16   14   34 1
    17   14   35 1
    18   15   16 1
    19   15   17 1
    20   15   36 1
    21   16   21 1
    22   17   18 1
    23   17   19 1
    24   17   37 1
    25   18   38 1
    26   19   20 1
    27   19   21 1
    28   19   39 1
    29   20   40 1
    30   21   22 1
    31   21   41 1
    32   22   23 ar
    33   22   32 ar
    34   23   24 ar
    35   23   42 1
    36   24   25 ar
    37   25   26 ar
    38   25   32 ar
    39   26   27 2
    40   26   28 ar
    41   28   29 ar
    42   28   43 1
    43   29   30 1
    44   29   31 ar
    45   30   44 1
    46   30   45 1
    47   31   32 ar
    48   31   46 1
@<TRIPOS>SUBSTRUCTURE
     1 GTP         1 GROUP 0 A     ****
@<TRIPOS>MOLECULE
[[[5-(2-amino-6-oxo-1,3-dihydropurin-2-ylium-9-yl)-3,4-dihydroxy-tetrahydrofuran-2-yl]methoxy-oxido-phosphoryl]oxy-oxido-phosphoryl] hydrogen phosphate
   46    48     1     0     0
SMALL
USER_CHARGES

@<TRIPOS>ATOM
      1 PG         -7.5438    1.3897    3.6475 P.3       1 GTP         1.5400
      2 O1G        -8.4471    1.8794    2.5377 O.co2     1 GTP        -0.8909
      3 O2G        -7.6998   -0.0016    4.2197 O.co2     1 GTP        -0.8909
      4 O3G        -7.6011    2.4646    4.8752 O.3       1 GTP        -0.7980
      5 O3B        -5.9889    1.6070    3.2018 O.3       1 GTP        -0.7612
      6 PB         -5.1305    0.8859    2.0149 P.3       1 GTP         1.5847
      7 O1B        -4.9798   -0.5816    2.3485 O.co2     1 GTP        -0.8859
      8 O2B        -5.6619    1.3426    0.6745 O.co2     1 GTP        -0.8859
      9 O3A        -3.7004    1.6434    2.2287 O.3       1 GTP        -0.7486
     10 PA         -3.3347    3.2338    2.1468 P.3       1 GTP         1.5001
     11 O1A        -3.5602    3.7126    0.7290 O.co2     1 GTP        -0.8487
     12 O2A        -3.9756    3.9393    3.3221 O.co2     1 GTP        -0.8487
     13 O5'        -1.7336    3.1724    2.4750 O.3       1 GTP        -0.5474
     14 C5'        -0.8811    2.4285    1.6206 C.3       1 GTP         0.2547
     15 C4'        -0.1994    1.3333    2.4288 C.3       1 GTP         0.0926
     16 O4'        -1.1285    0.2356    2.5840 O.3       1 GTP        -0.3593
     17 C3'         1.0324    0.7610    1.7344 C.3       1 GTP         0.0907
     18 O3'         1.9175    0.2377    2.7247 O.3       1 GTP        -0.5209
     19 C2'         0.4468   -0.3802    0.9263 C.3       1 GTP         0.0305
     20 O2'         1.3993   -1.3703    0.5961 O.3       1 GTP        -0.5978
     21 C1'        -0.6159   -0.9100    1.8769 C.3       1 GTP         0.2339
     22 N9         -1.7127   -1.6108    1.2130 N.pl3     1 GTP        -0.1765
     23 C8         -2.5534   -1.0907    0.2607 C.ar      1 GTP         0.4947
     24 N7         -3.4469   -1.9695   -0.1508 N.2       1 GTP        -0.5802
     25 C5         -3.1705   -3.1041    0.5657 C.ar      1 GTP         0.2279
     26 C6         -3.8738   -4.3568    0.4777 C.ar      1 GTP         0.6513
     27 O6         -4.8240   -4.5720   -0.2607 O.2       1 GTP        -0.5111
     28 N1         -3.3198   -5.3462    1.3780 N.pl3     1 GTP        -0.4713
     29 C2         -2.2226   -5.1203    2.2413 C.ar      1 GTP         0.5256
     30 N2         -1.7649   -6.1367    3.0659 N.pl3     1 GTP        -0.8665
     31 N3         -1.5969   -3.8585    2.2574 N.pl3     1 GTP        -0.5398
     32 C4         -2.1068   -2.8965    1.4082 C.ar      1 GTP        -0.0275
     33 HOG3       -7.0639    2.2871    5.6766 H         1 GTP         0.4161
     34 H5'        -1.4800    1.9927    0.8146 H         1 GTP         0.0348
     35 H5''       -0.1367    3.1040    1.1872 H         1 GTP         0.0348
     36 H4'         0.0403    1.7078    3.4343 H         1 GTP         0.1215
     37 H3'         1.5907    1.4859    1.1353 H         1 GTP         0.0576
     38 HO3'        2.6839   -0.1150    2.2479 H         1 GTP         0.3842
     39 H2'        -0.0017    0.0018    0.0005 H         1 GTP         0.0252
     40 HO2'        2.0953   -0.9375    0.0709 H         1 GTP         0.4224
     41 H1'        -0.1998   -1.6319    2.6178 H         1 GTP         0.0745
     42 H8         -2.4657   -0.0713   -0.0897 H         1 GTP         0.1522
     43 HN1        -3.7505   -6.2699    1.3904 H         1 GTP         0.3518
     44 HN21       -1.0023   -5.9289    3.6451 H         1 GTP         0.4761
     45 HN22       -2.2347   -6.9951    3.0150 H         1 GTP         0.4761
     46 H46        -0.8062   -3.6900    2.8760 H         1 GTP         0.5030
@<TRIPOS>BOND
     1    1    2 2
     2    1    3 1
     3    1    4 1
     4    1    5 1
     5    4   33 1
     6    5    6 1
     7    6    7 2
     8    6    8 1
     9    6    9 1
    10    9   10 1
    11   10   11 2
    12   10   12 1
    13   10   13 1
    14   13   14 1
    15   14   15 1
    16   14   34 1
    17   14   35 1
    18   15   16 1
    19   15   17 1
    20   15   36 1
    21   16   21 1
    22   17   18 1
    23   17   19 1
    24   17   37 1
    25   18   38 1
    26   19   20 1
    27   19   21 1
    28   19   39 1
    29   20   40 1
    30   21   22 1
    31   21   41 1
    32   22   23 ar
    33   22   32 ar
    34   23   24 ar
    35   23   42 1
    36   24   25 ar
    37   25   26 ar
    38   25   32 ar
    39   26   27 2
    40   26   28 ar
    41   28   29 ar
    42   28   43 1
    43   29   30 1
    44   29   31 ar
    45   30   44 1
    46   30   45 1
    47   31   32 ar
    48   31   46 1
@<TRIPOS>SUBSTRUCTURE
     1 GTP         1 GROUP 0 A     ****
@<TRIPOS>MOLECULE
[[[5-(2-amino-6-oxo-1,3-dihydropurin-2-ylium-9-yl)-3,4-dihydroxy-tetrahydrofuran-2-yl]methoxy-oxido-phosphoryl]oxy-oxido-phosphoryl] hydrogen phosphate
   46    48     1     0     0
SMALL
USER_CHARGES

@<TRIPOS>ATOM
      1 PG         -7.8721    3.9662    2.4801 P.3       1 GTP         1.5400
      2 O1G        -8.2758    4.7245    1.2353 O.co2     1 GTP        -0.8909
      3 O2G        -8.6850    2.7889    2.9709 O.co2     1 GTP        -0.8909
      4 O3G        -7.7098    5.0316    3.7067 O.3       1 GTP        -0.7980
      5 O3B        -6.3112    3.5102    2.3414 O.3       1 GTP        -0.7612
      6 PB         -5.6201    2.4439    1.3161 P.3       1 GTP         1.5847
      7 O1B        -6.1460    1.0606    1.6282 O.co2     1 GTP        -0.8859
      8 O2B        -5.6626    3.0094   -0.0860 O.co2     1 GTP        -0.8859
      9 O3A        -4.0713    2.5645    1.8176 O.3       1 GTP        -0.7486
     10 PA         -3.0798    3.8627    1.8536 P.3       1 GTP         1.5001
     11 O1A        -2.8255    4.3201    0.4336 O.co2     1 GTP        -0.8487
     12 O2A        -3.5807    4.8256    2.9078 O.co2     1 GTP        -0.8487
     13 O5'        -1.7336    3.1724    2.4750 O.3       1 GTP        -0.5474
     14 C5'        -0.8811    2.4285    1.6206 C.3       1 GTP         0.2547
     15 C4'        -0.1994    1.3333    2.4288 C.3       1 GTP         0.0926
     16 O4'        -1.1285    0.2356    2.5840 O.3       1 GTP        -0.3593
     17 C3'         1.0324    0.7610    1.7344 C.3       1 GTP         0.0907
     18 O3'         1.9175    0.2377    2.7247 O.3       1 GTP        -0.5209
     19 C2'         0.4468   -0.3802    0.9263 C.3       1 GTP         0.0305
     20 O2'         1.3993   -1.3703    0.5961 O.3       1 GTP        -0.5978
     21 C1'        -0.6159   -0.9100    1.8769 C.3       1 GTP         0.2339
     22 N9         -1.7127   -1.6108    1.2130 N.pl3     1 GTP        -0.1765
     23 C8         -2.8692   -1.0463    0.7355 C.ar      1 GTP         0.4947
     24 N7         -3.6707   -1.9381    0.1856 N.2       1 GTP        -0.5802
     25 C5         -3.0027   -3.1275    0.3134 C.ar      1 GTP         0.2279
     26 C6         -3.4659   -4.4142   -0.1355 C.ar      1 GTP         0.6513
     27 O6         -4.5328   -4.6133   -0.6980 O.2       1 GTP        -0.5111
     28 N1         -2.5102   -5.4606    0.1612 N.pl3     1 GTP        -0.4713
     29 C2         -1.2711   -5.2547    0.8113 C.ar      1 GTP         0.5256
     30 N2         -0.4228   -6.3256    1.0482 N.pl3     1 GTP        -0.8665
     31 N3         -0.9033   -3.9563    1.2146 N.pl3     1 GTP        -0.5398
     32 C4         -1.7979   -2.9400    0.9438 C.ar      1 GTP        -0.0275
     33 HOG3       -7.4493    4.6915    4.5891 H         1 GTP         0.4161
     34 H5'        -1.4800    1.9927    0.8146 H         1 GTP         0.0348
     35 H5''       -0.1367    3.1040    1.1872 H         1 GTP         0.0348
     36 H4'         0.0403    1.7078    3.4343 H         1 GTP         0.1215
     37 H3'         1.5907    1.4859    1.1353 H         1 GTP         0.0576
     38 HO3'        2.6839   -0.1150    2.2479 H         1 GTP         0.3842
     39 H2'        -0.0017    0.0018    0.0005 H         1 GTP         0.0252
     40 HO2'        2.0953   -0.9375    0.0709 H         1 GTP         0.4224
     41 H1'        -0.1998   -1.6319    2.6178 H         1 GTP         0.0745
     42 H8         -3.0691    0.0134    0.8177 H         1 GTP         0.1522
     43 HN1        -2.7468   -6.4119   -0.1177 H         1 GTP         0.3518
     44 HN21        0.4233   -6.1297    1.5018 H         1 GTP         0.4761
     45 HN22       -0.7261   -7.2071    0.7466 H         1 GTP         0.4761
     46 H46        -0.0124   -3.8015    1.6821 H         1 GTP         0.5030
@<TRIPOS>BOND
     1    1    2 2
     2    1    3 1
     3    1    4 1
     4    1    5 1
     5    4   33 1
     6    5    6 1
     7    6    7 2
     8    6    8 1
     9    6    9 1
    10    9   10 1
    11   10   11 2
    12   10   12 1
    13   10   13 1
    14   13   14 1
    15   14   15 1
    16   14   34 1
    17   14   35 1
    18   15   16 1
    19   15   17 1
    20   15   36 1
    21   16   21 1
    22   17   18 1
    23   17   19 1
    24   17   37 1
    25   18   38 1
    26   19   20 1
    27   19   21 1
    28   19   39 1
    29   20   40 1
    30   21   22 1
    31   21   41 1
    32   22   23 ar
    33   22   32 ar
    34   23   24 ar
    35   23   42 1
    36   24   25 ar
    37   25   26 ar
    38   25   32 ar
    39   26   27 2
    40   26   28 ar
    41   28   29 ar
    42   28   43 1
    43   29   30 1
    44   29   31 ar
    45   30   44 1
    46   30   45 1
    47   31   32 ar
    48   31   46 1
@<TRIPOS>SUBSTRUCTURE
     1 GTP         1 GROUP 0 A     ****
@<TRIPOS>MOLECULE
[[[5-(2-amino-6-oxo-1,3-dihydropurin-2-ylium-9-yl)-3,4-dihydroxy-tetrahydrofuran-2-yl]methoxy-oxido-phosphoryl]oxy-oxido-phosphoryl] hydrogen phosphate
   46    48     1     0     0
SMALL
USER_CHARGES

@<TRIPOS>ATOM
      1 PG          0.3311    7.4237    2.6925 P.3       1 GTP         1.5400
      2 O1G        -0.3155    8.4642    3.5794 O.co2     1 GTP        -0.8909
      3 O2G         0.6092    6.0286    3.2065 O.co2     1 GTP        -0.8909
      4 O3G         1.7189    8.0420    2.0945 O.3       1 GTP        -0.7980
      5 O3B        -0.5115    7.3158    1.2989 O.3       1 GTP        -0.7612
      6 PB         -2.0305    6.7790    1.0340 P.3       1 GTP         1.5847
      7 O1B        -2.9776    7.5399    1.9348 O.co2     1 GTP        -0.8859
      8 O2B        -2.2651    6.6783   -0.4568 O.co2     1 GTP        -0.8859
      9 O3A        -1.8672    5.2499    1.5817 O.3       1 GTP        -0.7486
     10 PA         -2.9646    4.0418    1.6587 P.3       1 GTP         1.5001
     11 O1A        -4.0615    4.4416    2.6216 O.co2     1 GTP        -0.8487
     12 O2A        -3.2861    3.5890    0.2511 O.co2     1 GTP        -0.8487
     13 O5'        -2.0401    2.8620    2.3128 O.3       1 GTP        -0.5474
     14 C5'        -0.8811    2.4285    1.6206 C.3       1 GTP         0.2547
     15 C4'        -0.1994    1.3333    2.4288 C.3       1 GTP         0.0926
     16 O4'        -1.1285    0.2356    2.5840 O.3       1 GTP        -0.3593
     17 C3'         1.0324    0.7610    1.7344 C.3       1 GTP         0.0907
     18 O3'         1.9175    0.2377    2.7247 O.3       1 GTP        -0.5209
     19 C2'         0.4468   -0.3802    0.9263 C.3       1 GTP         0.0305
     20 O2'         1.3993   -1.3703    0.5961 O.3       1 GTP        -0.5978
     21 C1'        -0.6159   -0.9100    1.8769 C.3       1 GTP         0.2339
     22 N9         -1.7127   -1.6108    1.2130 N.pl3     1 GTP        -0.1765
     23 C8         -2.8692   -1.0463    0.7355 C.ar      1 GTP         0.4947
     24 N7         -3.6707   -1.9381    0.1856 N.2       1 GTP        -0.5802
     25 C5         -3.0027   -3.1275    0.3134 C.ar      1 GTP         0.2279
     26 C6         -3.4659   -4.4142   -0.1355 C.ar      1 GTP         0.6513
     27 O6         -4.5328   -4.6133   -0.6980 O.2       1 GTP        -0.5111
     28 N1         -2.5102   -5.4606    0.1612 N.pl3     1 GTP        -0.4713
     29 C2         -1.2711   -5.2547    0.8113 C.ar      1 GTP         0.5256
     30 N2         -0.4228   -6.3256    1.0482 N.pl3     1 GTP        -0.8665
     31 N3         -0.9033   -3.9563    1.2146 N.pl3     1 GTP        -0.5398
     32 C4         -1.7979   -2.9400    0.9438 C.ar      1 GTP        -0.0275
     33 HOG3        2.2591    7.4834    1.4958 H         1 GTP         0.4161
     34 H5'        -1.1767    2.0502    0.6368 H         1 GTP         0.0348
     35 H5''       -0.2080    3.2814    1.4876 H         1 GTP         0.0348
     36 H4'         0.0403    1.7078    3.4343 H         1 GTP         0.1215
     37 H3'         1.5907    1.4859    1.1353 H         1 GTP         0.0576
     38 HO3'        2.6839   -0.1150    2.2479 H         1 GTP         0.3842
     39 H2'        -0.0017    0.0018    0.0005 H         1 GTP         0.0252
     40 HO2'        2.0953   -0.9375    0.0709 H         1 GTP         0.4224
     41 H1'        -0.1998   -1.6319    2.6178 H         1 GTP         0.0745
     42 H8         -3.0691    0.0134    0.8177 H         1 GTP         0.1522
     43 HN1        -2.7468   -6.4119   -0.1177 H         1 GTP         0.3518
     44 HN21        0.4233   -6.1297    1.5018 H         1 GTP         0.4761
     45 HN22       -0.7261   -7.2071    0.7466 H         1 GTP         0.4761
     46 H46        -0.0124   -3.8015    1.6821 H         1 GTP         0.5030
@<TRIPOS>BOND
     1    1    2 2
     2    1    3 1
     3    1    4 1
     4    1    5 1
     5    4   33 1
     6    5    6 1
     7    6    7 2
     8    6    8 1
     9    6    9 1
    10    9   10 1
    11   10   11 2
    12   10   12 1
    13   10   13 1
    14   13   14 1
    15   14   15 1
    16   14   34 1
    17   14   35 1
    18   15   16 1
    19   15   17 1
    20   15   36 1
    21   16   21 1
    22   17   18 1
    23   17   19 1
    24   17   37 1
    25   18   38 1
    26   19   20 1
    27   19   21 1
    28   19   39 1
    29   20   40 1
    30   21   22 1
    31   21   41 1
    32   22   23 ar
    33   22   32 ar
    34   23   24 ar
    35   23   42 1
    36   24   25 ar
    37   25   26 ar
    38   25   32 ar
    39   26   27 2
    40   26   28 ar
    41   28   29 ar
    42   28   43 1
    43   29   30 1
    44   29   31 ar
    45   30   44 1
    46   30   45 1
    47   31   32 ar
    48   31   46 1
@<TRIPOS>SUBSTRUCTURE
     1 GTP         1 GROUP 0 A     ****
@<TRIPOS>MOLECULE
[[[5-(2-amino-6-oxo-1,3-dihydropurin-2-ylium-9-yl)-3,4-dihydroxy-tetrahydrofuran-2-yl]methoxy-oxido-phosphoryl]oxy-oxido-phosphoryl] hydrogen phosphate
   46    48     1     0     0
SMALL
USER_CHARGES

@<TRIPOS>ATOM
      1 PG         -2.0696    4.1948   -2.6670 P.3       1 GTP         1.5400
      2 O1G        -1.0936    5.2664   -3.0989 O.co2     1 GTP        -0.8909
      3 O2G        -1.6019    2.9863   -1.8868 O.co2     1 GTP        -0.8909
      4 O3G        -2.8879    3.6780   -3.9820 O.3       1 GTP        -0.7980
      5 O3B        -3.3072    4.8950   -1.8659 O.3       1 GTP        -0.7612
      6 PB         -3.3194    5.6630   -0.4251 P.3       1 GTP         1.5847
      7 O1B        -2.2797    6.7610   -0.4521 O.co2     1 GTP        -0.8859
      8 O2B        -4.7518    5.9385   -0.0252 O.co2     1 GTP        -0.8859
      9 O3A        -2.7994    4.4428    0.5264 O.3       1 GTP        -0.7486
     10 PA         -2.5400    4.4095    2.1393 P.3       1 GTP         1.5001
     11 O1A        -1.4132    5.3638    2.4707 O.co2     1 GTP        -0.8487
     12 O2A        -3.8748    4.4994    2.8464 O.co2     1 GTP        -0.8487
     13 O5'        -2.0401    2.8620    2.3128 O.3       1 GTP        -0.5474
     14 C5'        -0.8811    2.4285    1.6206 C.3       1 GTP         0.2547
     15 C4'        -0.1994    1.3333    2.4288 C.3       1 GTP         0.0926
     16 O4'        -1.1285    0.2356    2.5840 O.3       1 GTP        -0.3593
     17 C3'         1.0324    0.7610    1.7344 C.3       1 GTP         0.0907
     18 O3'         1.9175    0.2377    2.7247 O.3       1 GTP        -0.5209
     19 C2'         0.4468   -0.3802    0.9263 C.3       1 GTP         0.0305
     20 O2'         1.3993   -1.3703    0.5961 O.3       1 GTP        -0.5978
     21 C1'        -0.6159   -0.9100    1.8769 C.3       1 GTP         0.2339
     22 N9         -1.7127   -1.6108    1.2130 N.pl3     1 GTP        -0.1765
     23 C8         -1.7789   -2.9564    0.9503 C.ar      1 GTP         0.4947
     24 N7         -2.8980   -3.2916    0.3377 N.2       1 GTP        -0.5802
     25 C5         -3.5824   -2.1127    0.2000 C.ar      1 GTP         0.2279
     26 C6         -4.8740   -1.9471   -0.4133 C.ar      1 GTP         0.6513
     27 O6         -5.5366   -2.8529   -0.8978 O.2       1 GTP        -0.5111
     28 N1         -5.3036   -0.5645   -0.3916 N.pl3     1 GTP        -0.4713
     29 C2         -4.5545    0.4997    0.1619 C.ar      1 GTP         0.5256
     30 N2         -5.0561    1.7921    0.1348 N.pl3     1 GTP        -0.8665
     31 N3         -3.2977    0.2393    0.7420 N.pl3     1 GTP        -0.5398
     32 C4         -2.8643   -1.0716    0.7336 C.ar      1 GTP        -0.0275
     33 HOG3       -3.5641    2.9770   -3.8655 H         1 GTP         0.4161
     34 H5'        -1.1767    2.0502    0.6368 H         1 GTP         0.0348
     35 H5''       -0.2080    3.2814    1.4876 H         1 GTP         0.0348
     36 H4'         0.0403    1.7078    3.4343 H         1 GTP         0.1215
     37 H3'         1.5907    1.4859    1.1353 H         1 GTP         0.0576
     38 HO3'        2.1521    0.9800    3.3017 H         1 GTP         0.3842
     39 H2'        -0.0017    0.0018    0.0005 H         1 GTP         0.0252
     40 HO2'        0.9369   -2.0558    0.0825 H         1 GTP         0.4224
     41 H1'        -0.1998   -1.6319    2.6178 H         1 GTP         0.0745
     42 H8         -0.9852   -3.6367    1.2276 H         1 GTP         0.1522
     43 HN1        -6.2089   -0.3428   -0.8039 H         1 GTP         0.3518
     44 HN21       -4.4981    2.4933    0.5311 H         1 GTP         0.4761
     45 HN22       -5.9352    1.9183   -0.2793 H         1 GTP         0.4761
     46 H46        -2.7541    1.0010    1.1428 H         1 GTP         0.5030
@<TRIPOS>BOND
     1    1    2 2
     2    1    3 1
     3    1    4 1
     4    1    5 1
     5    4   33 1
     6    5    6 1
     7    6    7 2
     8    6    8 1
     9    6    9 1
    10    9   10 1
    11   10   11 2
    12   10   12 1
    13   10   13 1
    14   13   14 1
    15   14   15 1
    16   14   34 1
    17   14   35 1
    18   15   16 1
    19   15   17 1
    20   15   36 1
    21   16   21 1
    22   17   18 1
    23   17   19 1
    24   17   37 1
    25   18   38 1
    26   19   20 1
    27   19   21 1
    28   19   39 1
    29   20   40 1
    30   21   22 1
    31   21   41 1
    32   22   23 ar
    33   22   32 ar
    34   23   24 ar
    35   23   42 1
    36   24   25 ar
    37   25   26 ar
    38   25   32 ar
    39   26   27 2
    40   26   28 ar
    41   28   29 ar
    42   28   43 1
    43   29   30 1
    44   29   31 ar
    45   30   44 1
    46   30   45 1
    47   31   32 ar
    48   31   46 1
@<TRIPOS>SUBSTRUCTURE
     1 GTP         1 GROUP 0 A     ****
@<TRIPOS>MOLECULE
[[[5-(2-amino-6-oxo-1,3-dihydropurin-2-ylium-9-yl)-3,4-dihydroxy-tetrahydrofuran-2-yl]methoxy-oxido-phosphoryl]oxy-oxido-phosphoryl] hydrogen phosphate
   46    48     1     0     0
SMALL
USER_CHARGES

@<TRIPOS>ATOM
      1 PG         -5.9885   -1.3017    2.9094 P.3       1 GTP         1.5400
      2 O1G        -5.5103   -2.6089    3.5011 O.co2     1 GTP        -0.8909
      3 O2G        -7.3057   -0.6919    3.3346 O.co2     1 GTP        -0.8909
      4 O3G        -5.9804   -1.4352    1.2821 O.3       1 GTP        -0.7980
      5 O3B        -4.8110   -0.1832    3.0710 O.3       1 GTP        -0.7612
      6 PB         -4.2010    0.5060    4.4195 P.3       1 GTP         1.5847
      7 O1B        -5.2819    1.3415    5.0684 O.co2     1 GTP        -0.8859
      8 O2B        -3.4294   -0.5349    5.1996 O.co2     1 GTP        -0.8859
      9 O3A        -3.0915    1.4872    3.7332 O.3       1 GTP        -0.7486
     10 PA         -3.2890    2.7005    2.6567 P.3       1 GTP         1.5001
     11 O1A        -3.8147    2.1209    1.3614 O.co2     1 GTP        -0.8487
     12 O2A        -3.9964    3.8478    3.3444 O.co2     1 GTP        -0.8487
     13 O5'        -1.7336    3.1724    2.4750 O.3       1 GTP        -0.5474
     14 C5'        -0.8811    2.4285    1.6206 C.3       1 GTP         0.2547
     15 C4'        -0.1994    1.3333    2.4288 C.3       1 GTP         0.0926
     16 O4'        -1.1285    0.2356    2.5840 O.3       1 GTP        -0.3593
     17 C3'         1.0324    0.7610    1.7344 C.3       1 GTP         0.0907
     18 O3'         1.9175    0.2377    2.7247 O.3       1 GTP        -0.5209
     19 C2'         0.4468   -0.3802    0.9263 C.3       1 GTP         0.0305
     20 O2'         1.3993   -1.3703    0.5961 O.3       1 GTP        -0.5978
     21 C1'        -0.6159   -0.9100    1.8769 C.3       1 GTP         0.2339
     22 N9         -1.7127   -1.6108    1.2130 N.pl3     1 GTP        -0.1765
     23 C8         -2.5534   -1.0907    0.2607 C.ar      1 GTP         0.4947
     24 N7         -3.4469   -1.9695   -0.1508 N.2       1 GTP        -0.5802
     25 C5         -3.1705   -3.1041    0.5657 C.ar      1 GTP         0.2279
     26 C6         -3.8738   -4.3568    0.4777 C.ar      1 GTP         0.6513
     27 O6         -4.8240   -4.5720   -0.2607 O.2       1 GTP        -0.5111
     28 N1         -3.3198   -5.3462    1.3780 N.pl3     1 GTP        -0.4713
     29 C2         -2.2226   -5.1203    2.2413 C.ar      1 GTP         0.5256
     30 N2         -1.7649   -6.1367    3.0659 N.pl3     1 GTP        -0.8665
     31 N3         -1.5969   -3.8585    2.2574 N.pl3     1 GTP        -0.5398
     32 C4         -2.1068   -2.8965    1.4082 C.ar      1 GTP        -0.0275
     33 HOG3       -6.2672   -0.6634    0.7489 H         1 GTP         0.4161
     34 H5'        -1.4800    1.9927    0.8146 H         1 GTP         0.0348
     35 H5''       -0.1367    3.1040    1.1872 H         1 GTP         0.0348
     36 H4'         0.0403    1.7078    3.4343 H         1 GTP         0.1215
     37 H3'         1.5907    1.4859    1.1353 H         1 GTP         0.0576
     38 HO3'        2.6839   -0.1150    2.2479 H         1 GTP         0.3842
     39 H2'        -0.0017    0.0018    0.0005 H         1 GTP         0.0252
     40 HO2'        2.0953   -0.9375    0.0709 H         1 GTP         0.4224
     41 H1'        -0.1998   -1.6319    2.6178 H         1 GTP         0.0745
     42 H8         -2.4657   -0.0713   -0.0897 H         1 GTP         0.1522
     43 HN1        -3.7505   -6.2699    1.3904 H         1 GTP         0.3518
     44 HN21       -1.0023   -5.9289    3.6451 H         1 GTP         0.4761
     45 HN22       -2.2347   -6.9951    3.0150 H         1 GTP         0.4761
     46 H46        -0.8062   -3.6900    2.8760 H         1 GTP         0.5030
@<TRIPOS>BOND
     1    1    2 2
     2    1    3 1
     3    1    4 1
     4    1    5 1
     5    4   33 1
     6    5    6 1
     7    6    7 2
     8    6    8 1
     9    6    9 1
    10    9   10 1
    11   10   11 2
    12   10   12 1
    13   10   13 1
    14   13   14 1
    15   14   15 1
    16   14   34 1
    17   14   35 1
    18   15   16 1
    19   15   17 1
    20   15   36 1
    21   16   21 1
    22   17   18 1
    23   17   19 1
    24   17   37 1
    25   18   38 1
    26   19   20 1
    27   19   21 1
    28   19   39 1
    29   20   40 1
    30   21   22 1
    31   21   41 1
    32   22   23 ar
    33   22   32 ar
    34   23   24 ar
    35   23   42 1
    36   24   25 ar
    37   25   26 ar
    38   25   32 ar
    39   26   27 2
    40   26   28 ar
    41   28   29 ar
    42   28   43 1
    43   29   30 1
    44   29   31 ar
    45   30   44 1
    46   30   45 1
    47   31   32 ar
    48   31   46 1
@<TRIPOS>SUBSTRUCTURE
     1 GTP         1 GROUP 0 A     ****
@<TRIPOS>MOLECULE
[[[5-(2-amino-6-oxo-1,3-dihydropurin-2-ylium-9-yl)-3,4-dihydroxy-tetrahydrofuran-2-yl]methoxy-oxido-phosphoryl]oxy-oxido-phosphoryl] hydrogen phosphate
   46    48     1     0     0
SMALL
USER_CHARGES

@<TRIPOS>ATOM
      1 PG         -2.2376    2.1119   -2.9593 P.3       1 GTP         1.5400
      2 O1G        -1.7189    1.3748   -1.7448 O.co2     1 GTP        -0.8909
      3 O2G        -3.7102    2.4224   -3.1099 O.co2     1 GTP        -0.8909
      4 O3G        -1.7343    1.3244   -4.2981 O.3       1 GTP        -0.7980
      5 O3B        -1.3844    3.4903   -3.1485 O.3       1 GTP        -0.7612
      6 PB         -1.3288    4.8235   -2.2077 P.3       1 GTP         1.5847
      7 O1B        -0.2754    5.7602   -2.7559 O.co2     1 GTP        -0.8859
      8 O2B        -2.7401    5.2929   -1.9334 O.co2     1 GTP        -0.8859
      9 O3A        -0.7889    4.1455   -0.8244 O.3       1 GTP        -0.7486
     10 PA         -0.4665    4.8322    0.6228 P.3       1 GTP         1.5001
     11 O1A         0.6860    5.7988    0.4566 O.co2     1 GTP        -0.8487
     12 O2A        -1.7709    5.2708    1.2521 O.co2     1 GTP        -0.8487
     13 O5'         0.0178    3.5131    1.4595 O.3       1 GTP        -0.5474
     14 C5'        -0.8811    2.4285    1.6206 C.3       1 GTP         0.2547
     15 C4'        -0.1994    1.3333    2.4288 C.3       1 GTP         0.0926
     16 O4'        -1.1285    0.2356    2.5840 O.3       1 GTP        -0.3593
     17 C3'         1.0324    0.7610    1.7344 C.3       1 GTP         0.0907
     18 O3'         1.9175    0.2377    2.7247 O.3       1 GTP        -0.5209
     19 C2'         0.4468   -0.3802    0.9263 C.3       1 GTP         0.0305
     20 O2'         1.3993   -1.3703    0.5961 O.3       1 GTP        -0.5978
     21 C1'        -0.6159   -0.9100    1.8769 C.3       1 GTP         0.2339
     22 N9         -1.7127   -1.6108    1.2130 N.pl3     1 GTP        -0.1765
     23 C8         -2.8692   -1.0463    0.7355 C.ar      1 GTP         0.4947
     24 N7         -3.6707   -1.9381    0.1856 N.2       1 GTP        -0.5802
     25 C5         -3.0027   -3.1275    0.3134 C.ar      1 GTP         0.2279
     26 C6         -3.4659   -4.4142   -0.1355 C.ar      1 GTP         0.6513
     27 O6         -4.5328   -4.6133   -0.6980 O.2       1 GTP        -0.5111
     28 N1         -2.5102   -5.4606    0.1612 N.pl3     1 GTP        -0.4713
     29 C2         -1.2711   -5.2547    0.8113 C.ar      1 GTP         0.5256
     30 N2         -0.4228   -6.3256    1.0482 N.pl3     1 GTP        -0.8665
     31 N3         -0.9033   -3.9563    1.2146 N.pl3     1 GTP        -0.5398
     32 C4         -1.7979   -2.9400    0.9438 C.ar      1 GTP        -0.0275
     33 HOG3       -1.9915    1.6821   -5.1746 H         1 GTP         0.4161
     34 H5'        -1.7771    2.7849    2.1387 H         1 GTP         0.0348
     35 H5''       -1.1654    2.0541    0.6320 H         1 GTP         0.0348
     36 H4'         0.0403    1.7078    3.4343 H         1 GTP         0.1215
     37 H3'         1.5907    1.4859    1.1353 H         1 GTP         0.0576
     38 HO3'        2.6839   -0.1150    2.2479 H         1 GTP         0.3842
     39 H2'        -0.0017    0.0018    0.0005 H         1 GTP         0.0252
     40 HO2'        2.0953   -0.9375    0.0709 H         1 GTP         0.4224
     41 H1'        -0.1998   -1.6319    2.6178 H         1 GTP         0.0745
     42 H8         -3.0691    0.0134    0.8177 H         1 GTP         0.1522
     43 HN1        -2.7468   -6.4119   -0.1177 H         1 GTP         0.3518
     44 HN21        0.4233   -6.1297    1.5018 H         1 GTP         0.4761
     45 HN22       -0.7261   -7.2071    0.7466 H         1 GTP         0.4761
     46 H46        -0.0124   -3.8015    1.6821 H         1 GTP         0.5030
@<TRIPOS>BOND
     1    1    2 2
     2    1    3 1
     3    1    4 1
     4    1    5 1
     5    4   33 1
     6    5    6 1
     7    6    7 2
     8    6    8 1
     9    6    9 1
    10    9   10 1
    11   10   11 2
    12   10   12 1
    13   10   13 1
    14   13   14 1
    15   14   15 1
    16   14   34 1
    17   14   35 1
    18   15   16 1
    19   15   17 1
    20   15   36 1
    21   16   21 1
    22   17   18 1
    23   17   19 1
    24   17   37 1
    25   18   38 1
    26   19   20 1
    27   19   21 1
    28   19   39 1
    29   20   40 1
    30   21   22 1
    31   21   41 1
    32   22   23 ar
    33   22   32 ar
    34   23   24 ar
    35   23   42 1
    36   24   25 ar
    37   25   26 ar
    38   25   32 ar
    39   26   27 2
    40   26   28 ar
    41   28   29 ar
    42   28   43 1
    43   29   30 1
    44   29   31 ar
    45   30   44 1
    46   30   45 1
    47   31   32 ar
    48   31   46 1
@<TRIPOS>SUBSTRUCTURE
     1 GTP         1 GROUP 0 A     ****
@<TRIPOS>MOLECULE
[[[5-(2-amino-6-oxo-1,3-dihydropurin-2-ylium-9-yl)-3,4-dihydroxy-tetrahydrofuran-2-yl]methoxy-oxido-phosphoryl]oxy-oxido-phosphoryl] hydrogen phosphate
   46    48     1     0     0
SMALL
USER_CHARGES

@<TRIPOS>ATOM
      1 PG         -3.3608    6.2556    4.2235 P.3       1 GTP         1.5400
      2 O1G        -2.4900    5.0489    4.4940 O.co2     1 GTP        -0.8909
      3 O2G        -2.9313    7.6380    4.6618 O.co2     1 GTP        -0.8909
      4 O3G        -4.8524    5.9628    4.8194 O.3       1 GTP        -0.7980
      5 O3B        -3.7335    6.2963    2.6350 O.3       1 GTP        -0.7612
      6 PB         -2.7700    6.5451    1.3406 P.3       1 GTP         1.5847
      7 O1B        -3.5862    6.3453    0.0831 O.co2     1 GTP        -0.8859
      8 O2B        -1.9562    7.8000    1.5654 O.co2     1 GTP        -0.8859
      9 O3A        -1.7457    5.2883    1.5313 O.3       1 GTP        -0.7486
     10 PA         -0.4665    4.8322    0.6228 P.3       1 GTP         1.5001
     11 O1A        -0.9631    4.4288   -0.7487 O.co2     1 GTP        -0.8487
     12 O2A         0.6338    5.8580    0.7859 O.co2     1 GTP        -0.8487
     13 O5'         0.0178    3.5131    1.4595 O.3       1 GTP        -0.5474
     14 C5'        -0.8811    2.4285    1.6206 C.3       1 GTP         0.2547
     15 C4'        -0.1994    1.3333    2.4288 C.3       1 GTP         0.0926
     16 O4'        -1.1285    0.2356    2.5840 O.3       1 GTP        -0.3593
     17 C3'         1.0324    0.7610    1.7344 C.3       1 GTP         0.0907
     18 O3'         1.9175    0.2377    2.7247 O.3       1 GTP        -0.5209
     19 C2'         0.4468   -0.3802    0.9263 C.3       1 GTP         0.0305
     20 O2'         1.3993   -1.3703    0.5961 O.3       1 GTP        -0.5978
     21 C1'        -0.6159   -0.9100    1.8769 C.3       1 GTP         0.2339
     22 N9         -1.7127   -1.6108    1.2130 N.pl3     1 GTP        -0.1765
     23 C8         -2.8692   -1.0463    0.7355 C.ar      1 GTP         0.4947
     24 N7         -3.6707   -1.9381    0.1856 N.2       1 GTP        -0.5802
     25 C5         -3.0027   -3.1275    0.3134 C.ar      1 GTP         0.2279
     26 C6         -3.4659   -4.4142   -0.1355 C.ar      1 GTP         0.6513
     27 O6         -4.5328   -4.6133   -0.6980 O.2       1 GTP        -0.5111
     28 N1         -2.5102   -5.4606    0.1612 N.pl3     1 GTP        -0.4713
     29 C2         -1.2711   -5.2547    0.8113 C.ar      1 GTP         0.5256
     30 N2         -0.4228   -6.3256    1.0482 N.pl3     1 GTP        -0.8665
     31 N3         -0.9033   -3.9563    1.2146 N.pl3     1 GTP        -0.5398
     32 C4         -1.7979   -2.9400    0.9438 C.ar      1 GTP        -0.0275
     33 HOG3       -5.5388    6.6568    4.7217 H         1 GTP         0.4161
     34 H5'        -1.7771    2.7849    2.1387 H         1 GTP         0.0348
     35 H5''       -1.1654    2.0541    0.6320 H         1 GTP         0.0348
     36 H4'         0.0403    1.7078    3.4343 H         1 GTP         0.1215
     37 H3'         1.5907    1.4859    1.1353 H         1 GTP         0.0576
     38 HO3'        2.6839   -0.1150    2.2479 H         1 GTP         0.3842
     39 H2'        -0.0017    0.0018    0.0005 H         1 GTP         0.0252
     40 HO2'        2.0953   -0.9375    0.0709 H         1 GTP         0.4224
     41 H1'        -0.1998   -1.6319    2.6178 H         1 GTP         0.0745
     42 H8         -3.0691    0.0134    0.8177 H         1 GTP         0.1522
     43 HN1        -2.7468   -6.4119   -0.1177 H         1 GTP         0.3518
     44 HN21        0.4233   -6.1297    1.5018 H         1 GTP         0.4761
     45 HN22       -0.7261   -7.2071    0.7466 H         1 GTP         0.4761
     46 H46        -0.0124   -3.8015    1.6821 H         1 GTP         0.5030
@<TRIPOS>BOND
     1    1    2 2
     2    1    3 1
     3    1    4 1
     4    1    5 1
     5    4   33 1
     6    5    6 1
     7    6    7 2
     8    6    8 1
     9    6    9 1
    10    9   10 1
    11   10   11 2
    12   10   12 1
    13   10   13 1
    14   13   14 1
    15   14   15 1
    16   14   34 1
    17   14   35 1
    18   15   16 1
    19   15   17 1
    20   15   36 1
    21   16   21 1
    22   17   18 1
    23   17   19 1
    24   17   37 1
    25   18   38 1
    26   19   20 1
    27   19   21 1
    28   19   39 1
    29   20   40 1
    30   21   22 1
    31   21   41 1
    32   22   23 ar
    33   22   32 ar
    34   23   24 ar
    35   23   42 1
    36   24   25 ar
    37   25   26 ar
    38   25   32 ar
    39   26   27 2
    40   26   28 ar
    41   28   29 ar
    42   28   43 1
    43   29   30 1
    44   29   31 ar
    45   30   44 1
    46   30   45 1
    47   31   32 ar
    48   31   46 1
@<TRIPOS>SUBSTRUCTURE
     1 GTP         1 GROUP 0 A     ****
@<TRIPOS>MOLECULE
[[[5-(2-amino-6-oxo-1,3-dihydropurin-2-ylium-9-yl)-3,4-dihydroxy-tetrahydrofuran-2-yl]methoxy-oxido-phosphoryl]oxy-oxido-phosphoryl] hydrogen phosphate
   46    48     1     0     0
SMALL
USER_CHARGES

@<TRIPOS>ATOM
      1 PG          0.7329    1.2313   -4.5237 P.3       1 GTP         1.5400
      2 O1G        -0.5797    1.2860   -5.2730 O.co2     1 GTP        -0.8909
      3 O2G         2.0050    1.7646   -5.1444 O.co2     1 GTP        -0.8909
      4 O3G         0.9945   -0.3083   -4.0473 O.3       1 GTP        -0.7980
      5 O3B         0.5347    1.9138   -3.0545 O.3       1 GTP        -0.7612
      6 PB          0.2279    3.4669   -2.6554 P.3       1 GTP         1.5847
      7 O1B         1.4194    4.3124   -3.0462 O.co2     1 GTP        -0.8859
      8 O2B        -1.1742    3.8221   -3.0978 O.co2     1 GTP        -0.8859
      9 O3A         0.1765    3.3147   -1.0309 O.3       1 GTP        -0.7486
     10 PA         -0.0889    4.4444    0.1193 P.3       1 GTP         1.5001
     11 O1A         1.0444    5.4470    0.0872 O.co2     1 GTP        -0.8487
     12 O2A        -1.5319    4.8920    0.0350 O.co2     1 GTP        -0.8487
     13 O5'         0.0178    3.5131    1.4595 O.3       1 GTP        -0.5474
     14 C5'        -0.8811    2.4285    1.6206 C.3       1 GTP         0.2547
     15 C4'        -0.1994    1.3333    2.4288 C.3       1 GTP         0.0926
     16 O4'        -1.1285    0.2356    2.5840 O.3       1 GTP        -0.3593
     17 C3'         1.0324    0.7610    1.7344 C.3       1 GTP         0.0907
     18 O3'         1.9175    0.2377    2.7247 O.3       1 GTP        -0.5209
     19 C2'         0.4468   -0.3802    0.9263 C.3       1 GTP         0.0305
     20 O2'         1.3993   -1.3703    0.5961 O.3       1 GTP        -0.5978
     21 C1'        -0.6159   -0.9100    1.8769 C.3       1 GTP         0.2339
     22 N9         -1.7127   -1.6108    1.2130 N.pl3     1 GTP        -0.1765
     23 C8         -2.8692   -1.0463    0.7355 C.ar      1 GTP         0.4947
     24 N7         -3.6707   -1.9381    0.1856 N.2       1 GTP        -0.5802
     25 C5         -3.0027   -3.1275    0.3134 C.ar      1 GTP         0.2279
     26 C6         -3.4659   -4.4142   -0.1355 C.ar      1 GTP         0.6513
     27 O6         -4.5328   -4.6133   -0.6980 O.2       1 GTP        -0.5111
     28 N1         -2.5102   -5.4606    0.1612 N.pl3     1 GTP        -0.4713
     29 C2         -1.2711   -5.2547    0.8113 C.ar      1 GTP         0.5256
     30 N2         -0.4228   -6.3256    1.0482 N.pl3     1 GTP        -0.8665
     31 N3         -0.9033   -3.9563    1.2146 N.pl3     1 GTP        -0.5398
     32 C4         -1.7979   -2.9400    0.9438 C.ar      1 GTP        -0.0275
     33 HOG3        1.8126   -0.5090   -3.5447 H         1 GTP         0.4161
     34 H5'        -1.7771    2.7849    2.1387 H         1 GTP         0.0348
     35 H5''       -1.1654    2.0541    0.6320 H         1 GTP         0.0348
     36 H4'         0.0403    1.7078    3.4343 H         1 GTP         0.1215
     37 H3'         1.5907    1.4859    1.1353 H         1 GTP         0.0576
     38 HO3'        2.6839   -0.1150    2.2479 H         1 GTP         0.3842
     39 H2'        -0.0017    0.0018    0.0005 H         1 GTP         0.0252
     40 HO2'        2.0953   -0.9375    0.0709 H         1 GTP         0.4224
     41 H1'        -0.1998   -1.6319    2.6178 H         1 GTP         0.0745
     42 H8         -3.0691    0.0134    0.8177 H         1 GTP         0.1522
     43 HN1        -2.7468   -6.4119   -0.1177 H         1 GTP         0.3518
     44 HN21        0.4233   -6.1297    1.5018 H         1 GTP         0.4761
     45 HN22       -0.7261   -7.2071    0.7466 H         1 GTP         0.4761
     46 H46        -0.0124   -3.8015    1.6821 H         1 GTP         0.5030
@<TRIPOS>BOND
     1    1    2 2
     2    1    3 1
     3    1    4 1
     4    1    5 1
     5    4   33 1
     6    5    6 1
     7    6    7 2
     8    6    8 1
     9    6    9 1
    10    9   10 1
    11   10   11 2
    12   10   12 1
    13   10   13 1
    14   13   14 1
    15   14   15 1
    16   14   34 1
    17   14   35 1
    18   15   16 1
    19   15   17 1
    20   15   36 1
    21   16   21 1
    22   17   18 1
    23   17   19 1
    24   17   37 1
    25   18   38 1
    26   19   20 1
    27   19   21 1
    28   19   39 1
    29   20   40 1
    30   21   22 1
    31   21   41 1
    32   22   23 ar
    33   22   32 ar
    34   23   24 ar
    35   23   42 1
    36   24   25 ar
    37   25   26 ar
    38   25   32 ar
    39   26   27 2
    40   26   28 ar
    41   28   29 ar
    42   28   43 1
    43   29   30 1
    44   29   31 ar
    45   30   44 1
    46   30   45 1
    47   31   32 ar
    48   31   46 1
@<TRIPOS>SUBSTRUCTURE
     1 GTP         1 GROUP 0 A     ****
@<TRIPOS>MOLECULE
[[[5-(2-amino-6-oxo-1,3-dihydropurin-2-ylium-9-yl)-3,4-dihydroxy-tetrahydrofuran-2-yl]methoxy-oxido-phosphoryl]oxy-oxido-phosphoryl] hydrogen phosphate
   46    48     1     0     0
SMALL
USER_CHARGES

@<TRIPOS>ATOM
      1 PG         -4.8861    4.8314    0.5712 P.3       1 GTP         1.5400
      2 O1G        -5.5288    4.2872   -0.6851 O.co2     1 GTP        -0.8909
      3 O2G        -4.1867    3.9119    1.5474 O.co2     1 GTP        -0.8909
      4 O3G        -5.9993    5.7037    1.3871 O.3       1 GTP        -0.7980
      5 O3B        -3.8712    6.0437    0.1663 O.3       1 GTP        -0.7612
      6 PB         -2.4753    6.0007   -0.6794 P.3       1 GTP         1.5847
      7 O1B        -2.7346    5.3287   -2.0093 O.co2     1 GTP        -0.8859
      8 O2B        -1.8046    7.3536   -0.5934 O.co2     1 GTP        -0.8859
      9 O3A        -1.6181    4.9968    0.2809 O.3       1 GTP        -0.7486
     10 PA         -0.0889    4.4444    0.1193 P.3       1 GTP         1.5001
     11 O1A        -0.0111    3.5842   -1.1233 O.co2     1 GTP        -0.8487
     12 O2A         0.8677    5.5971    0.3340 O.co2     1 GTP        -0.8487
     13 O5'         0.0178    3.5131    1.4595 O.3       1 GTP        -0.5474
     14 C5'        -0.8811    2.4285    1.6206 C.3       1 GTP         0.2547
     15 C4'        -0.1994    1.3333    2.4288 C.3       1 GTP         0.0926
     16 O4'        -1.1285    0.2356    2.5840 O.3       1 GTP        -0.3593
     17 C3'         1.0324    0.7610    1.7344 C.3       1 GTP         0.0907
     18 O3'         1.9175    0.2377    2.7247 O.3       1 GTP        -0.5209
     19 C2'         0.4468   -0.3802    0.9263 C.3       1 GTP         0.0305
     20 O2'         1.3993   -1.3703    0.5961 O.3       1 GTP        -0.5978
     21 C1'        -0.6159   -0.9100    1.8769 C.3       1 GTP         0.2339
     22 N9         -1.7127   -1.6108    1.2130 N.pl3     1 GTP        -0.1765
     23 C8         -2.8692   -1.0463    0.7355 C.ar      1 GTP         0.4947
     24 N7         -3.6707   -1.9381    0.1856 N.2       1 GTP        -0.5802
     25 C5         -3.0027   -3.1275    0.3134 C.ar      1 GTP         0.2279
     26 C6         -3.4659   -4.4142   -0.1355 C.ar      1 GTP         0.6513
     27 O6         -4.5328   -4.6133   -0.6980 O.2       1 GTP        -0.5111
     28 N1         -2.5102   -5.4606    0.1612 N.pl3     1 GTP        -0.4713
     29 C2         -1.2711   -5.2547    0.8113 C.ar      1 GTP         0.5256
     30 N2         -0.4228   -6.3256    1.0482 N.pl3     1 GTP        -0.8665
     31 N3         -0.9033   -3.9563    1.2146 N.pl3     1 GTP        -0.5398
     32 C4         -1.7979   -2.9400    0.9438 C.ar      1 GTP        -0.0275
     33 HOG3       -5.7340    6.1261    2.2318 H         1 GTP         0.4161
     34 H5'        -1.7771    2.7849    2.1387 H         1 GTP         0.0348
     35 H5''       -1.1654    2.0541    0.6320 H         1 GTP         0.0348
     36 H4'         0.0403    1.7078    3.4343 H         1 GTP         0.1215
     37 H3'         1.5907    1.4859    1.1353 H         1 GTP         0.0576
     38 HO3'        2.6839   -0.1150    2.2479 H         1 GTP         0.3842
     39 H2'        -0.0017    0.0018    0.0005 H         1 GTP         0.0252
     40 HO2'        2.0953   -0.9375    0.0709 H         1 GTP         0.4224
     41 H1'        -0.1998   -1.6319    2.6178 H         1 GTP         0.0745
     42 H8         -3.0691    0.0134    0.8177 H         1 GTP         0.1522
     43 HN1        -2.7468   -6.4119   -0.1177 H         1 GTP         0.3518
     44 HN21        0.4233   -6.1297    1.5018 H         1 GTP         0.4761
     45 HN22       -0.7261   -7.2071    0.7466 H         1 GTP         0.4761
     46 H46        -0.0124   -3.8015    1.6821 H         1 GTP         0.5030
@<TRIPOS>BOND
     1    1    2 2
     2    1    3 1
     3    1    4 1
     4    1    5 1
     5    4   33 1
     6    5    6 1
     7    6    7 2
     8    6    8 1
     9    6    9 1
    10    9   10 1
    11   10   11 2
    12   10   12 1
    13   10   13 1
    14   13   14 1
    15   14   15 1
    16   14   34 1
    17   14   35 1
    18   15   16 1
    19   15   17 1
    20   15   36 1
    21   16   21 1
    22   17   18 1
    23   17   19 1
    24   17   37 1
    25   18   38 1
    26   19   20 1
    27   19   21 1
    28   19   39 1
    29   20   40 1
    30   21   22 1
    31   21   41 1
    32   22   23 ar
    33   22   32 ar
    34   23   24 ar
    35   23   42 1
    36   24   25 ar
    37   25   26 ar
    38   25   32 ar
    39   26   27 2
    40   26   28 ar
    41   28   29 ar
    42   28   43 1
    43   29   30 1
    44   29   31 ar
    45   30   44 1
    46   30   45 1
    47   31   32 ar
    48   31   46 1
@<TRIPOS>SUBSTRUCTURE
     1 GTP         1 GROUP 0 A     ****
@<TRIPOS>MOLECULE
[[[5-(2-amino-6-oxo-1,3-dihydropurin-2-ylium-9-yl)-3,4-dihydroxy-tetrahydrofuran-2-yl]methoxy-oxido-phosphoryl]oxy-oxido-phosphoryl] hydrogen phosphate
   46    48     1     0     0
SMALL
USER_CHARGES

@<TRIPOS>ATOM
      1 PG         -5.9343    3.6728   -2.0432 P.3       1 GTP         1.5400
      2 O1G        -6.1990    2.4133   -2.8376 O.co2     1 GTP        -0.8909
      3 O2G        -7.0745    4.5435   -1.5641 O.co2     1 GTP        -0.8909
      4 O3G        -4.8875    4.6043   -2.8814 O.3       1 GTP        -0.7980
      5 O3B        -4.9771    3.3082   -0.7726 O.3       1 GTP        -0.7612
      6 PB         -5.2892    2.3938    0.5436 P.3       1 GTP         1.5847
      7 O1B        -6.3622    3.0747    1.3637 O.co2     1 GTP        -0.8859
      8 O2B        -5.4144    0.9471    0.1207 O.co2     1 GTP        -0.8859
      9 O3A        -3.8516    2.5312    1.3047 O.3       1 GTP        -0.7486
     10 PA         -3.0798    3.8627    1.8536 P.3       1 GTP         1.5001
     11 O1A        -2.7213    4.7387    0.6727 O.co2     1 GTP        -0.8487
     12 O2A        -3.8485    4.4163    3.0335 O.co2     1 GTP        -0.8487
     13 O5'        -1.7336    3.1724    2.4750 O.3       1 GTP        -0.5474
     14 C5'        -0.8811    2.4285    1.6206 C.3       1 GTP         0.2547
     15 C4'        -0.1994    1.3333    2.4288 C.3       1 GTP         0.0926
     16 O4'        -1.1285    0.2356    2.5840 O.3       1 GTP        -0.3593
     17 C3'         1.0324    0.7610    1.7344 C.3       1 GTP         0.0907
     18 O3'         1.9175    0.2377    2.7247 O.3       1 GTP        -0.5209
     19 C2'         0.4468   -0.3802    0.9263 C.3       1 GTP         0.0305
     20 O2'         1.3993   -1.3703    0.5961 O.3       1 GTP        -0.5978
     21 C1'        -0.6159   -0.9100    1.8769 C.3       1 GTP         0.2339
     22 N9         -1.7127   -1.6108    1.2130 N.pl3     1 GTP        -0.1765
     23 C8         -2.5534   -1.0907    0.2607 C.ar      1 GTP         0.4947
     24 N7         -3.4469   -1.9695   -0.1508 N.2       1 GTP        -0.5802
     25 C5         -3.1705   -3.1041    0.5657 C.ar      1 GTP         0.2279
     26 C6         -3.8738   -4.3568    0.4777 C.ar      1 GTP         0.6513
     27 O6         -4.8240   -4.5720   -0.2607 O.2       1 GTP        -0.5111
     28 N1         -3.3198   -5.3462    1.3780 N.pl3     1 GTP        -0.4713
     29 C2         -2.2226   -5.1203    2.2413 C.ar      1 GTP         0.5256
     30 N2         -1.7649   -6.1367    3.0659 N.pl3     1 GTP        -0.8665
     31 N3         -1.5969   -3.8585    2.2574 N.pl3     1 GTP        -0.5398
     32 C4         -2.1068   -2.8965    1.4082 C.ar      1 GTP        -0.0275
     33 HOG3       -4.6143    5.4635   -2.4948 H         1 GTP         0.4161
     34 H5'        -1.4800    1.9927    0.8146 H         1 GTP         0.0348
     35 H5''       -0.1367    3.1040    1.1872 H         1 GTP         0.0348
     36 H4'         0.0403    1.7078    3.4343 H         1 GTP         0.1215
     37 H3'         1.5907    1.4859    1.1353 H         1 GTP         0.0576
     38 HO3'        2.6839   -0.1150    2.2479 H         1 GTP         0.3842
     39 H2'        -0.0017    0.0018    0.0005 H         1 GTP         0.0252
     40 HO2'        2.0953   -0.9375    0.0709 H         1 GTP         0.4224
     41 H1'        -0.1998   -1.6319    2.6178 H         1 GTP         0.0745
     42 H8         -2.4657   -0.0713   -0.0897 H         1 GTP         0.1522
     43 HN1        -3.7505   -6.2699    1.3904 H         1 GTP         0.3518
     44 HN21       -1.0023   -5.9289    3.6451 H         1 GTP         0.4761
     45 HN22       -2.2347   -6.9951    3.0150 H         1 GTP         0.4761
     46 H46        -0.8062   -3.6900    2.8760 H         1 GTP         0.5030
@<TRIPOS>BOND
     1    1    2 2
     2    1    3 1
     3    1    4 1
     4    1    5 1
     5    4   33 1
     6    5    6 1
     7    6    7 2
     8    6    8 1
     9    6    9 1
    10    9   10 1
    11   10   11 2
    12   10   12 1
    13   10   13 1
    14   13   14 1
    15   14   15 1
    16   14   34 1
    17   14   35 1
    18   15   16 1
    19   15   17 1
    20   15   36 1
    21   16   21 1
    22   17   18 1
    23   17   19 1
    24   17   37 1
    25   18   38 1
    26   19   20 1
    27   19   21 1
    28   19   39 1
    29   20   40 1
    30   21   22 1
    31   21   41 1
    32   22   23 ar
    33   22   32 ar
    34   23   24 ar
    35   23   42 1
    36   24   25 ar
    37   25   26 ar
    38   25   32 ar
    39   26   27 2
    40   26   28 ar
    41   28   29 ar
    42   28   43 1
    43   29   30 1
    44   29   31 ar
    45   30   44 1
    46   30   45 1
    47   31   32 ar
    48   31   46 1
@<TRIPOS>SUBSTRUCTURE
     1 GTP         1 GROUP 0 A     ****
@<TRIPOS>MOLECULE
[[[5-(2-amino-6-oxo-1,3-dihydropurin-2-ylium-9-yl)-3,4-dihydroxy-tetrahydrofuran-2-yl]methoxy-oxido-phosphoryl]oxy-oxido-phosphoryl] hydrogen phosphate
   46    48     1     0     0
SMALL
USER_CHARGES

@<TRIPOS>ATOM
      1 PG         -3.9303    8.7535    2.1456 P.3       1 GTP         1.5400
      2 O1G        -2.9189    9.7818    2.6006 O.co2     1 GTP        -0.8909
      3 O2G        -4.7540    8.9732    0.8962 O.co2     1 GTP        -0.8909
      4 O3G        -4.9442    8.4390    3.3862 O.3       1 GTP        -0.7980
      5 O3B        -3.2002    7.2971    2.0484 O.3       1 GTP        -0.7612
      6 PB         -2.0305    6.7790    1.0340 P.3       1 GTP         1.5847
      7 O1B        -2.5846    6.7553   -0.3731 O.co2     1 GTP        -0.8859
      8 O2B        -0.7390    7.4935    1.3644 O.co2     1 GTP        -0.8859
      9 O3A        -1.8672    5.2499    1.5817 O.3       1 GTP        -0.7486
     10 PA         -2.9646    4.0418    1.6587 P.3       1 GTP         1.5001
     11 O1A        -4.0615    4.4416    2.6216 O.co2     1 GTP        -0.8487
     12 O2A        -3.2861    3.5890    0.2511 O.co2     1 GTP        -0.8487
     13 O5'        -2.0401    2.8620    2.3128 O.3       1 GTP        -0.5474
     14 C5'        -0.8811    2.4285    1.6206 C.3       1 GTP         0.2547
     15 C4'        -0.1994    1.3333    2.4288 C.3       1 GTP         0.0926
     16 O4'        -1.1285    0.2356    2.5840 O.3       1 GTP        -0.3593
     17 C3'         1.0324    0.7610    1.7344 C.3       1 GTP         0.0907
     18 O3'         1.9175    0.2377    2.7247 O.3       1 GTP        -0.5209
     19 C2'         0.4468   -0.3802    0.9263 C.3       1 GTP         0.0305
     20 O2'         1.3993   -1.3703    0.5961 O.3       1 GTP        -0.5978
     21 C1'        -0.6159   -0.9100    1.8769 C.3       1 GTP         0.2339
     22 N9         -1.7127   -1.6108    1.2130 N.pl3     1 GTP        -0.1765
     23 C8         -2.8692   -1.0463    0.7355 C.ar      1 GTP         0.4947
     24 N7         -3.6707   -1.9381    0.1856 N.2       1 GTP        -0.5802
     25 C5         -3.0027   -3.1275    0.3134 C.ar      1 GTP         0.2279
     26 C6         -3.4659   -4.4142   -0.1355 C.ar      1 GTP         0.6513
     27 O6         -4.5328   -4.6133   -0.6980 O.2       1 GTP        -0.5111
     28 N1         -2.5102   -5.4606    0.1612 N.pl3     1 GTP        -0.4713
     29 C2         -1.2711   -5.2547    0.8113 C.ar      1 GTP         0.5256
     30 N2         -0.4228   -6.3256    1.0482 N.pl3     1 GTP        -0.8665
     31 N3         -0.9033   -3.9563    1.2146 N.pl3     1 GTP        -0.5398
     32 C4         -1.7979   -2.9400    0.9438 C.ar      1 GTP        -0.0275
     33 HOG3       -5.6631    7.7861    3.2476 H         1 GTP         0.4161
     34 H5'        -1.1767    2.0502    0.6368 H         1 GTP         0.0348
     35 H5''       -0.2080    3.2814    1.4876 H         1 GTP         0.0348
     36 H4'         0.0403    1.7078    3.4343 H         1 GTP         0.1215
     37 H3'         1.5907    1.4859    1.1353 H         1 GTP         0.0576
     38 HO3'        2.6839   -0.1150    2.2479 H         1 GTP         0.3842
     39 H2'        -0.0017    0.0018    0.0005 H         1 GTP         0.0252
     40 HO2'        2.0953   -0.9375    0.0709 H         1 GTP         0.4224
     41 H1'        -0.1998   -1.6319    2.6178 H         1 GTP         0.0745
     42 H8         -3.0691    0.0134    0.8177 H         1 GTP         0.1522
     43 HN1        -2.7468   -6.4119   -0.1177 H         1 GTP         0.3518
     44 HN21        0.4233   -6.1297    1.5018 H         1 GTP         0.4761
     45 HN22       -0.7261   -7.2071    0.7466 H         1 GTP         0.4761
     46 H46        -0.0124   -3.8015    1.6821 H         1 GTP         0.5030
@<TRIPOS>BOND
     1    1    2 2
     2    1    3 1
     3    1    4 1
     4    1    5 1
     5    4   33 1
     6    5    6 1
     7    6    7 2
     8    6    8 1
     9    6    9 1
    10    9   10 1
    11   10   11 2
    12   10   12 1
    13   10   13 1
    14   13   14 1
    15   14   15 1
    16   14   34 1
    17   14   35 1
    18   15   16 1
    19   15   17 1
    20   15   36 1
    21   16   21 1
    22   17   18 1
    23   17   19 1
    24   17   37 1
    25   18   38 1
    26   19   20 1
    27   19   21 1
    28   19   39 1
    29   20   40 1
    30   21   22 1
    31   21   41 1
    32   22   23 ar
    33   22   32 ar
    34   23   24 ar
    35   23   42 1
    36   24   25 ar
    37   25   26 ar
    38   25   32 ar
    39   26   27 2
    40   26   28 ar
    41   28   29 ar
    42   28   43 1
    43   29   30 1
    44   29   31 ar
    45   30   44 1
    46   30   45 1
    47   31   32 ar
    48   31   46 1
@<TRIPOS>SUBSTRUCTURE
     1 GTP         1 GROUP 0 A     ****
@<TRIPOS>MOLECULE
[[[5-(2-amino-6-oxo-1,3-dihydropurin-2-ylium-9-yl)-3,4-dihydroxy-tetrahydrofuran-2-yl]methoxy-oxido-phosphoryl]oxy-oxido-phosphoryl] hydrogen phosphate
   46    48     1     0     0
SMALL
USER_CHARGES

@<TRIPOS>ATOM
      1 PG         -3.7054    5.4481   -3.3489 P.3       1 GTP         1.5400
      2 O1G        -5.1896    5.7369   -3.3844 O.co2     1 GTP        -0.8909
      3 O2G        -2.6992    6.4970   -3.7674 O.co2     1 GTP        -0.8909
      4 O3G        -3.4213    4.0867   -4.2044 O.3       1 GTP        -0.7980
      5 O3B        -3.3072    4.8950   -1.8659 O.3       1 GTP        -0.7612
      6 PB         -3.3194    5.6630   -0.4251 P.3       1 GTP         1.5847
      7 O1B        -2.2797    6.7610   -0.4521 O.co2     1 GTP        -0.8859
      8 O2B        -4.7518    5.9385   -0.0252 O.co2     1 GTP        -0.8859
      9 O3A        -2.7994    4.4428    0.5264 O.3       1 GTP        -0.7486
     10 PA         -2.5400    4.4095    2.1393 P.3       1 GTP         1.5001
     11 O1A        -1.4132    5.3638    2.4707 O.co2     1 GTP        -0.8487
     12 O2A        -3.8748    4.4994    2.8464 O.co2     1 GTP        -0.8487
     13 O5'        -2.0401    2.8620    2.3128 O.3       1 GTP        -0.5474
     14 C5'        -0.8811    2.4285    1.6206 C.3       1 GTP         0.2547
     15 C4'        -0.1994    1.3333    2.4288 C.3       1 GTP         0.0926
     16 O4'        -1.1285    0.2356    2.5840 O.3       1 GTP        -0.3593
     17 C3'         1.0324    0.7610    1.7344 C.3       1 GTP         0.0907
     18 O3'         1.9175    0.2377    2.7247 O.3       1 GTP        -0.5209
     19 C2'         0.4468   -0.3802    0.9263 C.3       1 GTP         0.0305
     20 O2'         1.3993   -1.3703    0.5961 O.3       1 GTP        -0.5978
     21 C1'        -0.6159   -0.9100    1.8769 C.3       1 GTP         0.2339
     22 N9         -1.7127   -1.6108    1.2130 N.pl3     1 GTP        -0.1765
     23 C8         -2.8692   -1.0463    0.7355 C.ar      1 GTP         0.4947
     24 N7         -3.6707   -1.9381    0.1856 N.2       1 GTP        -0.5802
     25 C5         -3.0027   -3.1275    0.3134 C.ar      1 GTP         0.2279
     26 C6         -3.4659   -4.4142   -0.1355 C.ar      1 GTP         0.6513
     27 O6         -4.5328   -4.6133   -0.6980 O.2       1 GTP        -0.5111
     28 N1         -2.5102   -5.4606    0.1612 N.pl3     1 GTP        -0.4713
     29 C2         -1.2711   -5.2547    0.8113 C.ar      1 GTP         0.5256
     30 N2         -0.4228   -6.3256    1.0482 N.pl3     1 GTP        -0.8665
     31 N3         -0.9033   -3.9563    1.2146 N.pl3     1 GTP        -0.5398
     32 C4         -1.7979   -2.9400    0.9438 C.ar      1 GTP        -0.0275
     33 HOG3       -2.4975    3.7647   -4.2762 H         1 GTP         0.4161
     34 H5'        -1.1767    2.0502    0.6368 H         1 GTP         0.0348
     35 H5''       -0.2080    3.2814    1.4876 H         1 GTP         0.0348
     36 H4'         0.0403    1.7078    3.4343 H         1 GTP         0.1215
     37 H3'         1.5907    1.4859    1.1353 H         1 GTP         0.0576
     38 HO3'        2.6839   -0.1150    2.2479 H         1 GTP         0.3842
     39 H2'        -0.0017    0.0018    0.0005 H         1 GTP         0.0252
     40 HO2'        2.0953   -0.9375    0.0709 H         1 GTP         0.4224
     41 H1'        -0.1998   -1.6319    2.6178 H         1 GTP         0.0745
     42 H8         -3.0691    0.0134    0.8177 H         1 GTP         0.1522
     43 HN1        -2.7468   -6.4119   -0.1177 H         1 GTP         0.3518
     44 HN21        0.4233   -6.1297    1.5018 H         1 GTP         0.4761
     45 HN22       -0.7261   -7.2071    0.7466 H         1 GTP         0.4761
     46 H46        -0.0124   -3.8015    1.6821 H         1 GTP         0.5030
@<TRIPOS>BOND
     1    1    2 2
     2    1    3 1
     3    1    4 1
     4    1    5 1
     5    4   33 1
     6    5    6 1
     7    6    7 2
     8    6    8 1
     9    6    9 1
    10    9   10 1
    11   10   11 2
    12   10   12 1
    13   10   13 1
    14   13   14 1
    15   14   15 1
    16   14   34 1
    17   14   35 1
    18   15   16 1
    19   15   17 1
    20   15   36 1
    21   16   21 1
    22   17   18 1
    23   17   19 1
    24   17   37 1
    25   18   38 1
    26   19   20 1
    27   19   21 1
    28   19   39 1
    29   20   40 1
    30   21   22 1
    31   21   41 1
    32   22   23 ar
    33   22   32 ar
    34   23   24 ar
    35   23   42 1
    36   24   25 ar
    37   25   26 ar
    38   25   32 ar
    39   26   27 2
    40   26   28 ar
    41   28   29 ar
    42   28   43 1
    43   29   30 1
    44   29   31 ar
    45   30   44 1
    46   30   45 1
    47   31   32 ar
    48   31   46 1
@<TRIPOS>SUBSTRUCTURE
     1 GTP         1 GROUP 0 A     ****
@<TRIPOS>MOLECULE
[[[5-(2-amino-6-oxo-1,3-dihydropurin-2-ylium-9-yl)-3,4-dihydroxy-tetrahydrofuran-2-yl]methoxy-oxido-phosphoryl]oxy-oxido-phosphoryl] hydrogen phosphate
   46    48     1     0     0
SMALL
USER_CHARGES

@<TRIPOS>ATOM
      1 PG         -4.9121    2.3560   -3.4328 P.3       1 GTP         1.5400
      2 O1G        -4.5471    3.5131   -4.3359 O.co2     1 GTP        -0.8909
      3 O2G        -4.6691    0.9268   -3.8640 O.co2     1 GTP        -0.8909
      4 O3G        -6.4797    2.5084   -3.0026 O.3       1 GTP        -0.7980
      5 O3B        -4.2306    2.5898   -1.9683 O.3       1 GTP        -0.7612
      6 PB         -4.3123    3.8795   -0.9705 P.3       1 GTP         1.5847
      7 O1B        -3.6262    5.0516   -1.6361 O.co2     1 GTP        -0.8859
      8 O2B        -5.7177    3.9914   -0.4230 O.co2     1 GTP        -0.8859
      9 O3A        -3.3820    3.3250    0.2509 O.3       1 GTP        -0.7486
     10 PA         -2.9646    4.0418    1.6587 P.3       1 GTP         1.5001
     11 O1A        -2.1198    5.2596    1.3528 O.co2     1 GTP        -0.8487
     12 O2A        -4.1947    4.1429    2.5341 O.co2     1 GTP        -0.8487
     13 O5'        -2.0401    2.8620    2.3128 O.3       1 GTP        -0.5474
     14 C5'        -0.8811    2.4285    1.6206 C.3       1 GTP         0.2547
     15 C4'        -0.1994    1.3333    2.4288 C.3       1 GTP         0.0926
     16 O4'        -1.1285    0.2356    2.5840 O.3       1 GTP        -0.3593
     17 C3'         1.0324    0.7610    1.7344 C.3       1 GTP         0.0907
     18 O3'         1.9175    0.2377    2.7247 O.3       1 GTP        -0.5209
     19 C2'         0.4468   -0.3802    0.9263 C.3       1 GTP         0.0305
     20 O2'         1.3993   -1.3703    0.5961 O.3       1 GTP        -0.5978
     21 C1'        -0.6159   -0.9100    1.8769 C.3       1 GTP         0.2339
     22 N9         -1.7127   -1.6108    1.2130 N.pl3     1 GTP        -0.1765
     23 C8         -2.5534   -1.0907    0.2607 C.ar      1 GTP         0.4947
     24 N7         -3.4469   -1.9695   -0.1508 N.2       1 GTP        -0.5802
     25 C5         -3.1705   -3.1041    0.5657 C.ar      1 GTP         0.2279
     26 C6         -3.8738   -4.3568    0.4777 C.ar      1 GTP         0.6513
     27 O6         -4.8240   -4.5720   -0.2607 O.2       1 GTP        -0.5111
     28 N1         -3.3198   -5.3462    1.3780 N.pl3     1 GTP        -0.4713
     29 C2         -2.2226   -5.1203    2.2413 C.ar      1 GTP         0.5256
     30 N2         -1.7649   -6.1367    3.0659 N.pl3     1 GTP        -0.8665
     31 N3         -1.5969   -3.8585    2.2574 N.pl3     1 GTP        -0.5398
     32 C4         -2.1068   -2.8965    1.4082 C.ar      1 GTP        -0.0275
     33 HOG3       -6.8701    1.8289   -2.4124 H         1 GTP         0.4161
     34 H5'        -1.1767    2.0502    0.6368 H         1 GTP         0.0348
     35 H5''       -0.2080    3.2814    1.4876 H         1 GTP         0.0348
     36 H4'         0.0403    1.7078    3.4343 H         1 GTP         0.1215
     37 H3'         1.5907    1.4859    1.1353 H         1 GTP         0.0576
     38 HO3'        2.6839   -0.1150    2.2479 H         1 GTP         0.3842
     39 H2'        -0.0017    0.0018    0.0005 H         1 GTP         0.0252
     40 HO2'        2.0953   -0.9375    0.0709 H         1 GTP         0.4224
     41 H1'        -0.1998   -1.6319    2.6178 H         1 GTP         0.0745
     42 H8         -2.4657   -0.0713   -0.0897 H         1 GTP         0.1522
     43 HN1        -3.7505   -6.2699    1.3904 H         1 GTP         0.3518
     44 HN21       -1.0023   -5.9289    3.6451 H         1 GTP         0.4761
     45 HN22       -2.2347   -6.9951    3.0150 H         1 GTP         0.4761
     46 H46        -0.8062   -3.6900    2.8760 H         1 GTP         0.5030
@<TRIPOS>BOND
     1    1    2 2
     2    1    3 1
     3    1    4 1
     4    1    5 1
     5    4   33 1
     6    5    6 1
     7    6    7 2
     8    6    8 1
     9    6    9 1
    10    9   10 1
    11   10   11 2
    12   10   12 1
    13   10   13 1
    14   13   14 1
    15   14   15 1
    16   14   34 1
    17   14   35 1
    18   15   16 1
    19   15   17 1
    20   15   36 1
    21   16   21 1
    22   17   18 1
    23   17   19 1
    24   17   37 1
    25   18   38 1
    26   19   20 1
    27   19   21 1
    28   19   39 1
    29   20   40 1
    30   21   22 1
    31   21   41 1
    32   22   23 ar
    33   22   32 ar
    34   23   24 ar
    35   23   42 1
    36   24   25 ar
    37   25   26 ar
    38   25   32 ar
    39   26   27 2
    40   26   28 ar
    41   28   29 ar
    42   28   43 1
    43   29   30 1
    44   29   31 ar
    45   30   44 1
    46   30   45 1
    47   31   32 ar
    48   31   46 1
@<TRIPOS>SUBSTRUCTURE
     1 GTP         1 GROUP 0 A     ****
@<TRIPOS>MOLECULE
[[[5-(2-amino-6-oxo-1,3-dihydropurin-2-ylium-9-yl)-3,4-dihydroxy-tetrahydrofuran-2-yl]methoxy-oxido-phosphoryl]oxy-oxido-phosphoryl] hydrogen phosphate
   46    48     1     0     0
SMALL
USER_CHARGES

@<TRIPOS>ATOM
      1 PG         -2.8061    7.4853   -1.7306 P.3       1 GTP         1.5400
      2 O1G        -4.0861    8.2223   -1.4056 O.co2     1 GTP        -0.8909
      3 O2G        -1.5507    8.2383   -2.1110 O.co2     1 GTP        -0.8909
      4 O3G        -3.1227    6.3842   -2.8939 O.3       1 GTP        -0.7980
      5 O3B        -2.4584    6.4603   -0.5090 O.3       1 GTP        -0.7612
      6 PB         -2.0305    6.7790    1.0340 P.3       1 GTP         1.5847
      7 O1B        -0.6809    7.4617    1.0317 O.co2     1 GTP        -0.8859
      8 O2B        -3.2162    7.3715    1.7624 O.co2     1 GTP        -0.8859
      9 O3A        -1.8672    5.2499    1.5817 O.3       1 GTP        -0.7486
     10 PA         -2.9646    4.0418    1.6587 P.3       1 GTP         1.5001
     11 O1A        -4.0615    4.4416    2.6216 O.co2     1 GTP        -0.8487
     12 O2A        -3.2861    3.5890    0.2511 O.co2     1 GTP        -0.8487
     13 O5'        -2.0401    2.8620    2.3128 O.3       1 GTP        -0.5474
     14 C5'        -0.8811    2.4285    1.6206 C.3       1 GTP         0.2547
     15 C4'        -0.1994    1.3333    2.4288 C.3       1 GTP         0.0926
     16 O4'        -1.1285    0.2356    2.5840 O.3       1 GTP        -0.3593
     17 C3'         1.0324    0.7610    1.7344 C.3       1 GTP         0.0907
     18 O3'         1.9175    0.2377    2.7247 O.3       1 GTP        -0.5209
     19 C2'         0.4468   -0.3802    0.9263 C.3       1 GTP         0.0305
     20 O2'         1.3993   -1.3703    0.5961 O.3       1 GTP        -0.5978
     21 C1'        -0.6159   -0.9100    1.8769 C.3       1 GTP         0.2339
     22 N9         -1.7127   -1.6108    1.2130 N.pl3     1 GTP        -0.1765
     23 C8         -2.8692   -1.0463    0.7355 C.ar      1 GTP         0.4947
     24 N7         -3.6707   -1.9381    0.1856 N.2       1 GTP        -0.5802
     25 C5         -3.0027   -3.1275    0.3134 C.ar      1 GTP         0.2279
     26 C6         -3.4659   -4.4142   -0.1355 C.ar      1 GTP         0.6513
     27 O6         -4.5328   -4.6133   -0.6980 O.2       1 GTP        -0.5111
     28 N1         -2.5102   -5.4606    0.1612 N.pl3     1 GTP        -0.4713
     29 C2         -1.2711   -5.2547    0.8113 C.ar      1 GTP         0.5256
     30 N2         -0.4228   -6.3256    1.0482 N.pl3     1 GTP        -0.8665
     31 N3         -0.9033   -3.9563    1.2146 N.pl3     1 GTP        -0.5398
     32 C4         -1.7979   -2.9400    0.9438 C.ar      1 GTP        -0.0275
     33 HOG3       -2.3872    5.8208   -3.2162 H         1 GTP         0.4161
     34 H5'        -1.1767    2.0502    0.6368 H         1 GTP         0.0348
     35 H5''       -0.2080    3.2814    1.4876 H         1 GTP         0.0348
     36 H4'         0.0403    1.7078    3.4343 H         1 GTP         0.1215
     37 H3'         1.5907    1.4859    1.1353 H         1 GTP         0.0576
     38 HO3'        2.6839   -0.1150    2.2479 H         1 GTP         0.3842
     39 H2'        -0.0017    0.0018    0.0005 H         1 GTP         0.0252
     40 HO2'        2.0953   -0.9375    0.0709 H         1 GTP         0.4224
     41 H1'        -0.1998   -1.6319    2.6178 H         1 GTP         0.0745
     42 H8         -3.0691    0.0134    0.8177 H         1 GTP         0.1522
     43 HN1        -2.7468   -6.4119   -0.1177 H         1 GTP         0.3518
     44 HN21        0.4233   -6.1297    1.5018 H         1 GTP         0.4761
     45 HN22       -0.7261   -7.2071    0.7466 H         1 GTP         0.4761
     46 H46        -0.0124   -3.8015    1.6821 H         1 GTP         0.5030
@<TRIPOS>BOND
     1    1    2 2
     2    1    3 1
     3    1    4 1
     4    1    5 1
     5    4   33 1
     6    5    6 1
     7    6    7 2
     8    6    8 1
     9    6    9 1
    10    9   10 1
    11   10   11 2
    12   10   12 1
    13   10   13 1
    14   13   14 1
    15   14   15 1
    16   14   34 1
    17   14   35 1
    18   15   16 1
    19   15   17 1
    20   15   36 1
    21   16   21 1
    22   17   18 1
    23   17   19 1
    24   17   37 1
    25   18   38 1
    26   19   20 1
    27   19   21 1
    28   19   39 1
    29   20   40 1
    30   21   22 1
    31   21   41 1
    32   22   23 ar
    33   22   32 ar
    34   23   24 ar
    35   23   42 1
    36   24   25 ar
    37   25   26 ar
    38   25   32 ar
    39   26   27 2
    40   26   28 ar
    41   28   29 ar
    42   28   43 1
    43   29   30 1
    44   29   31 ar
    45   30   44 1
    46   30   45 1
    47   31   32 ar
    48   31   46 1
@<TRIPOS>SUBSTRUCTURE
     1 GTP         1 GROUP 0 A     ****
@<TRIPOS>MOLECULE
[[[5-(2-amino-6-oxo-1,3-dihydropurin-2-ylium-9-yl)-3,4-dihydroxy-tetrahydrofuran-2-yl]methoxy-oxido-phosphoryl]oxy-oxido-phosphoryl] hydrogen phosphate
   46    48     1     0     0
SMALL
USER_CHARGES

@<TRIPOS>ATOM
      1 PG         -5.2837    1.4393   -0.8369 P.3       1 GTP         1.5400
      2 O1G        -5.1198    1.8299   -2.2889 O.co2     1 GTP        -0.8909
      3 O2G        -4.1430    0.8112   -0.0675 O.co2     1 GTP        -0.8909
      4 O3G        -6.5928    0.4726   -0.7045 O.3       1 GTP        -0.7980
      5 O3B        -5.8411    2.7253   -0.0007 O.3       1 GTP        -0.7612
      6 PB         -5.1161    4.1493    0.3342 P.3       1 GTP         1.5847
      7 O1B        -4.6526    4.7742   -0.9628 O.co2     1 GTP        -0.8859
      8 O2B        -5.9667    4.9155    1.3226 O.co2     1 GTP        -0.8859
      9 O3A        -3.8245    3.5965    1.1654 O.3       1 GTP        -0.7486
     10 PA         -2.5926    4.4187    1.8556 P.3       1 GTP         1.5001
     11 O1A        -1.8001    5.1111    0.7680 O.co2     1 GTP        -0.8487
     12 O2A        -3.1290    5.1879    3.0431 O.co2     1 GTP        -0.8487
     13 O5'        -1.7336    3.1724    2.4750 O.3       1 GTP        -0.5474
     14 C5'        -0.8811    2.4285    1.6206 C.3       1 GTP         0.2547
     15 C4'        -0.1994    1.3333    2.4288 C.3       1 GTP         0.0926
     16 O4'        -1.1285    0.2356    2.5840 O.3       1 GTP        -0.3593
     17 C3'         1.0324    0.7610    1.7344 C.3       1 GTP         0.0907
     18 O3'         1.9175    0.2377    2.7247 O.3       1 GTP        -0.5209
     19 C2'         0.4468   -0.3802    0.9263 C.3       1 GTP         0.0305
     20 O2'         1.3993   -1.3703    0.5961 O.3       1 GTP        -0.5978
     21 C1'        -0.6159   -0.9100    1.8769 C.3       1 GTP         0.2339
     22 N9         -1.7127   -1.6108    1.2130 N.pl3     1 GTP        -0.1765
     23 C8         -1.6311   -2.3341    0.0493 C.ar      1 GTP         0.4947
     24 N7         -2.7933   -2.8506   -0.3007 N.2       1 GTP        -0.5802
     25 C5         -3.6607   -2.4436    0.6786 C.ar      1 GTP         0.2279
     26 C6         -5.0651   -2.7506    0.7505 C.ar      1 GTP         0.6513
     27 O6         -5.6735   -3.4256   -0.0671 O.2       1 GTP        -0.5111
     28 N1         -5.6834   -2.1585    1.9182 N.pl3     1 GTP        -0.4713
     29 C2         -5.0007   -1.3738    2.8765 C.ar      1 GTP         0.5256
     30 N2         -5.6847   -0.8521    3.9640 N.pl3     1 GTP        -0.8665
     31 N3         -3.6227   -1.1271    2.7212 N.pl3     1 GTP        -0.5398
     32 C4         -3.0090   -1.6802    1.6149 C.ar      1 GTP        -0.0275
     33 HOG3       -6.8340    0.1323    0.1834 H         1 GTP         0.4161
     34 H5'        -1.4800    1.9927    0.8146 H         1 GTP         0.0348
     35 H5''       -0.1367    3.1040    1.1872 H         1 GTP         0.0348
     36 H4'         0.0403    1.7078    3.4343 H         1 GTP         0.1215
     37 H3'         1.5907    1.4859    1.1353 H         1 GTP         0.0576
     38 HO3'        2.6839   -0.1150    2.2479 H         1 GTP         0.3842
     39 H2'        -0.0017    0.0018    0.0005 H         1 GTP         0.0252
     40 HO2'        2.0953   -0.9375    0.0709 H         1 GTP         0.4224
     41 H1'        -0.1998   -1.6319    2.6178 H         1 GTP         0.0745
     42 H8         -0.7029   -2.4474   -0.4941 H         1 GTP         0.1522
     43 HN1        -6.6800   -2.3183    2.0594 H         1 GTP         0.3518
     44 HN21       -5.1660   -0.3153    4.5987 H         1 GTP         0.4761
     45 HN22       -6.6415   -1.0545    4.0252 H         1 GTP         0.4761
     46 H46        -3.1256   -0.5638    3.4080 H         1 GTP         0.5030
@<TRIPOS>BOND
     1    1    2 2
     2    1    3 1
     3    1    4 1
     4    1    5 1
     5    4   33 1
     6    5    6 1
     7    6    7 2
     8    6    8 1
     9    6    9 1
    10    9   10 1
    11   10   11 2
    12   10   12 1
    13   10   13 1
    14   13   14 1
    15   14   15 1
    16   14   34 1
    17   14   35 1
    18   15   16 1
    19   15   17 1
    20   15   36 1
    21   16   21 1
    22   17   18 1
    23   17   19 1
    24   17   37 1
    25   18   38 1
    26   19   20 1
    27   19   21 1
    28   19   39 1
    29   20   40 1
    30   21   22 1
    31   21   41 1
    32   22   23 ar
    33   22   32 ar
    34   23   24 ar
    35   23   42 1
    36   24   25 ar
    37   25   26 ar
    38   25   32 ar
    39   26   27 2
    40   26   28 ar
    41   28   29 ar
    42   28   43 1
    43   29   30 1
    44   29   31 ar
    45   30   44 1
    46   30   45 1
    47   31   32 ar
    48   31   46 1
@<TRIPOS>SUBSTRUCTURE
     1 GTP         1 GROUP 0 A     ****
@<TRIPOS>MOLECULE
[[[5-(2-amino-6-oxo-1,3-dihydropurin-2-ylium-9-yl)-3,4-dihydroxy-tetrahydrofuran-2-yl]methoxy-oxido-phosphoryl]oxy-oxido-phosphoryl] hydrogen phosphate
   46    48     1     0     0
SMALL
USER_CHARGES

@<TRIPOS>ATOM
      1 PG         -0.7600    5.9768   -1.5904 P.3       1 GTP         1.5400
      2 O1G         0.4874    6.8153   -1.4218 O.co2     1 GTP        -0.8909
      3 O2G        -0.7287    4.4820   -1.3615 O.co2     1 GTP        -0.8909
      4 O3G        -1.3794    6.2611   -3.0741 O.3       1 GTP        -0.7980
      5 O3B        -1.9604    6.6242   -0.6939 O.3       1 GTP        -0.7612
      6 PB         -2.1077    6.7422    0.9279 P.3       1 GTP         1.5847
      7 O1B        -0.8773    7.4287    1.4777 O.co2     1 GTP        -0.8859
      8 O2B        -3.5008    7.2265    1.2627 O.co2     1 GTP        -0.8859
      9 O3A        -2.0640    5.1559    1.3109 O.3       1 GTP        -0.7486
     10 PA         -2.1561    4.4278    2.7707 P.3       1 GTP         1.5001
     11 O1A        -0.9467    4.8245    3.5894 O.co2     1 GTP        -0.8487
     12 O2A        -3.5584    4.6024    3.3116 O.co2     1 GTP        -0.8487
     13 O5'        -2.0401    2.8620    2.3128 O.3       1 GTP        -0.5474
     14 C5'        -0.8811    2.4285    1.6206 C.3       1 GTP         0.2547
     15 C4'        -0.1994    1.3333    2.4288 C.3       1 GTP         0.0926
     16 O4'        -1.1285    0.2356    2.5840 O.3       1 GTP        -0.3593
     17 C3'         1.0324    0.7610    1.7344 C.3       1 GTP         0.0907
     18 O3'         1.9175    0.2377    2.7247 O.3       1 GTP        -0.5209
     19 C2'         0.4468   -0.3802    0.9263 C.3       1 GTP         0.0305
     20 O2'         1.3993   -1.3703    0.5961 O.3       1 GTP        -0.5978
     21 C1'        -0.6159   -0.9100    1.8769 C.3       1 GTP         0.2339
     22 N9         -1.7127   -1.6108    1.2130 N.pl3     1 GTP        -0.1765
     23 C8         -2.8692   -1.0463    0.7355 C.ar      1 GTP         0.4947
     24 N7         -3.6707   -1.9381    0.1856 N.2       1 GTP        -0.5802
     25 C5         -3.0027   -3.1275    0.3134 C.ar      1 GTP         0.2279
     26 C6         -3.4659   -4.4142   -0.1355 C.ar      1 GTP         0.6513
     27 O6         -4.5328   -4.6133   -0.6980 O.2       1 GTP        -0.5111
     28 N1         -2.5102   -5.4606    0.1612 N.pl3     1 GTP        -0.4713
     29 C2         -1.2711   -5.2547    0.8113 C.ar      1 GTP         0.5256
     30 N2         -0.4228   -6.3256    1.0482 N.pl3     1 GTP        -0.8665
     31 N3         -0.9033   -3.9563    1.2146 N.pl3     1 GTP        -0.5398
     32 C4         -1.7979   -2.9400    0.9438 C.ar      1 GTP        -0.0275
     33 HOG3       -2.1973    5.7877   -3.3372 H         1 GTP         0.4161
     34 H5'        -1.1767    2.0502    0.6368 H         1 GTP         0.0348
     35 H5''       -0.2080    3.2814    1.4876 H         1 GTP         0.0348
     36 H4'         0.0403    1.7078    3.4343 H         1 GTP         0.1215
     37 H3'         1.5907    1.4859    1.1353 H         1 GTP         0.0576
     38 HO3'        2.6839   -0.1150    2.2479 H         1 GTP         0.3842
     39 H2'        -0.0017    0.0018    0.0005 H         1 GTP         0.0252
     40 HO2'        2.0953   -0.9375    0.0709 H         1 GTP         0.4224
     41 H1'        -0.1998   -1.6319    2.6178 H         1 GTP         0.0745
     42 H8         -3.0691    0.0134    0.8177 H         1 GTP         0.1522
     43 HN1        -2.7468   -6.4119   -0.1177 H         1 GTP         0.3518
     44 HN21        0.4233   -6.1297    1.5018 H         1 GTP         0.4761
     45 HN22       -0.7261   -7.2071    0.7466 H         1 GTP         0.4761
     46 H46        -0.0124   -3.8015    1.6821 H         1 GTP         0.5030
@<TRIPOS>BOND
     1    1    2 2
     2    1    3 1
     3    1    4 1
     4    1    5 1
     5    4   33 1
     6    5    6 1
     7    6    7 2
     8    6    8 1
     9    6    9 1
    10    9   10 1
    11   10   11 2
    12   10   12 1
    13   10   13 1
    14   13   14 1
    15   14   15 1
    16   14   34 1
    17   14   35 1
    18   15   16 1
    19   15   17 1
    20   15   36 1
    21   16   21 1
    22   17   18 1
    23   17   19 1
    24   17   37 1
    25   18   38 1
    26   19   20 1
    27   19   21 1
    28   19   39 1
    29   20   40 1
    30   21   22 1
    31   21   41 1
    32   22   23 ar
    33   22   32 ar
    34   23   24 ar
    35   23   42 1
    36   24   25 ar
    37   25   26 ar
    38   25   32 ar
    39   26   27 2
    40   26   28 ar
    41   28   29 ar
    42   28   43 1
    43   29   30 1
    44   29   31 ar
    45   30   44 1
    46   30   45 1
    47   31   32 ar
    48   31   46 1
@<TRIPOS>SUBSTRUCTURE
     1 GTP         1 GROUP 0 A     ****
@<TRIPOS>MOLECULE
[[[5-(2-amino-6-oxo-1,3-dihydropurin-2-ylium-9-yl)-3,4-dihydroxy-tetrahydrofuran-2-yl]methoxy-oxido-phosphoryl]oxy-oxido-phosphoryl] hydrogen phosphate
   46    48     1     0     0
SMALL
USER_CHARGES

@<TRIPOS>ATOM
      1 PG         -4.4799    6.9557   -1.0365 P.3       1 GTP         1.5400
      2 O1G        -5.8216    6.8891   -0.3415 O.co2     1 GTP        -0.8909
      3 O2G        -3.8999    8.2798   -1.4816 O.co2     1 GTP        -0.8909
      4 O3G        -4.5094    5.9454   -2.3189 O.3       1 GTP        -0.7980
      5 O3B        -3.3726    6.1711   -0.1300 O.3       1 GTP        -0.7612
      6 PB         -2.7700    6.5451    1.3406 P.3       1 GTP         1.5847
      7 O1B        -1.9788    7.8291    1.2282 O.co2     1 GTP        -0.8859
      8 O2B        -3.8576    6.3734    2.3776 O.co2     1 GTP        -0.8859
      9 O3A        -1.7457    5.2883    1.5313 O.3       1 GTP        -0.7486
     10 PA         -0.4665    4.8322    0.6228 P.3       1 GTP         1.5001
     11 O1A        -0.9631    4.4288   -0.7487 O.co2     1 GTP        -0.8487
     12 O2A         0.6338    5.8580    0.7859 O.co2     1 GTP        -0.8487
     13 O5'         0.0178    3.5131    1.4595 O.3       1 GTP        -0.5474
     14 C5'        -0.8811    2.4285    1.6206 C.3       1 GTP         0.2547
     15 C4'        -0.1994    1.3333    2.4288 C.3       1 GTP         0.0926
     16 O4'        -1.1285    0.2356    2.5840 O.3       1 GTP        -0.3593
     17 C3'         1.0324    0.7610    1.7344 C.3       1 GTP         0.0907
     18 O3'         1.9175    0.2377    2.7247 O.3       1 GTP        -0.5209
     19 C2'         0.4468   -0.3802    0.9263 C.3       1 GTP         0.0305
     20 O2'         1.3993   -1.3703    0.5961 O.3       1 GTP        -0.5978
     21 C1'        -0.6159   -0.9100    1.8769 C.3       1 GTP         0.2339
     22 N9         -1.7127   -1.6108    1.2130 N.pl3     1 GTP        -0.1765
     23 C8         -2.8692   -1.0463    0.7355 C.ar      1 GTP         0.4947
     24 N7         -3.6707   -1.9381    0.1856 N.2       1 GTP        -0.5802
     25 C5         -3.0027   -3.1275    0.3134 C.ar      1 GTP         0.2279
     26 C6         -3.4659   -4.4142   -0.1355 C.ar      1 GTP         0.6513
     27 O6         -4.5328   -4.6133   -0.6980 O.2       1 GTP        -0.5111
     28 N1         -2.5102   -5.4606    0.1612 N.pl3     1 GTP        -0.4713
     29 C2         -1.2711   -5.2547    0.8113 C.ar      1 GTP         0.5256
     30 N2         -0.4228   -6.3256    1.0482 N.pl3     1 GTP        -0.8665
     31 N3         -0.9033   -3.9563    1.2146 N.pl3     1 GTP        -0.5398
     32 C4         -1.7979   -2.9400    0.9438 C.ar      1 GTP        -0.0275
     33 HOG3       -3.7056    5.8754   -2.8767 H         1 GTP         0.4161
     34 H5'        -1.7771    2.7849    2.1387 H         1 GTP         0.0348
     35 H5''       -1.1654    2.0541    0.6320 H         1 GTP         0.0348
     36 H4'         0.0403    1.7078    3.4343 H         1 GTP         0.1215
     37 H3'         1.5907    1.4859    1.1353 H         1 GTP         0.0576
     38 HO3'        2.6839   -0.1150    2.2479 H         1 GTP         0.3842
     39 H2'        -0.0017    0.0018    0.0005 H         1 GTP         0.0252
     40 HO2'        2.0953   -0.9375    0.0709 H         1 GTP         0.4224
     41 H1'        -0.1998   -1.6319    2.6178 H         1 GTP         0.0745
     42 H8         -3.0691    0.0134    0.8177 H         1 GTP         0.1522
     43 HN1        -2.7468   -6.4119   -0.1177 H         1 GTP         0.3518
     44 HN21        0.4233   -6.1297    1.5018 H         1 GTP         0.4761
     45 HN22       -0.7261   -7.2071    0.7466 H         1 GTP         0.4761
     46 H46        -0.0124   -3.8015    1.6821 H         1 GTP         0.5030
@<TRIPOS>BOND
     1    1    2 2
     2    1    3 1
     3    1    4 1
     4    1    5 1
     5    4   33 1
     6    5    6 1
     7    6    7 2
     8    6    8 1
     9    6    9 1
    10    9   10 1
    11   10   11 2
    12   10   12 1
    13   10   13 1
    14   13   14 1
    15   14   15 1
    16   14   34 1
    17   14   35 1
    18   15   16 1
    19   15   17 1
    20   15   36 1
    21   16   21 1
    22   17   18 1
    23   17   19 1
    24   17   37 1
    25   18   38 1
    26   19   20 1
    27   19   21 1
    28   19   39 1
    29   20   40 1
    30   21   22 1
    31   21   41 1
    32   22   23 ar
    33   22   32 ar
    34   23   24 ar
    35   23   42 1
    36   24   25 ar
    37   25   26 ar
    38   25   32 ar
    39   26   27 2
    40   26   28 ar
    41   28   29 ar
    42   28   43 1
    43   29   30 1
    44   29   31 ar
    45   30   44 1
    46   30   45 1
    47   31   32 ar
    48   31   46 1
@<TRIPOS>SUBSTRUCTURE
     1 GTP         1 GROUP 0 A     ****
@<TRIPOS>MOLECULE
[[[5-(2-amino-6-oxo-1,3-dihydropurin-2-ylium-9-yl)-3,4-dihydroxy-tetrahydrofuran-2-yl]methoxy-oxido-phosphoryl]oxy-oxido-phosphoryl] hydrogen phosphate
   46    48     1     0     0
SMALL
USER_CHARGES

@<TRIPOS>ATOM
      1 PG         -5.0918    3.4627   -3.0385 P.3       1 GTP         1.5400
      2 O1G        -4.9064    2.3369   -4.0313 O.co2     1 GTP        -0.8909
      3 O2G        -6.4631    4.0388   -2.7637 O.co2     1 GTP        -0.8909
      4 O3G        -4.0885    4.6845   -3.4466 O.3       1 GTP        -0.7980
      5 O3B        -4.4019    3.0400   -1.6211 O.3       1 GTP        -0.7612
      6 PB         -4.8201    1.8698   -0.5622 P.3       1 GTP         1.5847
      7 O1B        -6.1683    2.2124    0.0316 O.co2     1 GTP        -0.8859
      8 O2B        -4.5505    0.5193   -1.1876 O.co2     1 GTP        -0.8859
      9 O3A        -3.6558    2.1022    0.5582 O.3       1 GTP        -0.7486
     10 PA         -3.3161    3.4234    1.4576 P.3       1 GTP         1.5001
     11 O1A        -2.8773    4.5400    0.5352 O.co2     1 GTP        -0.8487
     12 O2A        -4.4325    3.6284    2.4582 O.co2     1 GTP        -0.8487
     13 O5'        -2.0401    2.8620    2.3128 O.3       1 GTP        -0.5474
     14 C5'        -0.8811    2.4285    1.6206 C.3       1 GTP         0.2547
     15 C4'        -0.1994    1.3333    2.4288 C.3       1 GTP         0.0926
     16 O4'        -1.1285    0.2356    2.5840 O.3       1 GTP        -0.3593
     17 C3'         1.0324    0.7610    1.7344 C.3       1 GTP         0.0907
     18 O3'         1.9175    0.2377    2.7247 O.3       1 GTP        -0.5209
     19 C2'         0.4468   -0.3802    0.9263 C.3       1 GTP         0.0305
     20 O2'         1.3993   -1.3703    0.5961 O.3       1 GTP        -0.5978
     21 C1'        -0.6159   -0.9100    1.8769 C.3       1 GTP         0.2339
     22 N9         -1.7127   -1.6108    1.2130 N.pl3     1 GTP        -0.1765
     23 C8         -3.0389   -1.2578    1.2391 C.ar      1 GTP         0.4947
     24 N7         -3.7909   -2.0880    0.5425 N.2       1 GTP        -0.5802
     25 C5         -2.9127   -3.0150    0.0458 C.ar      1 GTP         0.2279
     26 C6         -3.2467   -4.1411   -0.7860 C.ar      1 GTP         0.6513
     27 O6         -4.3761   -4.4189   -1.1621 O.2       1 GTP        -0.5111
     28 N1         -2.0748   -4.9191   -1.1296 N.pl3     1 GTP        -0.4713
     29 C2         -0.7595   -4.6181   -0.7058 C.ar      1 GTP         0.5256
     30 N2          0.2985   -5.4268   -1.0920 N.pl3     1 GTP        -0.8665
     31 N3         -0.5304   -3.4919    0.1084 N.pl3     1 GTP        -0.5398
     32 C4         -1.6318   -2.7332    0.4512 C.ar      1 GTP        -0.0275
     33 HOG3       -4.0908    5.4949   -2.8938 H         1 GTP         0.4161
     34 H5'        -1.1767    2.0502    0.6368 H         1 GTP         0.0348
     35 H5''       -0.2080    3.2814    1.4876 H         1 GTP         0.0348
     36 H4'         0.0403    1.7078    3.4343 H         1 GTP         0.1215
     37 H3'         1.5907    1.4859    1.1353 H         1 GTP         0.0576
     38 HO3'        2.6839   -0.1150    2.2479 H         1 GTP         0.3842
     39 H2'        -0.0017    0.0018    0.0005 H         1 GTP         0.0252
     40 HO2'        2.0953   -0.9375    0.0709 H         1 GTP         0.4224
     41 H1'        -0.1998   -1.6319    2.6178 H         1 GTP         0.0745
     42 H8         -3.3933   -0.3909    1.7800 H         1 GTP         0.1522
     43 HN1        -2.2071   -5.7408   -1.7178 H         1 GTP         0.3518
     44 HN21        1.1896   -5.1751   -0.7715 H         1 GTP         0.4761
     45 HN22        0.0846   -6.1966   -1.6593 H         1 GTP         0.4761
     46 H46         0.4142   -3.2695    0.4160 H         1 GTP         0.5030
@<TRIPOS>BOND
     1    1    2 2
     2    1    3 1
     3    1    4 1
     4    1    5 1
     5    4   33 1
     6    5    6 1
     7    6    7 2
     8    6    8 1
     9    6    9 1
    10    9   10 1
    11   10   11 2
    12   10   12 1
    13   10   13 1
    14   13   14 1
    15   14   15 1
    16   14   34 1
    17   14   35 1
    18   15   16 1
    19   15   17 1
    20   15   36 1
    21   16   21 1
    22   17   18 1
    23   17   19 1
    24   17   37 1
    25   18   38 1
    26   19   20 1
    27   19   21 1
    28   19   39 1
    29   20   40 1
    30   21   22 1
    31   21   41 1
    32   22   23 ar
    33   22   32 ar
    34   23   24 ar
    35   23   42 1
    36   24   25 ar
    37   25   26 ar
    38   25   32 ar
    39   26   27 2
    40   26   28 ar
    41   28   29 ar
    42   28   43 1
    43   29   30 1
    44   29   31 ar
    45   30   44 1
    46   30   45 1
    47   31   32 ar
    48   31   46 1
@<TRIPOS>SUBSTRUCTURE
     1 GTP         1 GROUP 0 A     ****
@<TRIPOS>MOLECULE
[[[5-(2-amino-6-oxo-1,3-dihydropurin-2-ylium-9-yl)-3,4-dihydroxy-tetrahydrofuran-2-yl]methoxy-oxido-phosphoryl]oxy-oxido-phosphoryl] hydrogen phosphate
   46    48     1     0     0
SMALL
USER_CHARGES

@<TRIPOS>ATOM
      1 PG         -7.1966   -0.0573    1.3610 P.3       1 GTP         1.5400
      2 O1G        -8.2857    0.4003    2.3054 O.co2     1 GTP        -0.8909
      3 O2G        -7.4523   -0.1666   -0.1258 O.co2     1 GTP        -0.8909
      4 O3G        -6.6154   -1.4872    1.8935 O.3       1 GTP        -0.7980
      5 O3B        -5.8655    0.8555    1.6031 O.3       1 GTP        -0.7612
      6 PB         -5.6201    2.4439    1.3161 P.3       1 GTP         1.5847
      7 O1B        -5.6883    2.6833   -0.1757 O.co2     1 GTP        -0.8859
      8 O2B        -6.4499    3.2544    2.2868 O.co2     1 GTP        -0.8859
      9 O3A        -4.0713    2.5645    1.8176 O.3       1 GTP        -0.7486
     10 PA         -3.0798    3.8627    1.8536 P.3       1 GTP         1.5001
     11 O1A        -2.8255    4.3201    0.4336 O.co2     1 GTP        -0.8487
     12 O2A        -3.5807    4.8256    2.9078 O.co2     1 GTP        -0.8487
     13 O5'        -1.7336    3.1724    2.4750 O.3       1 GTP        -0.5474
     14 C5'        -0.8811    2.4285    1.6206 C.3       1 GTP         0.2547
     15 C4'        -0.1994    1.3333    2.4288 C.3       1 GTP         0.0926
     16 O4'        -1.1285    0.2356    2.5840 O.3       1 GTP        -0.3593
     17 C3'         1.0324    0.7610    1.7344 C.3       1 GTP         0.0907
     18 O3'         1.9175    0.2377    2.7247 O.3       1 GTP        -0.5209
     19 C2'         0.4468   -0.3802    0.9263 C.3       1 GTP         0.0305
     20 O2'         1.3993   -1.3703    0.5961 O.3       1 GTP        -0.5978
     21 C1'        -0.6159   -0.9100    1.8769 C.3       1 GTP         0.2339
     22 N9         -1.7127   -1.6108    1.2130 N.pl3     1 GTP        -0.1765
     23 C8         -3.0389   -1.2578    1.2391 C.ar      1 GTP         0.4947
     24 N7         -3.7909   -2.0880    0.5425 N.2       1 GTP        -0.5802
     25 C5         -2.9127   -3.0150    0.0458 C.ar      1 GTP         0.2279
     26 C6         -3.2467   -4.1411   -0.7860 C.ar      1 GTP         0.6513
     27 O6         -4.3761   -4.4189   -1.1621 O.2       1 GTP        -0.5111
     28 N1         -2.0748   -4.9191   -1.1296 N.pl3     1 GTP        -0.4713
     29 C2         -0.7595   -4.6181   -0.7058 C.ar      1 GTP         0.5256
     30 N2          0.2985   -5.4268   -1.0920 N.pl3     1 GTP        -0.8665
     31 N3         -0.5304   -3.4919    0.1084 N.pl3     1 GTP        -0.5398
     32 C4         -1.6318   -2.7332    0.4512 C.ar      1 GTP        -0.0275
     33 HOG3       -5.8969   -1.9183    1.3834 H         1 GTP         0.4161
     34 H5'        -1.4800    1.9927    0.8146 H         1 GTP         0.0348
     35 H5''       -0.1367    3.1040    1.1872 H         1 GTP         0.0348
     36 H4'         0.0403    1.7078    3.4343 H         1 GTP         0.1215
     37 H3'         1.5907    1.4859    1.1353 H         1 GTP         0.0576
     38 HO3'        2.1521    0.9800    3.3017 H         1 GTP         0.3842
     39 H2'        -0.0017    0.0018    0.0005 H         1 GTP         0.0252
     40 HO2'        2.0953   -0.9375    0.0709 H         1 GTP         0.4224
     41 H1'        -0.1998   -1.6319    2.6178 H         1 GTP         0.0745
     42 H8         -3.3933   -0.3909    1.7800 H         1 GTP         0.1522
     43 HN1        -2.2071   -5.7408   -1.7178 H         1 GTP         0.3518
     44 HN21        1.1896   -5.1751   -0.7715 H         1 GTP         0.4761
     45 HN22        0.0846   -6.1966   -1.6593 H         1 GTP         0.4761
     46 H46         0.4142   -3.2695    0.4160 H         1 GTP         0.5030
@<TRIPOS>BOND
     1    1    2 2
     2    1    3 1
     3    1    4 1
     4    1    5 1
     5    4   33 1
     6    5    6 1
     7    6    7 2
     8    6    8 1
     9    6    9 1
    10    9   10 1
    11   10   11 2
    12   10   12 1
    13   10   13 1
    14   13   14 1
    15   14   15 1
    16   14   34 1
    17   14   35 1
    18   15   16 1
    19   15   17 1
    20   15   36 1
    21   16   21 1
    22   17   18 1
    23   17   19 1
    24   17   37 1
    25   18   38 1
    26   19   20 1
    27   19   21 1
    28   19   39 1
    29   20   40 1
    30   21   22 1
    31   21   41 1
    32   22   23 ar
    33   22   32 ar
    34   23   24 ar
    35   23   42 1
    36   24   25 ar
    37   25   26 ar
    38   25   32 ar
    39   26   27 2
    40   26   28 ar
    41   28   29 ar
    42   28   43 1
    43   29   30 1
    44   29   31 ar
    45   30   44 1
    46   30   45 1
    47   31   32 ar
    48   31   46 1
@<TRIPOS>SUBSTRUCTURE
     1 GTP         1 GROUP 0 A     ****
@<TRIPOS>MOLECULE
[[[5-(2-amino-6-oxo-1,3-dihydropurin-2-ylium-9-yl)-3,4-dihydroxy-tetrahydrofuran-2-yl]methoxy-oxido-phosphoryl]oxy-oxido-phosphoryl] hydrogen phosphate
   46    48     1     0     0
SMALL
USER_CHARGES

@<TRIPOS>ATOM
      1 PG          0.8877    6.7891    0.6688 P.3       1 GTP         1.5400
      2 O1G         2.1168    6.1046    1.2240 O.co2     1 GTP        -0.8909
      3 O2G         0.1454    6.2126   -0.5163 O.co2     1 GTP        -0.8909
      4 O3G         1.2641    8.3432    0.3387 O.3       1 GTP        -0.7980
      5 O3B        -0.1722    7.0448    1.8834 O.3       1 GTP        -0.7612
      6 PB         -1.0193    5.9714    2.7755 P.3       1 GTP         1.5847
      7 O1B        -0.0547    4.9770    3.3823 O.co2     1 GTP        -0.8859
      8 O2B        -2.0237    6.7190    3.6239 O.co2     1 GTP        -0.8859
      9 O3A        -1.8672    5.2499    1.5817 O.3       1 GTP        -0.7486
     10 PA         -2.9646    4.0418    1.6587 P.3       1 GTP         1.5001
     11 O1A        -4.0615    4.4416    2.6216 O.co2     1 GTP        -0.8487
     12 O2A        -3.2861    3.5890    0.2511 O.co2     1 GTP        -0.8487
     13 O5'        -2.0401    2.8620    2.3128 O.3       1 GTP        -0.5474
     14 C5'        -0.8811    2.4285    1.6206 C.3       1 GTP         0.2547
     15 C4'        -0.1994    1.3333    2.4288 C.3       1 GTP         0.0926
     16 O4'        -1.1285    0.2356    2.5840 O.3       1 GTP        -0.3593
     17 C3'         1.0324    0.7610    1.7344 C.3       1 GTP         0.0907
     18 O3'         1.9175    0.2377    2.7247 O.3       1 GTP        -0.5209
     19 C2'         0.4468   -0.3802    0.9263 C.3       1 GTP         0.0305
     20 O2'         1.3993   -1.3703    0.5961 O.3       1 GTP        -0.5978
     21 C1'        -0.6159   -0.9100    1.8769 C.3       1 GTP         0.2339
     22 N9         -1.7127   -1.6108    1.2130 N.pl3     1 GTP        -0.1765
     23 C8         -2.8692   -1.0463    0.7355 C.ar      1 GTP         0.4947
     24 N7         -3.6707   -1.9381    0.1856 N.2       1 GTP        -0.5802
     25 C5         -3.0027   -3.1275    0.3134 C.ar      1 GTP         0.2279
     26 C6         -3.4659   -4.4142   -0.1355 C.ar      1 GTP         0.6513
     27 O6         -4.5328   -4.6133   -0.6980 O.2       1 GTP        -0.5111
     28 N1         -2.5102   -5.4606    0.1612 N.pl3     1 GTP        -0.4713
     29 C2         -1.2711   -5.2547    0.8113 C.ar      1 GTP         0.5256
     30 N2         -0.4228   -6.3256    1.0482 N.pl3     1 GTP        -0.8665
     31 N3         -0.9033   -3.9563    1.2146 N.pl3     1 GTP        -0.5398
     32 C4         -1.7979   -2.9400    0.9438 C.ar      1 GTP        -0.0275
     33 HOG3        0.5657    8.9244   -0.0312 H         1 GTP         0.4161
     34 H5'        -1.1767    2.0502    0.6368 H         1 GTP         0.0348
     35 H5''       -0.2080    3.2814    1.4876 H         1 GTP         0.0348
     36 H4'         0.0403    1.7078    3.4343 H         1 GTP         0.1215
     37 H3'         1.5907    1.4859    1.1353 H         1 GTP         0.0576
     38 HO3'        2.6839   -0.1150    2.2479 H         1 GTP         0.3842
     39 H2'        -0.0017    0.0018    0.0005 H         1 GTP         0.0252
     40 HO2'        2.0953   -0.9375    0.0709 H         1 GTP         0.4224
     41 H1'        -0.1998   -1.6319    2.6178 H         1 GTP         0.0745
     42 H8         -3.0691    0.0134    0.8177 H         1 GTP         0.1522
     43 HN1        -2.7468   -6.4119   -0.1177 H         1 GTP         0.3518
     44 HN21        0.4233   -6.1297    1.5018 H         1 GTP         0.4761
     45 HN22       -0.7261   -7.2071    0.7466 H         1 GTP         0.4761
     46 H46        -0.0124   -3.8015    1.6821 H         1 GTP         0.5030
@<TRIPOS>BOND
     1    1    2 2
     2    1    3 1
     3    1    4 1
     4    1    5 1
     5    4   33 1
     6    5    6 1
     7    6    7 2
     8    6    8 1
     9    6    9 1
    10    9   10 1
    11   10   11 2
    12   10   12 1
    13   10   13 1
    14   13   14 1
    15   14   15 1
    16   14   34 1
    17   14   35 1
    18   15   16 1
    19   15   17 1
    20   15   36 1
    21   16   21 1
    22   17   18 1
    23   17   19 1
    24   17   37 1
    25   18   38 1
    26   19   20 1
    27   19   21 1
    28   19   39 1
    29   20   40 1
    30   21   22 1
    31   21   41 1
    32   22   23 ar
    33   22   32 ar
    34   23   24 ar
    35   23   42 1
    36   24   25 ar
    37   25   26 ar
    38   25   32 ar
    39   26   27 2
    40   26   28 ar
    41   28   29 ar
    42   28   43 1
    43   29   30 1
    44   29   31 ar
    45   30   44 1
    46   30   45 1
    47   31   32 ar
    48   31   46 1
@<TRIPOS>SUBSTRUCTURE
     1 GTP         1 GROUP 0 A     ****
@<TRIPOS>MOLECULE
[[[5-(2-amino-6-oxo-1,3-dihydropurin-2-ylium-9-yl)-3,4-dihydroxy-tetrahydrofuran-2-yl]methoxy-oxido-phosphoryl]oxy-oxido-phosphoryl] hydrogen phosphate
   46    48     1     0     0
SMALL
USER_CHARGES

@<TRIPOS>ATOM
      1 PG         -4.0407    6.2345   -2.3842 P.3       1 GTP         1.5400
      2 O1G        -5.2449    7.0642   -1.9980 O.co2     1 GTP        -0.8909
      3 O2G        -2.7788    6.8893   -2.9005 O.co2     1 GTP        -0.8909
      4 O3G        -4.5148    5.1020   -3.4606 O.3       1 GTP        -0.7980
      5 O3B        -3.6549    5.2482   -1.1424 O.3       1 GTP        -0.7612
      6 PB         -4.5863    4.1899   -0.3189 P.3       1 GTP         1.5847
      7 O1B        -5.6461    4.9615    0.4354 O.co2     1 GTP        -0.8859
      8 O2B        -4.9441    3.0359   -1.2287 O.co2     1 GTP        -0.8859
      9 O3A        -3.4727    3.6234    0.7318 O.3       1 GTP        -0.7486
     10 PA         -2.5926    4.4187    1.8556 P.3       1 GTP         1.5001
     11 O1A        -1.6707    5.3914    1.1526 O.co2     1 GTP        -0.8487
     12 O2A        -3.5190    4.8780    2.9603 O.co2     1 GTP        -0.8487
     13 O5'        -1.7336    3.1724    2.4750 O.3       1 GTP        -0.5474
     14 C5'        -0.8811    2.4285    1.6206 C.3       1 GTP         0.2547
     15 C4'        -0.1994    1.3333    2.4288 C.3       1 GTP         0.0926
     16 O4'        -1.1285    0.2356    2.5840 O.3       1 GTP        -0.3593
     17 C3'         1.0324    0.7610    1.7344 C.3       1 GTP         0.0907
     18 O3'         1.9175    0.2377    2.7247 O.3       1 GTP        -0.5209
     19 C2'         0.4468   -0.3802    0.9263 C.3       1 GTP         0.0305
     20 O2'         1.3993   -1.3703    0.5961 O.3       1 GTP        -0.5978
     21 C1'        -0.6159   -0.9100    1.8769 C.3       1 GTP         0.2339
     22 N9         -1.7127   -1.6108    1.2130 N.pl3     1 GTP        -0.1765
     23 C8         -2.8692   -1.0463    0.7355 C.ar      1 GTP         0.4947
     24 N7         -3.6707   -1.9381    0.1856 N.2       1 GTP        -0.5802
     25 C5         -3.0027   -3.1275    0.3134 C.ar      1 GTP         0.2279
     26 C6         -3.4659   -4.4142   -0.1355 C.ar      1 GTP         0.6513
     27 O6         -4.5328   -4.6133   -0.6980 O.2       1 GTP        -0.5111
     28 N1         -2.5102   -5.4606    0.1612 N.pl3     1 GTP        -0.4713
     29 C2         -1.2711   -5.2547    0.8113 C.ar      1 GTP         0.5256
     30 N2         -0.4228   -6.3256    1.0482 N.pl3     1 GTP        -0.8665
     31 N3         -0.9033   -3.9563    1.2146 N.pl3     1 GTP        -0.5398
     32 C4         -1.7979   -2.9400    0.9438 C.ar      1 GTP        -0.0275
     33 HOG3       -3.8421    4.4795   -3.8102 H         1 GTP         0.4161
     34 H5'        -1.4800    1.9927    0.8146 H         1 GTP         0.0348
     35 H5''       -0.1367    3.1040    1.1872 H         1 GTP         0.0348
     36 H4'         0.0403    1.7078    3.4343 H         1 GTP         0.1215
     37 H3'         1.5907    1.4859    1.1353 H         1 GTP         0.0576
     38 HO3'        2.1521    0.9800    3.3017 H         1 GTP         0.3842
     39 H2'        -0.0017    0.0018    0.0005 H         1 GTP         0.0252
     40 HO2'        2.0953   -0.9375    0.0709 H         1 GTP         0.4224
     41 H1'        -0.1998   -1.6319    2.6178 H         1 GTP         0.0745
     42 H8         -3.0691    0.0134    0.8177 H         1 GTP         0.1522
     43 HN1        -2.7468   -6.4119   -0.1177 H         1 GTP         0.3518
     44 HN21        0.4233   -6.1297    1.5018 H         1 GTP         0.4761
     45 HN22       -0.7261   -7.2071    0.7466 H         1 GTP         0.4761
     46 H46        -0.0124   -3.8015    1.6821 H         1 GTP         0.5030
@<TRIPOS>BOND
     1    1    2 2
     2    1    3 1
     3    1    4 1
     4    1    5 1
     5    4   33 1
     6    5    6 1
     7    6    7 2
     8    6    8 1
     9    6    9 1
    10    9   10 1
    11   10   11 2
    12   10   12 1
    13   10   13 1
    14   13   14 1
    15   14   15 1
    16   14   34 1
    17   14   35 1
    18   15   16 1
    19   15   17 1
    20   15   36 1
    21   16   21 1
    22   17   18 1
    23   17   19 1
    24   17   37 1
    25   18   38 1
    26   19   20 1
    27   19   21 1
    28   19   39 1
    29   20   40 1
    30   21   22 1
    31   21   41 1
    32   22   23 ar
    33   22   32 ar
    34   23   24 ar
    35   23   42 1
    36   24   25 ar
    37   25   26 ar
    38   25   32 ar
    39   26   27 2
    40   26   28 ar
    41   28   29 ar
    42   28   43 1
    43   29   30 1
    44   29   31 ar
    45   30   44 1
    46   30   45 1
    47   31   32 ar
    48   31   46 1
@<TRIPOS>SUBSTRUCTURE
     1 GTP         1 GROUP 0 A     ****
@<TRIPOS>MOLECULE
[[[5-(2-amino-6-oxo-1,3-dihydropurin-2-ylium-9-yl)-3,4-dihydroxy-tetrahydrofuran-2-yl]methoxy-oxido-phosphoryl]oxy-oxido-phosphoryl] hydrogen phosphate
   46    48     1     0     0
SMALL
USER_CHARGES

@<TRIPOS>ATOM
      1 PG         -5.0918    3.4627   -3.0385 P.3       1 GTP         1.5400
      2 O1G        -4.4272    4.7197   -3.5539 O.co2     1 GTP        -0.8909
      3 O2G        -5.2119    2.2332   -3.9111 O.co2     1 GTP        -0.8909
      4 O3G        -6.5773    3.8516   -2.4836 O.3       1 GTP        -0.7980
      5 O3B        -4.4019    3.0400   -1.6211 O.3       1 GTP        -0.7612
      6 PB         -4.8201    1.8698   -0.5622 P.3       1 GTP         1.5847
      7 O1B        -6.1683    2.2124    0.0316 O.co2     1 GTP        -0.8859
      8 O2B        -4.5505    0.5193   -1.1876 O.co2     1 GTP        -0.8859
      9 O3A        -3.6558    2.1022    0.5582 O.3       1 GTP        -0.7486
     10 PA         -3.3161    3.4234    1.4576 P.3       1 GTP         1.5001
     11 O1A        -2.8773    4.5400    0.5352 O.co2     1 GTP        -0.8487
     12 O2A        -4.4325    3.6284    2.4582 O.co2     1 GTP        -0.8487
     13 O5'        -2.0401    2.8620    2.3128 O.3       1 GTP        -0.5474
     14 C5'        -0.8811    2.4285    1.6206 C.3       1 GTP         0.2547
     15 C4'        -0.1994    1.3333    2.4288 C.3       1 GTP         0.0926
     16 O4'        -1.1285    0.2356    2.5840 O.3       1 GTP        -0.3593
     17 C3'         1.0324    0.7610    1.7344 C.3       1 GTP         0.0907
     18 O3'         1.9175    0.2377    2.7247 O.3       1 GTP        -0.5209
     19 C2'         0.4468   -0.3802    0.9263 C.3       1 GTP         0.0305
     20 O2'         1.3993   -1.3703    0.5961 O.3       1 GTP        -0.5978
     21 C1'        -0.6159   -0.9100    1.8769 C.3       1 GTP         0.2339
     22 N9         -1.7127   -1.6108    1.2130 N.pl3     1 GTP        -0.1765
     23 C8         -1.6311   -2.3341    0.0493 C.ar      1 GTP         0.4947
     24 N7         -2.7933   -2.8506   -0.3007 N.2       1 GTP        -0.5802
     25 C5         -3.6607   -2.4436    0.6786 C.ar      1 GTP         0.2279
     26 C6         -5.0651   -2.7506    0.7505 C.ar      1 GTP         0.6513
     27 O6         -5.6735   -3.4256   -0.0671 O.2       1 GTP        -0.5111
     28 N1         -5.6834   -2.1585    1.9182 N.pl3     1 GTP        -0.4713
     29 C2         -5.0007   -1.3738    2.8765 C.ar      1 GTP         0.5256
     30 N2         -5.6847   -0.8521    3.9640 N.pl3     1 GTP        -0.8665
     31 N3         -3.6227   -1.1271    2.7212 N.pl3     1 GTP        -0.5398
     32 C4         -3.0090   -1.6802    1.6149 C.ar      1 GTP        -0.0275
     33 HOG3       -7.1390    3.1378   -2.1130 H         1 GTP         0.4161
     34 H5'        -1.1767    2.0502    0.6368 H         1 GTP         0.0348
     35 H5''       -0.2080    3.2814    1.4876 H         1 GTP         0.0348
     36 H4'         0.0403    1.7078    3.4343 H         1 GTP         0.1215
     37 H3'         1.5907    1.4859    1.1353 H         1 GTP         0.0576
     38 HO3'        2.6839   -0.1150    2.2479 H         1 GTP         0.3842
     39 H2'        -0.0017    0.0018    0.0005 H         1 GTP         0.0252
     40 HO2'        2.0953   -0.9375    0.0709 H         1 GTP         0.4224
     41 H1'        -0.1998   -1.6319    2.6178 H         1 GTP         0.0745
     42 H8         -0.7029   -2.4474   -0.4941 H         1 GTP         0.1522
     43 HN1        -6.6800   -2.3183    2.0594 H         1 GTP         0.3518
     44 HN21       -5.1660   -0.3153    4.5987 H         1 GTP         0.4761
     45 HN22       -6.6415   -1.0545    4.0252 H         1 GTP         0.4761
     46 H46        -3.1256   -0.5638    3.4080 H         1 GTP         0.5030
@<TRIPOS>BOND
     1    1    2 2
     2    1    3 1
     3    1    4 1
     4    1    5 1
     5    4   33 1
     6    5    6 1
     7    6    7 2
     8    6    8 1
     9    6    9 1
    10    9   10 1
    11   10   11 2
    12   10   12 1
    13   10   13 1
    14   13   14 1
    15   14   15 1
    16   14   34 1
    17   14   35 1
    18   15   16 1
    19   15   17 1
    20   15   36 1
    21   16   21 1
    22   17   18 1
    23   17   19 1
    24   17   37 1
    25   18   38 1
    26   19   20 1
    27   19   21 1
    28   19   39 1
    29   20   40 1
    30   21   22 1
    31   21   41 1
    32   22   23 ar
    33   22   32 ar
    34   23   24 ar
    35   23   42 1
    36   24   25 ar
    37   25   26 ar
    38   25   32 ar
    39   26   27 2
    40   26   28 ar
    41   28   29 ar
    42   28   43 1
    43   29   30 1
    44   29   31 ar
    45   30   44 1
    46   30   45 1
    47   31   32 ar
    48   31   46 1
@<TRIPOS>SUBSTRUCTURE
     1 GTP         1 GROUP 0 A     ****
@<TRIPOS>MOLECULE
[[[5-(2-amino-6-oxo-1,3-dihydropurin-2-ylium-9-yl)-3,4-dihydroxy-tetrahydrofuran-2-yl]methoxy-oxido-phosphoryl]oxy-oxido-phosphoryl] hydrogen phosphate
   46    48     1     0     0
SMALL
USER_CHARGES

@<TRIPOS>ATOM
      1 PG         -2.2376    2.1119   -2.9593 P.3       1 GTP         1.5400
      2 O1G        -1.7189    1.3748   -1.7448 O.co2     1 GTP        -0.8909
      3 O2G        -3.7102    2.4224   -3.1099 O.co2     1 GTP        -0.8909
      4 O3G        -1.7343    1.3244   -4.2981 O.3       1 GTP        -0.7980
      5 O3B        -1.3844    3.4903   -3.1485 O.3       1 GTP        -0.7612
      6 PB         -1.3288    4.8235   -2.2077 P.3       1 GTP         1.5847
      7 O1B        -0.2754    5.7602   -2.7559 O.co2     1 GTP        -0.8859
      8 O2B        -2.7401    5.2929   -1.9334 O.co2     1 GTP        -0.8859
      9 O3A        -0.7889    4.1455   -0.8244 O.3       1 GTP        -0.7486
     10 PA         -0.4665    4.8322    0.6228 P.3       1 GTP         1.5001
     11 O1A         0.6860    5.7988    0.4566 O.co2     1 GTP        -0.8487
     12 O2A        -1.7709    5.2708    1.2521 O.co2     1 GTP        -0.8487
     13 O5'         0.0178    3.5131    1.4595 O.3       1 GTP        -0.5474
     14 C5'        -0.8811    2.4285    1.6206 C.3       1 GTP         0.2547
     15 C4'        -0.1994    1.3333    2.4288 C.3       1 GTP         0.0926
     16 O4'        -1.1285    0.2356    2.5840 O.3       1 GTP        -0.3593
     17 C3'         1.0324    0.7610    1.7344 C.3       1 GTP         0.0907
     18 O3'         1.9175    0.2377    2.7247 O.3       1 GTP        -0.5209
     19 C2'         0.4468   -0.3802    0.9263 C.3       1 GTP         0.0305
     20 O2'         1.3993   -1.3703    0.5961 O.3       1 GTP        -0.5978
     21 C1'        -0.6159   -0.9100    1.8769 C.3       1 GTP         0.2339
     22 N9         -1.7127   -1.6108    1.2130 N.pl3     1 GTP        -0.1765
     23 C8         -1.7789   -2.9564    0.9503 C.ar      1 GTP         0.4947
     24 N7         -2.8980   -3.2916    0.3377 N.2       1 GTP        -0.5802
     25 C5         -3.5824   -2.1127    0.2000 C.ar      1 GTP         0.2279
     26 C6         -4.8740   -1.9471   -0.4133 C.ar      1 GTP         0.6513
     27 O6         -5.5366   -2.8529   -0.8978 O.2       1 GTP        -0.5111
     28 N1         -5.3036   -0.5645   -0.3916 N.pl3     1 GTP        -0.4713
     29 C2         -4.5545    0.4997    0.1619 C.ar      1 GTP         0.5256
     30 N2         -5.0561    1.7921    0.1348 N.pl3     1 GTP        -0.8665
     31 N3         -3.2977    0.2393    0.7420 N.pl3     1 GTP        -0.5398
     32 C4         -2.8643   -1.0716    0.7336 C.ar      1 GTP        -0.0275
     33 HOG3       -1.9915    1.6821   -5.1746 H         1 GTP         0.4161
     34 H5'        -1.7771    2.7849    2.1387 H         1 GTP         0.0348
     35 H5''       -1.1654    2.0541    0.6320 H         1 GTP         0.0348
     36 H4'         0.0403    1.7078    3.4343 H         1 GTP         0.1215
     37 H3'         1.5907    1.4859    1.1353 H         1 GTP         0.0576
     38 HO3'        2.6839   -0.1150    2.2479 H         1 GTP         0.3842
     39 H2'        -0.0017    0.0018    0.0005 H         1 GTP         0.0252
     40 HO2'        2.0953   -0.9375    0.0709 H         1 GTP         0.4224
     41 H1'        -0.1998   -1.6319    2.6178 H         1 GTP         0.0745
     42 H8         -0.9852   -3.6367    1.2276 H         1 GTP         0.1522
     43 HN1        -6.2089   -0.3428   -0.8039 H         1 GTP         0.3518
     44 HN21       -4.4981    2.4933    0.5311 H         1 GTP         0.4761
     45 HN22       -5.9352    1.9183   -0.2793 H         1 GTP         0.4761
     46 H46        -2.7541    1.0010    1.1428 H         1 GTP         0.5030
@<TRIPOS>BOND
     1    1    2 2
     2    1    3 1
     3    1    4 1
     4    1    5 1
     5    4   33 1
     6    5    6 1
     7    6    7 2
     8    6    8 1
     9    6    9 1
    10    9   10 1
    11   10   11 2
    12   10   12 1
    13   10   13 1
    14   13   14 1
    15   14   15 1
    16   14   34 1
    17   14   35 1
    18   15   16 1
    19   15   17 1
    20   15   36 1
    21   16   21 1
    22   17   18 1
    23   17   19 1
    24   17   37 1
    25   18   38 1
    26   19   20 1
    27   19   21 1
    28   19   39 1
    29   20   40 1
    30   21   22 1
    31   21   41 1
    32   22   23 ar
    33   22   32 ar
    34   23   24 ar
    35   23   42 1
    36   24   25 ar
    37   25   26 ar
    38   25   32 ar
    39   26   27 2
    40   26   28 ar
    41   28   29 ar
    42   28   43 1
    43   29   30 1
    44   29   31 ar
    45   30   44 1
    46   30   45 1
    47   31   32 ar
    48   31   46 1
@<TRIPOS>SUBSTRUCTURE
     1 GTP         1 GROUP 0 A     ****
@<TRIPOS>MOLECULE
[[[5-(2-amino-6-oxo-1,3-dihydropurin-2-ylium-9-yl)-3,4-dihydroxy-tetrahydrofuran-2-yl]methoxy-oxido-phosphoryl]oxy-oxido-phosphoryl] hydrogen phosphate
   46    48     1     0     0
SMALL
USER_CHARGES

@<TRIPOS>ATOM
      1 PG          1.9327    6.1051    2.8376 P.3       1 GTP         1.5400
      2 O1G         1.7840    4.6017    2.7662 O.co2     1 GTP        -0.8909
      3 O2G         2.3346    6.9052    1.6186 O.co2     1 GTP        -0.8909
      4 O3G         2.9567    6.4678    4.0565 O.3       1 GTP        -0.7980
      5 O3B         0.5678    6.7446    3.4637 O.3       1 GTP        -0.7612
      6 PB         -0.9420    6.7977    2.8447 P.3       1 GTP         1.5847
      7 O1B        -1.8726    7.3789    3.8857 O.co2     1 GTP        -0.8859
      8 O2B        -0.8798    7.3538    1.4395 O.co2     1 GTP        -0.8859
      9 O3A        -1.2210    5.1961    2.6972 O.3       1 GTP        -0.7486
     10 PA         -2.5400    4.4095    2.1393 P.3       1 GTP         1.5001
     11 O1A        -3.7027    4.6909    3.0663 O.co2     1 GTP        -0.8487
     12 O2A        -2.6521    4.6480    0.6493 O.co2     1 GTP        -0.8487
     13 O5'        -2.0401    2.8620    2.3128 O.3       1 GTP        -0.5474
     14 C5'        -0.8811    2.4285    1.6206 C.3       1 GTP         0.2547
     15 C4'        -0.1994    1.3333    2.4288 C.3       1 GTP         0.0926
     16 O4'        -1.1285    0.2356    2.5840 O.3       1 GTP        -0.3593
     17 C3'         1.0324    0.7610    1.7344 C.3       1 GTP         0.0907
     18 O3'         1.9175    0.2377    2.7247 O.3       1 GTP        -0.5209
     19 C2'         0.4468   -0.3802    0.9263 C.3       1 GTP         0.0305
     20 O2'         1.3993   -1.3703    0.5961 O.3       1 GTP        -0.5978
     21 C1'        -0.6159   -0.9100    1.8769 C.3       1 GTP         0.2339
     22 N9         -1.7127   -1.6108    1.2130 N.pl3     1 GTP        -0.1765
     23 C8         -2.8692   -1.0463    0.7355 C.ar      1 GTP         0.4947
     24 N7         -3.6707   -1.9381    0.1856 N.2       1 GTP        -0.5802
     25 C5         -3.0027   -3.1275    0.3134 C.ar      1 GTP         0.2279
     26 C6         -3.4659   -4.4142   -0.1355 C.ar      1 GTP         0.6513
     27 O6         -4.5328   -4.6133   -0.6980 O.2       1 GTP        -0.5111
     28 N1         -2.5102   -5.4606    0.1612 N.pl3     1 GTP        -0.4713
     29 C2         -1.2711   -5.2547    0.8113 C.ar      1 GTP         0.5256
     30 N2         -0.4228   -6.3256    1.0482 N.pl3     1 GTP        -0.8665
     31 N3         -0.9033   -3.9563    1.2146 N.pl3     1 GTP        -0.5398
     32 C4         -1.7979   -2.9400    0.9438 C.ar      1 GTP        -0.0275
     33 HOG3        3.1577    7.4117    4.2323 H         1 GTP         0.4161
     34 H5'        -1.1767    2.0502    0.6368 H         1 GTP         0.0348
     35 H5''       -0.2080    3.2814    1.4876 H         1 GTP         0.0348
     36 H4'         0.0403    1.7078    3.4343 H         1 GTP         0.1215
     37 H3'         1.5907    1.4859    1.1353 H         1 GTP         0.0576
     38 HO3'        2.1521    0.9800    3.3017 H         1 GTP         0.3842
     39 H2'        -0.0017    0.0018    0.0005 H         1 GTP         0.0252
     40 HO2'        2.0953   -0.9375    0.0709 H         1 GTP         0.4224
     41 H1'        -0.1998   -1.6319    2.6178 H         1 GTP         0.0745
     42 H8         -3.0691    0.0134    0.8177 H         1 GTP         0.1522
     43 HN1        -2.7468   -6.4119   -0.1177 H         1 GTP         0.3518
     44 HN21        0.4233   -6.1297    1.5018 H         1 GTP         0.4761
     45 HN22       -0.7261   -7.2071    0.7466 H         1 GTP         0.4761
     46 H46        -0.0124   -3.8015    1.6821 H         1 GTP         0.5030
@<TRIPOS>BOND
     1    1    2 2
     2    1    3 1
     3    1    4 1
     4    1    5 1
     5    4   33 1
     6    5    6 1
     7    6    7 2
     8    6    8 1
     9    6    9 1
    10    9   10 1
    11   10   11 2
    12   10   12 1
    13   10   13 1
    14   13   14 1
    15   14   15 1
    16   14   34 1
    17   14   35 1
    18   15   16 1
    19   15   17 1
    20   15   36 1
    21   16   21 1
    22   17   18 1
    23   17   19 1
    24   17   37 1
    25   18   38 1
    26   19   20 1
    27   19   21 1
    28   19   39 1
    29   20   40 1
    30   21   22 1
    31   21   41 1
    32   22   23 ar
    33   22   32 ar
    34   23   24 ar
    35   23   42 1
    36   24   25 ar
    37   25   26 ar
    38   25   32 ar
    39   26   27 2
    40   26   28 ar
    41   28   29 ar
    42   28   43 1
    43   29   30 1
    44   29   31 ar
    45   30   44 1
    46   30   45 1
    47   31   32 ar
    48   31   46 1
@<TRIPOS>SUBSTRUCTURE
     1 GTP         1 GROUP 0 A     ****
@<TRIPOS>MOLECULE
[[[5-(2-amino-6-oxo-1,3-dihydropurin-2-ylium-9-yl)-3,4-dihydroxy-tetrahydrofuran-2-yl]methoxy-oxido-phosphoryl]oxy-oxido-phosphoryl] hydrogen phosphate
   46    48     1     0     0
SMALL
USER_CHARGES

@<TRIPOS>ATOM
      1 PG         -1.9403    9.3831    1.3204 P.3       1 GTP         1.5400
      2 O1G        -2.3938    9.7223   -0.0820 O.co2     1 GTP        -0.8909
      3 O2G        -2.7333    9.8384    2.5252 O.co2     1 GTP        -0.8909
      4 O3G        -0.3948    9.8784    1.4997 O.3       1 GTP        -0.7980
      5 O3B        -1.6969    7.7727    1.4251 O.3       1 GTP        -0.7612
      6 PB         -2.7700    6.5451    1.3406 P.3       1 GTP         1.5847
      7 O1B        -3.6960    6.6276    2.5336 O.co2     1 GTP        -0.8859
      8 O2B        -3.3041    6.4530   -0.0714 O.co2     1 GTP        -0.8859
      9 O3A        -1.7457    5.2883    1.5313 O.3       1 GTP        -0.7486
     10 PA         -0.4665    4.8322    0.6228 P.3       1 GTP         1.5001
     11 O1A        -0.9631    4.4288   -0.7487 O.co2     1 GTP        -0.8487
     12 O2A         0.6338    5.8580    0.7859 O.co2     1 GTP        -0.8487
     13 O5'         0.0178    3.5131    1.4595 O.3       1 GTP        -0.5474
     14 C5'        -0.8811    2.4285    1.6206 C.3       1 GTP         0.2547
     15 C4'        -0.1994    1.3333    2.4288 C.3       1 GTP         0.0926
     16 O4'        -1.1285    0.2356    2.5840 O.3       1 GTP        -0.3593
     17 C3'         1.0324    0.7610    1.7344 C.3       1 GTP         0.0907
     18 O3'         1.9175    0.2377    2.7247 O.3       1 GTP        -0.5209
     19 C2'         0.4468   -0.3802    0.9263 C.3       1 GTP         0.0305
     20 O2'         1.3993   -1.3703    0.5961 O.3       1 GTP        -0.5978
     21 C1'        -0.6159   -0.9100    1.8769 C.3       1 GTP         0.2339
     22 N9         -1.7127   -1.6108    1.2130 N.pl3     1 GTP        -0.1765
     23 C8         -2.8692   -1.0463    0.7355 C.ar      1 GTP         0.4947
     24 N7         -3.6707   -1.9381    0.1856 N.2       1 GTP        -0.5802
     25 C5         -3.0027   -3.1275    0.3134 C.ar      1 GTP         0.2279
     26 C6         -3.4659   -4.4142   -0.1355 C.ar      1 GTP         0.6513
     27 O6         -4.5328   -4.6133   -0.6980 O.2       1 GTP        -0.5111
     28 N1         -2.5102   -5.4606    0.1612 N.pl3     1 GTP        -0.4713
     29 C2         -1.2711   -5.2547    0.8113 C.ar      1 GTP         0.5256
     30 N2         -0.4228   -6.3256    1.0482 N.pl3     1 GTP        -0.8665
     31 N3         -0.9033   -3.9563    1.2146 N.pl3     1 GTP        -0.5398
     32 C4         -1.7979   -2.9400    0.9438 C.ar      1 GTP        -0.0275
     33 HOG3        0.0464    9.7283    2.3629 H         1 GTP         0.4161
     34 H5'        -1.7771    2.7849    2.1387 H         1 GTP         0.0348
     35 H5''       -1.1654    2.0541    0.6320 H         1 GTP         0.0348
     36 H4'         0.0403    1.7078    3.4343 H         1 GTP         0.1215
     37 H3'         1.5907    1.4859    1.1353 H         1 GTP         0.0576
     38 HO3'        2.6839   -0.1150    2.2479 H         1 GTP         0.3842
     39 H2'        -0.0017    0.0018    0.0005 H         1 GTP         0.0252
     40 HO2'        2.0953   -0.9375    0.0709 H         1 GTP         0.4224
     41 H1'        -0.1998   -1.6319    2.6178 H         1 GTP         0.0745
     42 H8         -3.0691    0.0134    0.8177 H         1 GTP         0.1522
     43 HN1        -2.7468   -6.4119   -0.1177 H         1 GTP         0.3518
     44 HN21        0.4233   -6.1297    1.5018 H         1 GTP         0.4761
     45 HN22       -0.7261   -7.2071    0.7466 H         1 GTP         0.4761
     46 H46        -0.0124   -3.8015    1.6821 H         1 GTP         0.5030
@<TRIPOS>BOND
     1    1    2 2
     2    1    3 1
     3    1    4 1
     4    1    5 1
     5    4   33 1
     6    5    6 1
     7    6    7 2
     8    6    8 1
     9    6    9 1
    10    9   10 1
    11   10   11 2
    12   10   12 1
    13   10   13 1
    14   13   14 1
    15   14   15 1
    16   14   34 1
    17   14   35 1
    18   15   16 1
    19   15   17 1
    20   15   36 1
    21   16   21 1
    22   17   18 1
    23   17   19 1
    24   17   37 1
    25   18   38 1
    26   19   20 1
    27   19   21 1
    28   19   39 1
    29   20   40 1
    30   21   22 1
    31   21   41 1
    32   22   23 ar
    33   22   32 ar
    34   23   24 ar
    35   23   42 1
    36   24   25 ar
    37   25   26 ar
    38   25   32 ar
    39   26   27 2
    40   26   28 ar
    41   28   29 ar
    42   28   43 1
    43   29   30 1
    44   29   31 ar
    45   30   44 1
    46   30   45 1
    47   31   32 ar
    48   31   46 1
@<TRIPOS>SUBSTRUCTURE
     1 GTP         1 GROUP 0 A     ****
@<TRIPOS>MOLECULE
[[[5-(2-amino-6-oxo-1,3-dihydropurin-2-ylium-9-yl)-3,4-dihydroxy-tetrahydrofuran-2-yl]methoxy-oxido-phosphoryl]oxy-oxido-phosphoryl] hydrogen phosphate
   46    48     1     0     0
SMALL
USER_CHARGES

@<TRIPOS>ATOM
      1 PG          0.1447    8.7818    1.0096 P.3       1 GTP         1.5400
      2 O1G         1.5410    8.8193    1.5896 O.co2     1 GTP        -0.8909
      3 O2G        -0.1074    9.1555   -0.4342 O.co2     1 GTP        -0.8909
      4 O3G        -0.8346    9.6818    1.9566 O.3       1 GTP        -0.7980
      5 O3B        -0.5115    7.3158    1.2989 O.3       1 GTP        -0.7612
      6 PB         -2.0305    6.7790    1.0340 P.3       1 GTP         1.5847
      7 O1B        -2.9776    7.5399    1.9348 O.co2     1 GTP        -0.8859
      8 O2B        -2.2651    6.6783   -0.4568 O.co2     1 GTP        -0.8859
      9 O3A        -1.8672    5.2499    1.5817 O.3       1 GTP        -0.7486
     10 PA         -2.9646    4.0418    1.6587 P.3       1 GTP         1.5001
     11 O1A        -4.0615    4.4416    2.6216 O.co2     1 GTP        -0.8487
     12 O2A        -3.2861    3.5890    0.2511 O.co2     1 GTP        -0.8487
     13 O5'        -2.0401    2.8620    2.3128 O.3       1 GTP        -0.5474
     14 C5'        -0.8811    2.4285    1.6206 C.3       1 GTP         0.2547
     15 C4'        -0.1994    1.3333    2.4288 C.3       1 GTP         0.0926
     16 O4'        -1.1285    0.2356    2.5840 O.3       1 GTP        -0.3593
     17 C3'         1.0324    0.7610    1.7344 C.3       1 GTP         0.0907
     18 O3'         1.9175    0.2377    2.7247 O.3       1 GTP        -0.5209
     19 C2'         0.4468   -0.3802    0.9263 C.3       1 GTP         0.0305
     20 O2'         1.3993   -1.3703    0.5961 O.3       1 GTP        -0.5978
     21 C1'        -0.6159   -0.9100    1.8769 C.3       1 GTP         0.2339
     22 N9         -1.7127   -1.6108    1.2130 N.pl3     1 GTP        -0.1765
     23 C8         -2.8692   -1.0463    0.7355 C.ar      1 GTP         0.4947
     24 N7         -3.6707   -1.9381    0.1856 N.2       1 GTP        -0.5802
     25 C5         -3.0027   -3.1275    0.3134 C.ar      1 GTP         0.2279
     26 C6         -3.4659   -4.4142   -0.1355 C.ar      1 GTP         0.6513
     27 O6         -4.5328   -4.6133   -0.6980 O.2       1 GTP        -0.5111
     28 N1         -2.5102   -5.4606    0.1612 N.pl3     1 GTP        -0.4713
     29 C2         -1.2711   -5.2547    0.8113 C.ar      1 GTP         0.5256
     30 N2         -0.4228   -6.3256    1.0482 N.pl3     1 GTP        -0.8665
     31 N3         -0.9033   -3.9563    1.2146 N.pl3     1 GTP        -0.5398
     32 C4         -1.7979   -2.9400    0.9438 C.ar      1 GTP        -0.0275
     33 HOG3       -1.7813    9.7573    1.7109 H         1 GTP         0.4161
     34 H5'        -1.1767    2.0502    0.6368 H         1 GTP         0.0348
     35 H5''       -0.2080    3.2814    1.4876 H         1 GTP         0.0348
     36 H4'         0.0403    1.7078    3.4343 H         1 GTP         0.1215
     37 H3'         1.5907    1.4859    1.1353 H         1 GTP         0.0576
     38 HO3'        2.6839   -0.1150    2.2479 H         1 GTP         0.3842
     39 H2'        -0.0017    0.0018    0.0005 H         1 GTP         0.0252
     40 HO2'        2.0953   -0.9375    0.0709 H         1 GTP         0.4224
     41 H1'        -0.1998   -1.6319    2.6178 H         1 GTP         0.0745
     42 H8         -3.0691    0.0134    0.8177 H         1 GTP         0.1522
     43 HN1        -2.7468   -6.4119   -0.1177 H         1 GTP         0.3518
     44 HN21        0.4233   -6.1297    1.5018 H         1 GTP         0.4761
     45 HN22       -0.7261   -7.2071    0.7466 H         1 GTP         0.4761
     46 H46        -0.0124   -3.8015    1.6821 H         1 GTP         0.5030
@<TRIPOS>BOND
     1    1    2 2
     2    1    3 1
     3    1    4 1
     4    1    5 1
     5    4   33 1
     6    5    6 1
     7    6    7 2
     8    6    8 1
     9    6    9 1
    10    9   10 1
    11   10   11 2
    12   10   12 1
    13   10   13 1
    14   13   14 1
    15   14   15 1
    16   14   34 1
    17   14   35 1
    18   15   16 1
    19   15   17 1
    20   15   36 1
    21   16   21 1
    22   17   18 1
    23   17   19 1
    24   17   37 1
    25   18   38 1
    26   19   20 1
    27   19   21 1
    28   19   39 1
    29   20   40 1
    30   21   22 1
    31   21   41 1
    32   22   23 ar
    33   22   32 ar
    34   23   24 ar
    35   23   42 1
    36   24   25 ar
    37   25   26 ar
    38   25   32 ar
    39   26   27 2
    40   26   28 ar
    41   28   29 ar
    42   28   43 1
    43   29   30 1
    44   29   31 ar
    45   30   44 1
    46   30   45 1
    47   31   32 ar
    48   31   46 1
@<TRIPOS>SUBSTRUCTURE
     1 GTP         1 GROUP 0 A     ****
@<TRIPOS>MOLECULE
[[[5-(2-amino-6-oxo-1,3-dihydropurin-2-ylium-9-yl)-3,4-dihydroxy-tetrahydrofuran-2-yl]methoxy-oxido-phosphoryl]oxy-oxido-phosphoryl] hydrogen phosphate
   46    48     1     0     0
SMALL
USER_CHARGES

@<TRIPOS>ATOM
      1 PG         -3.7254    6.3170   -2.5383 P.3       1 GTP         1.5400
      2 O1G        -2.7193    7.4372   -2.3962 O.co2     1 GTP        -0.8909
      3 O2G        -3.9191    5.6093   -3.8609 O.co2     1 GTP        -0.8909
      4 O3G        -5.1775    6.8553   -2.0209 O.3       1 GTP        -0.7980
      5 O3B        -3.4477    5.2032   -1.3781 O.3       1 GTP        -0.7612
      6 PB         -4.3123    3.8795   -0.9705 P.3       1 GTP         1.5847
      7 O1B        -5.6509    4.3239   -0.4245 O.co2     1 GTP        -0.8859
      8 O2B        -4.2100    2.8614   -2.0843 O.co2     1 GTP        -0.8859
      9 O3A        -3.3820    3.3250    0.2509 O.3       1 GTP        -0.7486
     10 PA         -2.9646    4.0418    1.6587 P.3       1 GTP         1.5001
     11 O1A        -2.1198    5.2596    1.3528 O.co2     1 GTP        -0.8487
     12 O2A        -4.1947    4.1429    2.5341 O.co2     1 GTP        -0.8487
     13 O5'        -2.0401    2.8620    2.3128 O.3       1 GTP        -0.5474
     14 C5'        -0.8811    2.4285    1.6206 C.3       1 GTP         0.2547
     15 C4'        -0.1994    1.3333    2.4288 C.3       1 GTP         0.0926
     16 O4'        -1.1285    0.2356    2.5840 O.3       1 GTP        -0.3593
     17 C3'         1.0324    0.7610    1.7344 C.3       1 GTP         0.0907
     18 O3'         1.9175    0.2377    2.7247 O.3       1 GTP        -0.5209
     19 C2'         0.4468   -0.3802    0.9263 C.3       1 GTP         0.0305
     20 O2'         1.3993   -1.3703    0.5961 O.3       1 GTP        -0.5978
     21 C1'        -0.6159   -0.9100    1.8769 C.3       1 GTP         0.2339
     22 N9         -1.7127   -1.6108    1.2130 N.pl3     1 GTP        -0.1765
     23 C8         -2.5534   -1.0907    0.2607 C.ar      1 GTP         0.4947
     24 N7         -3.4469   -1.9695   -0.1508 N.2       1 GTP        -0.5802
     25 C5         -3.1705   -3.1041    0.5657 C.ar      1 GTP         0.2279
     26 C6         -3.8738   -4.3568    0.4777 C.ar      1 GTP         0.6513
     27 O6         -4.8240   -4.5720   -0.2607 O.2       1 GTP        -0.5111
     28 N1         -3.3198   -5.3462    1.3780 N.pl3     1 GTP        -0.4713
     29 C2         -2.2226   -5.1203    2.2413 C.ar      1 GTP         0.5256
     30 N2         -1.7649   -6.1367    3.0659 N.pl3     1 GTP        -0.8665
     31 N3         -1.5969   -3.8585    2.2574 N.pl3     1 GTP        -0.5398
     32 C4         -2.1068   -2.8965    1.4082 C.ar      1 GTP        -0.0275
     33 HOG3       -5.9410    6.2401   -2.0500 H         1 GTP         0.4161
     34 H5'        -1.1767    2.0502    0.6368 H         1 GTP         0.0348
     35 H5''       -0.2080    3.2814    1.4876 H         1 GTP         0.0348
     36 H4'         0.0403    1.7078    3.4343 H         1 GTP         0.1215
     37 H3'         1.5907    1.4859    1.1353 H         1 GTP         0.0576
     38 HO3'        2.6839   -0.1150    2.2479 H         1 GTP         0.3842
     39 H2'        -0.0017    0.0018    0.0005 H         1 GTP         0.0252
     40 HO2'        2.0953   -0.9375    0.0709 H         1 GTP         0.4224
     41 H1'        -0.1998   -1.6319    2.6178 H         1 GTP         0.0745
     42 H8         -2.4657   -0.0713   -0.0897 H         1 GTP         0.1522
     43 HN1        -3.7505   -6.2699    1.3904 H         1 GTP         0.3518
     44 HN21       -1.0023   -5.9289    3.6451 H         1 GTP         0.4761
     45 HN22       -2.2347   -6.9951    3.0150 H         1 GTP         0.4761
     46 H46        -0.8062   -3.6900    2.8760 H         1 GTP         0.5030
@<TRIPOS>BOND
     1    1    2 2
     2    1    3 1
     3    1    4 1
     4    1    5 1
     5    4   33 1
     6    5    6 1
     7    6    7 2
     8    6    8 1
     9    6    9 1
    10    9   10 1
    11   10   11 2
    12   10   12 1
    13   10   13 1
    14   13   14 1
    15   14   15 1
    16   14   34 1
    17   14   35 1
    18   15   16 1
    19   15   17 1
    20   15   36 1
    21   16   21 1
    22   17   18 1
    23   17   19 1
    24   17   37 1
    25   18   38 1
    26   19   20 1
    27   19   21 1
    28   19   39 1
    29   20   40 1
    30   21   22 1
    31   21   41 1
    32   22   23 ar
    33   22   32 ar
    34   23   24 ar
    35   23   42 1
    36   24   25 ar
    37   25   26 ar
    38   25   32 ar
    39   26   27 2
    40   26   28 ar
    41   28   29 ar
    42   28   43 1
    43   29   30 1
    44   29   31 ar
    45   30   44 1
    46   30   45 1
    47   31   32 ar
    48   31   46 1
@<TRIPOS>SUBSTRUCTURE
     1 GTP         1 GROUP 0 A     ****
@<TRIPOS>MOLECULE
[[[5-(2-amino-6-oxo-1,3-dihydropurin-2-ylium-9-yl)-3,4-dihydroxy-tetrahydrofuran-2-yl]methoxy-oxido-phosphoryl]oxy-oxido-phosphoryl] hydrogen phosphate
   46    48     1     0     0
SMALL
USER_CHARGES

@<TRIPOS>ATOM
      1 PG          2.1316    5.2022   -4.1074 P.3       1 GTP         1.5400
      2 O1G         2.8348    4.1224   -4.8992 O.co2     1 GTP        -0.8909
      3 O2G         1.1195    6.1139   -4.7648 O.co2     1 GTP        -0.8909
      4 O3G         3.2605    6.1252   -3.3728 O.3       1 GTP        -0.7980
      5 O3B         1.4575    4.5337   -2.7798 O.3       1 GTP        -0.7612
      6 PB          0.2279    3.4669   -2.6554 P.3       1 GTP         1.5847
      7 O1B        -1.0412    4.1311   -3.1410 O.co2     1 GTP        -0.8859
      8 O2B         0.6788    2.1290   -3.1979 O.co2     1 GTP        -0.8859
      9 O3A         0.1765    3.3147   -1.0309 O.3       1 GTP        -0.7486
     10 PA         -0.0889    4.4444    0.1193 P.3       1 GTP         1.5001
     11 O1A         1.0444    5.4470    0.0872 O.co2     1 GTP        -0.8487
     12 O2A        -1.5319    4.8920    0.0350 O.co2     1 GTP        -0.8487
     13 O5'         0.0178    3.5131    1.4595 O.3       1 GTP        -0.5474
     14 C5'        -0.8811    2.4285    1.6206 C.3       1 GTP         0.2547
     15 C4'        -0.1994    1.3333    2.4288 C.3       1 GTP         0.0926
     16 O4'        -1.1285    0.2356    2.5840 O.3       1 GTP        -0.3593
     17 C3'         1.0324    0.7610    1.7344 C.3       1 GTP         0.0907
     18 O3'         1.9175    0.2377    2.7247 O.3       1 GTP        -0.5209
     19 C2'         0.4468   -0.3802    0.9263 C.3       1 GTP         0.0305
     20 O2'         1.3993   -1.3703    0.5961 O.3       1 GTP        -0.5978
     21 C1'        -0.6159   -0.9100    1.8769 C.3       1 GTP         0.2339
     22 N9         -1.7127   -1.6108    1.2130 N.pl3     1 GTP        -0.1765
     23 C8         -2.8692   -1.0463    0.7355 C.ar      1 GTP         0.4947
     24 N7         -3.6707   -1.9381    0.1856 N.2       1 GTP        -0.5802
     25 C5         -3.0027   -3.1275    0.3134 C.ar      1 GTP         0.2279
     26 C6         -3.4659   -4.4142   -0.1355 C.ar      1 GTP         0.6513
     27 O6         -4.5328   -4.6133   -0.6980 O.2       1 GTP        -0.5111
     28 N1         -2.5102   -5.4606    0.1612 N.pl3     1 GTP        -0.4713
     29 C2         -1.2711   -5.2547    0.8113 C.ar      1 GTP         0.5256
     30 N2         -0.4228   -6.3256    1.0482 N.pl3     1 GTP        -0.8665
     31 N3         -0.9033   -3.9563    1.2146 N.pl3     1 GTP        -0.5398
     32 C4         -1.7979   -2.9400    0.9438 C.ar      1 GTP        -0.0275
     33 HOG3        2.9604    6.8753   -2.8164 H         1 GTP         0.4161
     34 H5'        -1.7771    2.7849    2.1387 H         1 GTP         0.0348
     35 H5''       -1.1654    2.0541    0.6320 H         1 GTP         0.0348
     36 H4'         0.0403    1.7078    3.4343 H         1 GTP         0.1215
     37 H3'         1.5907    1.4859    1.1353 H         1 GTP         0.0576
     38 HO3'        2.6839   -0.1150    2.2479 H         1 GTP         0.3842
     39 H2'        -0.0017    0.0018    0.0005 H         1 GTP         0.0252
     40 HO2'        2.0953   -0.9375    0.0709 H         1 GTP         0.4224
     41 H1'        -0.1998   -1.6319    2.6178 H         1 GTP         0.0745
     42 H8         -3.0691    0.0134    0.8177 H         1 GTP         0.1522
     43 HN1        -2.7468   -6.4119   -0.1177 H         1 GTP         0.3518
     44 HN21        0.4233   -6.1297    1.5018 H         1 GTP         0.4761
     45 HN22       -0.7261   -7.2071    0.7466 H         1 GTP         0.4761
     46 H46        -0.0124   -3.8015    1.6821 H         1 GTP         0.5030
@<TRIPOS>BOND
     1    1    2 2
     2    1    3 1
     3    1    4 1
     4    1    5 1
     5    4   33 1
     6    5    6 1
     7    6    7 2
     8    6    8 1
     9    6    9 1
    10    9   10 1
    11   10   11 2
    12   10   12 1
    13   10   13 1
    14   13   14 1
    15   14   15 1
    16   14   34 1
    17   14   35 1
    18   15   16 1
    19   15   17 1
    20   15   36 1
    21   16   21 1
    22   17   18 1
    23   17   19 1
    24   17   37 1
    25   18   38 1
    26   19   20 1
    27   19   21 1
    28   19   39 1
    29   20   40 1
    30   21   22 1
    31   21   41 1
    32   22   23 ar
    33   22   32 ar
    34   23   24 ar
    35   23   42 1
    36   24   25 ar
    37   25   26 ar
    38   25   32 ar
    39   26   27 2
    40   26   28 ar
    41   28   29 ar
    42   28   43 1
    43   29   30 1
    44   29   31 ar
    45   30   44 1
    46   30   45 1
    47   31   32 ar
    48   31   46 1
@<TRIPOS>SUBSTRUCTURE
     1 GTP         1 GROUP 0 A     ****
@<TRIPOS>MOLECULE
[[[5-(2-amino-6-oxo-1,3-dihydropurin-2-ylium-9-yl)-3,4-dihydroxy-tetrahydrofuran-2-yl]methoxy-oxido-phosphoryl]oxy-oxido-phosphoryl] hydrogen phosphate
   46    48     1     0     0
SMALL
USER_CHARGES

@<TRIPOS>ATOM
      1 PG         -7.7194    2.0854   -0.0225 P.3       1 GTP         1.5400
      2 O1G        -8.0242    3.2202   -0.9747 O.co2     1 GTP        -0.8909
      3 O2G        -8.0990    0.6615   -0.3632 O.co2     1 GTP        -0.8909
      4 O3G        -8.3456    2.4531    1.4400 O.3       1 GTP        -0.7980
      5 O3B        -6.1355    2.1313    0.3689 O.3       1 GTP        -0.7612
      6 PB         -4.8201    1.8698   -0.5622 P.3       1 GTP         1.5847
      7 O1B        -4.8170    0.4225   -1.0014 O.co2     1 GTP        -0.8859
      8 O2B        -4.6885    2.9999   -1.5587 O.co2     1 GTP        -0.8859
      9 O3A        -3.6558    2.1022    0.5582 O.3       1 GTP        -0.7486
     10 PA         -3.3161    3.4234    1.4576 P.3       1 GTP         1.5001
     11 O1A        -2.8773    4.5400    0.5352 O.co2     1 GTP        -0.8487
     12 O2A        -4.4325    3.6284    2.4582 O.co2     1 GTP        -0.8487
     13 O5'        -2.0401    2.8620    2.3128 O.3       1 GTP        -0.5474
     14 C5'        -0.8811    2.4285    1.6206 C.3       1 GTP         0.2547
     15 C4'        -0.1994    1.3333    2.4288 C.3       1 GTP         0.0926
     16 O4'        -1.1285    0.2356    2.5840 O.3       1 GTP        -0.3593
     17 C3'         1.0324    0.7610    1.7344 C.3       1 GTP         0.0907
     18 O3'         1.9175    0.2377    2.7247 O.3       1 GTP        -0.5209
     19 C2'         0.4468   -0.3802    0.9263 C.3       1 GTP         0.0305
     20 O2'         1.3993   -1.3703    0.5961 O.3       1 GTP        -0.5978
     21 C1'        -0.6159   -0.9100    1.8769 C.3       1 GTP         0.2339
     22 N9         -1.7127   -1.6108    1.2130 N.pl3     1 GTP        -0.1765
     23 C8         -3.0389   -1.2578    1.2391 C.ar      1 GTP         0.4947
     24 N7         -3.7909   -2.0880    0.5425 N.2       1 GTP        -0.5802
     25 C5         -2.9127   -3.0150    0.0458 C.ar      1 GTP         0.2279
     26 C6         -3.2467   -4.1411   -0.7860 C.ar      1 GTP         0.6513
     27 O6         -4.3761   -4.4189   -1.1621 O.2       1 GTP        -0.5111
     28 N1         -2.0748   -4.9191   -1.1296 N.pl3     1 GTP        -0.4713
     29 C2         -0.7595   -4.6181   -0.7058 C.ar      1 GTP         0.5256
     30 N2          0.2985   -5.4268   -1.0920 N.pl3     1 GTP        -0.8665
     31 N3         -0.5304   -3.4919    0.1084 N.pl3     1 GTP        -0.5398
     32 C4         -1.6318   -2.7332    0.4512 C.ar      1 GTP        -0.0275
     33 HOG3       -8.2304    1.8104    2.1721 H         1 GTP         0.4161
     34 H5'        -1.1767    2.0502    0.6368 H         1 GTP         0.0348
     35 H5''       -0.2080    3.2814    1.4876 H         1 GTP         0.0348
     36 H4'         0.0403    1.7078    3.4343 H         1 GTP         0.1215
     37 H3'         1.5907    1.4859    1.1353 H         1 GTP         0.0576
     38 HO3'        2.6839   -0.1150    2.2479 H         1 GTP         0.3842
     39 H2'        -0.0017    0.0018    0.0005 H         1 GTP         0.0252
     40 HO2'        2.0953   -0.9375    0.0709 H         1 GTP         0.4224
     41 H1'        -0.1998   -1.6319    2.6178 H         1 GTP         0.0745
     42 H8         -3.3933   -0.3909    1.7800 H         1 GTP         0.1522
     43 HN1        -2.2071   -5.7408   -1.7178 H         1 GTP         0.3518
     44 HN21        1.1896   -5.1751   -0.7715 H         1 GTP         0.4761
     45 HN22        0.0846   -6.1966   -1.6593 H         1 GTP         0.4761
     46 H46         0.4142   -3.2695    0.4160 H         1 GTP         0.5030
@<TRIPOS>BOND
     1    1    2 2
     2    1    3 1
     3    1    4 1
     4    1    5 1
     5    4   33 1
     6    5    6 1
     7    6    7 2
     8    6    8 1
     9    6    9 1
    10    9   10 1
    11   10   11 2
    12   10   12 1
    13   10   13 1
    14   13   14 1
    15   14   15 1
    16   14   34 1
    17   14   35 1
    18   15   16 1
    19   15   17 1
    20   15   36 1
    21   16   21 1
    22   17   18 1
    23   17   19 1
    24   17   37 1
    25   18   38 1
    26   19   20 1
    27   19   21 1
    28   19   39 1
    29   20   40 1
    30   21   22 1
    31   21   41 1
    32   22   23 ar
    33   22   32 ar
    34   23   24 ar
    35   23   42 1
    36   24   25 ar
    37   25   26 ar
    38   25   32 ar
    39   26   27 2
    40   26   28 ar
    41   28   29 ar
    42   28   43 1
    43   29   30 1
    44   29   31 ar
    45   30   44 1
    46   30   45 1
    47   31   32 ar
    48   31   46 1
@<TRIPOS>SUBSTRUCTURE
     1 GTP         1 GROUP 0 A     ****
@<TRIPOS>MOLECULE
[[[5-(2-amino-6-oxo-1,3-dihydropurin-2-ylium-9-yl)-3,4-dihydroxy-tetrahydrofuran-2-yl]methoxy-oxido-phosphoryl]oxy-oxido-phosphoryl] hydrogen phosphate
   46    48     1     0     0
SMALL
USER_CHARGES

@<TRIPOS>ATOM
      1 PG          0.9664    8.3113   -0.3211 P.3       1 GTP         1.5400
      2 O1G         0.6674    8.3272   -1.8035 O.co2     1 GTP        -0.8909
      3 O2G         0.7571    9.5458    0.5274 O.co2     1 GTP        -0.8909
      4 O3G         2.4983    7.7885   -0.1065 O.3       1 GTP        -0.7980
      5 O3B         0.1794    7.0574    0.3661 O.3       1 GTP        -0.7612
      6 PB         -1.4223    6.8072    0.5592 P.3       1 GTP         1.5847
      7 O1B        -1.9658    7.8535    1.5065 O.co2     1 GTP        -0.8859
      8 O2B        -2.0501    6.5625   -0.7949 O.co2     1 GTP        -0.8859
      9 O3A        -1.3723    5.3610    1.3148 O.3       1 GTP        -0.7486
     10 PA         -2.5926    4.4187    1.8556 P.3       1 GTP         1.5001
     11 O1A        -3.3211    5.1526    2.9606 O.co2     1 GTP        -0.8487
     12 O2A        -3.3385    3.8605    0.6632 O.co2     1 GTP        -0.8487
     13 O5'        -1.7336    3.1724    2.4750 O.3       1 GTP        -0.5474
     14 C5'        -0.8811    2.4285    1.6206 C.3       1 GTP         0.2547
     15 C4'        -0.1994    1.3333    2.4288 C.3       1 GTP         0.0926
     16 O4'        -1.1285    0.2356    2.5840 O.3       1 GTP        -0.3593
     17 C3'         1.0324    0.7610    1.7344 C.3       1 GTP         0.0907
     18 O3'         1.9175    0.2377    2.7247 O.3       1 GTP        -0.5209
     19 C2'         0.4468   -0.3802    0.9263 C.3       1 GTP         0.0305
     20 O2'         1.3993   -1.3703    0.5961 O.3       1 GTP        -0.5978
     21 C1'        -0.6159   -0.9100    1.8769 C.3       1 GTP         0.2339
     22 N9         -1.7127   -1.6108    1.2130 N.pl3     1 GTP        -0.1765
     23 C8         -2.8692   -1.0463    0.7355 C.ar      1 GTP         0.4947
     24 N7         -3.6707   -1.9381    0.1856 N.2       1 GTP        -0.5802
     25 C5         -3.0027   -3.1275    0.3134 C.ar      1 GTP         0.2279
     26 C6         -3.4659   -4.4142   -0.1355 C.ar      1 GTP         0.6513
     27 O6         -4.5328   -4.6133   -0.6980 O.2       1 GTP        -0.5111
     28 N1         -2.5102   -5.4606    0.1612 N.pl3     1 GTP        -0.4713
     29 C2         -1.2711   -5.2547    0.8113 C.ar      1 GTP         0.5256
     30 N2         -0.4228   -6.3256    1.0482 N.pl3     1 GTP        -0.8665
     31 N3         -0.9033   -3.9563    1.2146 N.pl3     1 GTP        -0.5398
     32 C4         -1.7979   -2.9400    0.9438 C.ar      1 GTP        -0.0275
     33 HOG3        2.8451    7.7220    0.8087 H         1 GTP         0.4161
     34 H5'        -1.4800    1.9927    0.8146 H         1 GTP         0.0348
     35 H5''       -0.1367    3.1040    1.1872 H         1 GTP         0.0348
     36 H4'         0.0403    1.7078    3.4343 H         1 GTP         0.1215
     37 H3'         1.5907    1.4859    1.1353 H         1 GTP         0.0576
     38 HO3'        2.6839   -0.1150    2.2479 H         1 GTP         0.3842
     39 H2'        -0.0017    0.0018    0.0005 H         1 GTP         0.0252
     40 HO2'        2.0953   -0.9375    0.0709 H         1 GTP         0.4224
     41 H1'        -0.1998   -1.6319    2.6178 H         1 GTP         0.0745
     42 H8         -3.0691    0.0134    0.8177 H         1 GTP         0.1522
     43 HN1        -2.7468   -6.4119   -0.1177 H         1 GTP         0.3518
     44 HN21        0.4233   -6.1297    1.5018 H         1 GTP         0.4761
     45 HN22       -0.7261   -7.2071    0.7466 H         1 GTP         0.4761
     46 H46        -0.0124   -3.8015    1.6821 H         1 GTP         0.5030
@<TRIPOS>BOND
     1    1    2 2
     2    1    3 1
     3    1    4 1
     4    1    5 1
     5    4   33 1
     6    5    6 1
     7    6    7 2
     8    6    8 1
     9    6    9 1
    10    9   10 1
    11   10   11 2
    12   10   12 1
    13   10   13 1
    14   13   14 1
    15   14   15 1
    16   14   34 1
    17   14   35 1
    18   15   16 1
    19   15   17 1
    20   15   36 1
    21   16   21 1
    22   17   18 1
    23   17   19 1
    24   17   37 1
    25   18   38 1
    26   19   20 1
    27   19   21 1
    28   19   39 1
    29   20   40 1
    30   21   22 1
    31   21   41 1
    32   22   23 ar
    33   22   32 ar
    34   23   24 ar
    35   23   42 1
    36   24   25 ar
    37   25   26 ar
    38   25   32 ar
    39   26   27 2
    40   26   28 ar
    41   28   29 ar
    42   28   43 1
    43   29   30 1
    44   29   31 ar
    45   30   44 1
    46   30   45 1
    47   31   32 ar
    48   31   46 1
@<TRIPOS>SUBSTRUCTURE
     1 GTP         1 GROUP 0 A     ****
@<TRIPOS>MOLECULE
[[[5-(2-amino-6-oxo-1,3-dihydropurin-2-ylium-9-yl)-3,4-dihydroxy-tetrahydrofuran-2-yl]methoxy-oxido-phosphoryl]oxy-oxido-phosphoryl] hydrogen phosphate
   46    48     1     0     0
SMALL
USER_CHARGES

@<TRIPOS>ATOM
      1 PG         -2.0236    4.4335   -4.3108 P.3       1 GTP         1.5400
      2 O1G        -1.3471    5.6571   -4.8877 O.co2     1 GTP        -0.8909
      3 O2G        -2.2167    3.1864   -5.1447 O.co2     1 GTP        -0.8909
      4 O3G        -3.4715    4.8797   -3.7024 O.3       1 GTP        -0.7980
      5 O3B        -1.2840    4.0265   -2.9140 O.3       1 GTP        -0.7612
      6 PB          0.2279    3.4669   -2.6554 P.3       1 GTP         1.5847
      7 O1B         0.3530    2.0986   -3.2874 O.co2     1 GTP        -0.8859
      8 O2B         1.2195    4.5698   -2.9520 O.co2     1 GTP        -0.8859
      9 O3A         0.1765    3.3147   -1.0309 O.3       1 GTP        -0.7486
     10 PA         -0.0889    4.4444    0.1193 P.3       1 GTP         1.5001
     11 O1A         1.0444    5.4470    0.0872 O.co2     1 GTP        -0.8487
     12 O2A        -1.5319    4.8920    0.0350 O.co2     1 GTP        -0.8487
     13 O5'         0.0178    3.5131    1.4595 O.3       1 GTP        -0.5474
     14 C5'        -0.8811    2.4285    1.6206 C.3       1 GTP         0.2547
     15 C4'        -0.1994    1.3333    2.4288 C.3       1 GTP         0.0926
     16 O4'        -1.1285    0.2356    2.5840 O.3       1 GTP        -0.3593
     17 C3'         1.0324    0.7610    1.7344 C.3       1 GTP         0.0907
     18 O3'         1.9175    0.2377    2.7247 O.3       1 GTP        -0.5209
     19 C2'         0.4468   -0.3802    0.9263 C.3       1 GTP         0.0305
     20 O2'         1.3993   -1.3703    0.5961 O.3       1 GTP        -0.5978
     21 C1'        -0.6159   -0.9100    1.8769 C.3       1 GTP         0.2339
     22 N9         -1.7127   -1.6108    1.2130 N.pl3     1 GTP        -0.1765
     23 C8         -2.8692   -1.0463    0.7355 C.ar      1 GTP         0.4947
     24 N7         -3.6707   -1.9381    0.1856 N.2       1 GTP        -0.5802
     25 C5         -3.0027   -3.1275    0.3134 C.ar      1 GTP         0.2279
     26 C6         -3.4659   -4.4142   -0.1355 C.ar      1 GTP         0.6513
     27 O6         -4.5328   -4.6133   -0.6980 O.2       1 GTP        -0.5111
     28 N1         -2.5102   -5.4606    0.1612 N.pl3     1 GTP        -0.4713
     29 C2         -1.2711   -5.2547    0.8113 C.ar      1 GTP         0.5256
     30 N2         -0.4228   -6.3256    1.0482 N.pl3     1 GTP        -0.8665
     31 N3         -0.9033   -3.9563    1.2146 N.pl3     1 GTP        -0.5398
     32 C4         -1.7979   -2.9400    0.9438 C.ar      1 GTP        -0.0275
     33 HOG3       -4.0362    4.1922   -3.2891 H         1 GTP         0.4161
     34 H5'        -1.7771    2.7849    2.1387 H         1 GTP         0.0348
     35 H5''       -1.1654    2.0541    0.6320 H         1 GTP         0.0348
     36 H4'         0.0403    1.7078    3.4343 H         1 GTP         0.1215
     37 H3'         1.5907    1.4859    1.1353 H         1 GTP         0.0576
     38 HO3'        2.6839   -0.1150    2.2479 H         1 GTP         0.3842
     39 H2'        -0.0017    0.0018    0.0005 H         1 GTP         0.0252
     40 HO2'        2.0953   -0.9375    0.0709 H         1 GTP         0.4224
     41 H1'        -0.1998   -1.6319    2.6178 H         1 GTP         0.0745
     42 H8         -3.0691    0.0134    0.8177 H         1 GTP         0.1522
     43 HN1        -2.7468   -6.4119   -0.1177 H         1 GTP         0.3518
     44 HN21        0.4233   -6.1297    1.5018 H         1 GTP         0.4761
     45 HN22       -0.7261   -7.2071    0.7466 H         1 GTP         0.4761
     46 H46        -0.0124   -3.8015    1.6821 H         1 GTP         0.5030
@<TRIPOS>BOND
     1    1    2 2
     2    1    3 1
     3    1    4 1
     4    1    5 1
     5    4   33 1
     6    5    6 1
     7    6    7 2
     8    6    8 1
     9    6    9 1
    10    9   10 1
    11   10   11 2
    12   10   12 1
    13   10   13 1
    14   13   14 1
    15   14   15 1
    16   14   34 1
    17   14   35 1
    18   15   16 1
    19   15   17 1
    20   15   36 1
    21   16   21 1
    22   17   18 1
    23   17   19 1
    24   17   37 1
    25   18   38 1
    26   19   20 1
    27   19   21 1
    28   19   39 1
    29   20   40 1
    30   21   22 1
    31   21   41 1
    32   22   23 ar
    33   22   32 ar
    34   23   24 ar
    35   23   42 1
    36   24   25 ar
    37   25   26 ar
    38   25   32 ar
    39   26   27 2
    40   26   28 ar
    41   28   29 ar
    42   28   43 1
    43   29   30 1
    44   29   31 ar
    45   30   44 1
    46   30   45 1
    47   31   32 ar
    48   31   46 1
@<TRIPOS>SUBSTRUCTURE
     1 GTP         1 GROUP 0 A     ****
@<TRIPOS>MOLECULE
[[[5-(2-amino-6-oxo-1,3-dihydropurin-2-ylium-9-yl)-3,4-dihydroxy-tetrahydrofuran-2-yl]methoxy-oxido-phosphoryl]oxy-oxido-phosphoryl] hydrogen phosphate
   46    48     1     0     0
SMALL
USER_CHARGES

@<TRIPOS>ATOM
      1 PG         -1.9218    8.2509   -0.7296 P.3       1 GTP         1.5400
      2 O1G        -1.6416    8.1625   -2.2132 O.co2     1 GTP        -0.8909
      3 O2G        -3.0216    9.1430   -0.1982 O.co2     1 GTP        -0.8909
      4 O3G        -0.5316    8.6277    0.0393 O.3       1 GTP        -0.7980
      5 O3B        -2.1304    6.7443   -0.1377 O.3       1 GTP        -0.7612
      6 PB         -3.3194    5.6630   -0.4251 P.3       1 GTP         1.5847
      7 O1B        -4.6176    6.2127    0.1226 O.co2     1 GTP        -0.8859
      8 O2B        -3.2064    5.1730   -1.8516 O.co2     1 GTP        -0.8859
      9 O3A        -2.7994    4.4428    0.5264 O.3       1 GTP        -0.7486
     10 PA         -2.5400    4.4095    2.1393 P.3       1 GTP         1.5001
     11 O1A        -1.4132    5.3638    2.4707 O.co2     1 GTP        -0.8487
     12 O2A        -3.8748    4.4994    2.8464 O.co2     1 GTP        -0.8487
     13 O5'        -2.0401    2.8620    2.3128 O.3       1 GTP        -0.5474
     14 C5'        -0.8811    2.4285    1.6206 C.3       1 GTP         0.2547
     15 C4'        -0.1994    1.3333    2.4288 C.3       1 GTP         0.0926
     16 O4'        -1.1285    0.2356    2.5840 O.3       1 GTP        -0.3593
     17 C3'         1.0324    0.7610    1.7344 C.3       1 GTP         0.0907
     18 O3'         1.9175    0.2377    2.7247 O.3       1 GTP        -0.5209
     19 C2'         0.4468   -0.3802    0.9263 C.3       1 GTP         0.0305
     20 O2'         1.3993   -1.3703    0.5961 O.3       1 GTP        -0.5978
     21 C1'        -0.6159   -0.9100    1.8769 C.3       1 GTP         0.2339
     22 N9         -1.7127   -1.6108    1.2130 N.pl3     1 GTP        -0.1765
     23 C8         -1.7789   -2.9564    0.9503 C.ar      1 GTP         0.4947
     24 N7         -2.8980   -3.2916    0.3377 N.2       1 GTP        -0.5802
     25 C5         -3.5824   -2.1127    0.2000 C.ar      1 GTP         0.2279
     26 C6         -4.8740   -1.9471   -0.4133 C.ar      1 GTP         0.6513
     27 O6         -5.5366   -2.8529   -0.8978 O.2       1 GTP        -0.5111
     28 N1         -5.3036   -0.5645   -0.3916 N.pl3     1 GTP        -0.4713
     29 C2         -4.5545    0.4997    0.1619 C.ar      1 GTP         0.5256
     30 N2         -5.0561    1.7921    0.1348 N.pl3     1 GTP        -0.8665
     31 N3         -3.2977    0.2393    0.7420 N.pl3     1 GTP        -0.5398
     32 C4         -2.8643   -1.0716    0.7336 C.ar      1 GTP        -0.0275
     33 HOG3       -0.5488    8.7220    1.0155 H         1 GTP         0.4161
     34 H5'        -1.1767    2.0502    0.6368 H         1 GTP         0.0348
     35 H5''       -0.2080    3.2814    1.4876 H         1 GTP         0.0348
     36 H4'         0.0403    1.7078    3.4343 H         1 GTP         0.1215
     37 H3'         1.5907    1.4859    1.1353 H         1 GTP         0.0576
     38 HO3'        2.6839   -0.1150    2.2479 H         1 GTP         0.3842
     39 H2'        -0.0017    0.0018    0.0005 H         1 GTP         0.0252
     40 HO2'        2.0953   -0.9375    0.0709 H         1 GTP         0.4224
     41 H1'        -0.1998   -1.6319    2.6178 H         1 GTP         0.0745
     42 H8         -0.9852   -3.6367    1.2276 H         1 GTP         0.1522
     43 HN1        -6.2089   -0.3428   -0.8039 H         1 GTP         0.3518
     44 HN21       -4.4981    2.4933    0.5311 H         1 GTP         0.4761
     45 HN22       -5.9352    1.9183   -0.2793 H         1 GTP         0.4761
     46 H46        -2.7541    1.0010    1.1428 H         1 GTP         0.5030
@<TRIPOS>BOND
     1    1    2 2
     2    1    3 1
     3    1    4 1
     4    1    5 1
     5    4   33 1
     6    5    6 1
     7    6    7 2
     8    6    8 1
     9    6    9 1
    10    9   10 1
    11   10   11 2
    12   10   12 1
    13   10   13 1
    14   13   14 1
    15   14   15 1
    16   14   34 1
    17   14   35 1
    18   15   16 1
    19   15   17 1
    20   15   36 1
    21   16   21 1
    22   17   18 1
    23   17   19 1
    24   17   37 1
    25   18   38 1
    26   19   20 1
    27   19   21 1
    28   19   39 1
    29   20   40 1
    30   21   22 1
    31   21   41 1
    32   22   23 ar
    33   22   32 ar
    34   23   24 ar
    35   23   42 1
    36   24   25 ar
    37   25   26 ar
    38   25   32 ar
    39   26   27 2
    40   26   28 ar
    41   28   29 ar
    42   28   43 1
    43   29   30 1
    44   29   31 ar
    45   30   44 1
    46   30   45 1
    47   31   32 ar
    48   31   46 1
@<TRIPOS>SUBSTRUCTURE
     1 GTP         1 GROUP 0 A     ****
@<TRIPOS>MOLECULE
[[[5-(2-amino-6-oxo-1,3-dihydropurin-2-ylium-9-yl)-3,4-dihydroxy-tetrahydrofuran-2-yl]methoxy-oxido-phosphoryl]oxy-oxido-phosphoryl] hydrogen phosphate
   46    48     1     0     0
SMALL
USER_CHARGES

@<TRIPOS>ATOM
      1 PG         -3.5267    4.3778    5.1015 P.3       1 GTP         1.5400
      2 O1G        -4.9497    4.5982    4.6390 O.co2     1 GTP        -0.8909
      3 O2G        -2.7383    3.1714    4.6425 O.co2     1 GTP        -0.8909
      4 O3G        -3.4985    4.4253    6.7333 O.3       1 GTP        -0.7980
      5 O3B        -2.6557    5.7247    4.8004 O.3       1 GTP        -0.7612
      6 PB         -2.2216    6.3929    3.3753 P.3       1 GTP         1.5847
      7 O1B        -3.4656    6.6108    2.5432 O.co2     1 GTP        -0.8859
      8 O2B        -1.2364    7.5108    3.6344 O.co2     1 GTP        -0.8859
      9 O3A        -1.3614    5.1517    2.7554 O.3       1 GTP        -0.7486
     10 PA         -0.5790    5.0299    1.3261 P.3       1 GTP         1.5001
     11 O1A        -1.5962    5.0956    0.2075 O.co2     1 GTP        -0.8487
     12 O2A         0.6189    5.9541    1.3494 O.co2     1 GTP        -0.8487
     13 O5'         0.0178    3.5131    1.4595 O.3       1 GTP        -0.5474
     14 C5'        -0.8811    2.4285    1.6206 C.3       1 GTP         0.2547
     15 C4'        -0.1994    1.3333    2.4288 C.3       1 GTP         0.0926
     16 O4'        -1.1285    0.2356    2.5840 O.3       1 GTP        -0.3593
     17 C3'         1.0324    0.7610    1.7344 C.3       1 GTP         0.0907
     18 O3'         1.9175    0.2377    2.7247 O.3       1 GTP        -0.5209
     19 C2'         0.4468   -0.3802    0.9263 C.3       1 GTP         0.0305
     20 O2'         1.3993   -1.3703    0.5961 O.3       1 GTP        -0.5978
     21 C1'        -0.6159   -0.9100    1.8769 C.3       1 GTP         0.2339
     22 N9         -1.7127   -1.6108    1.2130 N.pl3     1 GTP        -0.1765
     23 C8         -2.8692   -1.0463    0.7355 C.ar      1 GTP         0.4947
     24 N7         -3.6707   -1.9381    0.1856 N.2       1 GTP        -0.5802
     25 C5         -3.0027   -3.1275    0.3134 C.ar      1 GTP         0.2279
     26 C6         -3.4659   -4.4142   -0.1355 C.ar      1 GTP         0.6513
     27 O6         -4.5328   -4.6133   -0.6980 O.2       1 GTP        -0.5111
     28 N1         -2.5102   -5.4606    0.1612 N.pl3     1 GTP        -0.4713
     29 C2         -1.2711   -5.2547    0.8113 C.ar      1 GTP         0.5256
     30 N2         -0.4228   -6.3256    1.0482 N.pl3     1 GTP        -0.8665
     31 N3         -0.9033   -3.9563    1.2146 N.pl3     1 GTP        -0.5398
     32 C4         -1.7979   -2.9400    0.9438 C.ar      1 GTP        -0.0275
     33 HOG3       -2.6394    4.2979    7.1893 H         1 GTP         0.4161
     34 H5'        -1.7771    2.7849    2.1387 H         1 GTP         0.0348
     35 H5''       -1.1654    2.0541    0.6320 H         1 GTP         0.0348
     36 H4'         0.0403    1.7078    3.4343 H         1 GTP         0.1215
     37 H3'         1.5907    1.4859    1.1353 H         1 GTP         0.0576
     38 HO3'        2.6839   -0.1150    2.2479 H         1 GTP         0.3842
     39 H2'        -0.0017    0.0018    0.0005 H         1 GTP         0.0252
     40 HO2'        2.0953   -0.9375    0.0709 H         1 GTP         0.4224
     41 H1'        -0.1998   -1.6319    2.6178 H         1 GTP         0.0745
     42 H8         -3.0691    0.0134    0.8177 H         1 GTP         0.1522
     43 HN1        -2.7468   -6.4119   -0.1177 H         1 GTP         0.3518
     44 HN21        0.4233   -6.1297    1.5018 H         1 GTP         0.4761
     45 HN22       -0.7261   -7.2071    0.7466 H         1 GTP         0.4761
     46 H46        -0.0124   -3.8015    1.6821 H         1 GTP         0.5030
@<TRIPOS>BOND
     1    1    2 2
     2    1    3 1
     3    1    4 1
     4    1    5 1
     5    4   33 1
     6    5    6 1
     7    6    7 2
     8    6    8 1
     9    6    9 1
    10    9   10 1
    11   10   11 2
    12   10   12 1
    13   10   13 1
    14   13   14 1
    15   14   15 1
    16   14   34 1
    17   14   35 1
    18   15   16 1
    19   15   17 1
    20   15   36 1
    21   16   21 1
    22   17   18 1
    23   17   19 1
    24   17   37 1
    25   18   38 1
    26   19   20 1
    27   19   21 1
    28   19   39 1
    29   20   40 1
    30   21   22 1
    31   21   41 1
    32   22   23 ar
    33   22   32 ar
    34   23   24 ar
    35   23   42 1
    36   24   25 ar
    37   25   26 ar
    38   25   32 ar
    39   26   27 2
    40   26   28 ar
    41   28   29 ar
    42   28   43 1
    43   29   30 1
    44   29   31 ar
    45   30   44 1
    46   30   45 1
    47   31   32 ar
    48   31   46 1
@<TRIPOS>SUBSTRUCTURE
     1 GTP         1 GROUP 0 A     ****
@<TRIPOS>MOLECULE
[[[5-(2-amino-6-oxo-1,3-dihydropurin-2-ylium-9-yl)-3,4-dihydroxy-tetrahydrofuran-2-yl]methoxy-oxido-phosphoryl]oxy-oxido-phosphoryl] hydrogen phosphate
   46    48     1     0     0
SMALL
USER_CHARGES

@<TRIPOS>ATOM
      1 PG         -4.1231    3.5669   -2.3498 P.3       1 GTP         1.5400
      2 O1G        -3.6175    2.3696   -1.5763 O.co2     1 GTP        -0.8909
      3 O2G        -5.5995    3.8909   -2.4030 O.co2     1 GTP        -0.8909
      4 O3G        -3.5575    3.4733   -3.8786 O.3       1 GTP        -0.7980
      5 O3B        -3.3072    4.8950   -1.8659 O.3       1 GTP        -0.7612
      6 PB         -3.3194    5.6630   -0.4251 P.3       1 GTP         1.5847
      7 O1B        -2.2797    6.7610   -0.4521 O.co2     1 GTP        -0.8859
      8 O2B        -4.7518    5.9385   -0.0252 O.co2     1 GTP        -0.8859
      9 O3A        -2.7994    4.4428    0.5264 O.3       1 GTP        -0.7486
     10 PA         -2.5400    4.4095    2.1393 P.3       1 GTP         1.5001
     11 O1A        -1.4132    5.3638    2.4707 O.co2     1 GTP        -0.8487
     12 O2A        -3.8748    4.4994    2.8464 O.co2     1 GTP        -0.8487
     13 O5'        -2.0401    2.8620    2.3128 O.3       1 GTP        -0.5474
     14 C5'        -0.8811    2.4285    1.6206 C.3       1 GTP         0.2547
     15 C4'        -0.1994    1.3333    2.4288 C.3       1 GTP         0.0926
     16 O4'        -1.1285    0.2356    2.5840 O.3       1 GTP        -0.3593
     17 C3'         1.0324    0.7610    1.7344 C.3       1 GTP         0.0907
     18 O3'         1.9175    0.2377    2.7247 O.3       1 GTP        -0.5209
     19 C2'         0.4468   -0.3802    0.9263 C.3       1 GTP         0.0305
     20 O2'         1.3993   -1.3703    0.5961 O.3       1 GTP        -0.5978
     21 C1'        -0.6159   -0.9100    1.8769 C.3       1 GTP         0.2339
     22 N9         -1.7127   -1.6108    1.2130 N.pl3     1 GTP        -0.1765
     23 C8         -2.5534   -1.0907    0.2607 C.ar      1 GTP         0.4947
     24 N7         -3.4469   -1.9695   -0.1508 N.2       1 GTP        -0.5802
     25 C5         -3.1705   -3.1041    0.5657 C.ar      1 GTP         0.2279
     26 C6         -3.8738   -4.3568    0.4777 C.ar      1 GTP         0.6513
     27 O6         -4.8240   -4.5720   -0.2607 O.2       1 GTP        -0.5111
     28 N1         -3.3198   -5.3462    1.3780 N.pl3     1 GTP        -0.4713
     29 C2         -2.2226   -5.1203    2.2413 C.ar      1 GTP         0.5256
     30 N2         -1.7649   -6.1367    3.0659 N.pl3     1 GTP        -0.8665
     31 N3         -1.5969   -3.8585    2.2574 N.pl3     1 GTP        -0.5398
     32 C4         -2.1068   -2.8965    1.4082 C.ar      1 GTP        -0.0275
     33 HOG3       -3.8000    4.1833   -4.5104 H         1 GTP         0.4161
     34 H5'        -1.1767    2.0502    0.6368 H         1 GTP         0.0348
     35 H5''       -0.2080    3.2814    1.4876 H         1 GTP         0.0348
     36 H4'         0.0403    1.7078    3.4343 H         1 GTP         0.1215
     37 H3'         1.5907    1.4859    1.1353 H         1 GTP         0.0576
     38 HO3'        2.1521    0.9800    3.3017 H         1 GTP         0.3842
     39 H2'        -0.0017    0.0018    0.0005 H         1 GTP         0.0252
     40 HO2'        0.9369   -2.0558    0.0825 H         1 GTP         0.4224
     41 H1'        -0.1998   -1.6319    2.6178 H         1 GTP         0.0745
     42 H8         -2.4657   -0.0713   -0.0897 H         1 GTP         0.1522
     43 HN1        -3.7505   -6.2699    1.3904 H         1 GTP         0.3518
     44 HN21       -1.0023   -5.9289    3.6451 H         1 GTP         0.4761
     45 HN22       -2.2347   -6.9951    3.0150 H         1 GTP         0.4761
     46 H46        -0.8062   -3.6900    2.8760 H         1 GTP         0.5030
@<TRIPOS>BOND
     1    1    2 2
     2    1    3 1
     3    1    4 1
     4    1    5 1
     5    4   33 1
     6    5    6 1
     7    6    7 2
     8    6    8 1
     9    6    9 1
    10    9   10 1
    11   10   11 2
    12   10   12 1
    13   10   13 1
    14   13   14 1
    15   14   15 1
    16   14   34 1
    17   14   35 1
    18   15   16 1
    19   15   17 1
    20   15   36 1
    21   16   21 1
    22   17   18 1
    23   17   19 1
    24   17   37 1
    25   18   38 1
    26   19   20 1
    27   19   21 1
    28   19   39 1
    29   20   40 1
    30   21   22 1
    31   21   41 1
    32   22   23 ar
    33   22   32 ar
    34   23   24 ar
    35   23   42 1
    36   24   25 ar
    37   25   26 ar
    38   25   32 ar
    39   26   27 2
    40   26   28 ar
    41   28   29 ar
    42   28   43 1
    43   29   30 1
    44   29   31 ar
    45   30   44 1
    46   30   45 1
    47   31   32 ar
    48   31   46 1
@<TRIPOS>SUBSTRUCTURE
     1 GTP         1 GROUP 0 A     ****
@<TRIPOS>MOLECULE
[[[5-(2-amino-6-oxo-1,3-dihydropurin-2-ylium-9-yl)-3,4-dihydroxy-tetrahydrofuran-2-yl]methoxy-oxido-phosphoryl]oxy-oxido-phosphoryl] hydrogen phosphate
   46    48     1     0     0
SMALL
USER_CHARGES

@<TRIPOS>ATOM
      1 PG         -1.9218    8.2509   -0.7296 P.3       1 GTP         1.5400
      2 O1G        -3.1814    9.0529   -0.4895 O.co2     1 GTP        -0.8909
      3 O2G        -0.5729    8.7702   -0.2841 O.co2     1 GTP        -0.8909
      4 O3G        -1.8366    7.8823   -2.3180 O.3       1 GTP        -0.7980
      5 O3B        -2.1304    6.7443   -0.1377 O.3       1 GTP        -0.7612
      6 PB         -3.3194    5.6630   -0.4251 P.3       1 GTP         1.5847
      7 O1B        -4.6176    6.2127    0.1226 O.co2     1 GTP        -0.8859
      8 O2B        -3.2064    5.1730   -1.8516 O.co2     1 GTP        -0.8859
      9 O3A        -2.7994    4.4428    0.5264 O.3       1 GTP        -0.7486
     10 PA         -2.5400    4.4095    2.1393 P.3       1 GTP         1.5001
     11 O1A        -1.4132    5.3638    2.4707 O.co2     1 GTP        -0.8487
     12 O2A        -3.8748    4.4994    2.8464 O.co2     1 GTP        -0.8487
     13 O5'        -2.0401    2.8620    2.3128 O.3       1 GTP        -0.5474
     14 C5'        -0.8811    2.4285    1.6206 C.3       1 GTP         0.2547
     15 C4'        -0.1994    1.3333    2.4288 C.3       1 GTP         0.0926
     16 O4'        -1.1285    0.2356    2.5840 O.3       1 GTP        -0.3593
     17 C3'         1.0324    0.7610    1.7344 C.3       1 GTP         0.0907
     18 O3'         1.9175    0.2377    2.7247 O.3       1 GTP        -0.5209
     19 C2'         0.4468   -0.3802    0.9263 C.3       1 GTP         0.0305
     20 O2'         1.3993   -1.3703    0.5961 O.3       1 GTP        -0.5978
     21 C1'        -0.6159   -0.9100    1.8769 C.3       1 GTP         0.2339
     22 N9         -1.7127   -1.6108    1.2130 N.pl3     1 GTP        -0.1765
     23 C8         -2.8692   -1.0463    0.7355 C.ar      1 GTP         0.4947
     24 N7         -3.6707   -1.9381    0.1856 N.2       1 GTP        -0.5802
     25 C5         -3.0027   -3.1275    0.3134 C.ar      1 GTP         0.2279
     26 C6         -3.4659   -4.4142   -0.1355 C.ar      1 GTP         0.6513
     27 O6         -4.5328   -4.6133   -0.6980 O.2       1 GTP        -0.5111
     28 N1         -2.5102   -5.4606    0.1612 N.pl3     1 GTP        -0.4713
     29 C2         -1.2711   -5.2547    0.8113 C.ar      1 GTP         0.5256
     30 N2         -0.4228   -6.3256    1.0482 N.pl3     1 GTP        -0.8665
     31 N3         -0.9033   -3.9563    1.2146 N.pl3     1 GTP        -0.5398
     32 C4         -1.7979   -2.9400    0.9438 C.ar      1 GTP        -0.0275
     33 HOG3       -1.0696    7.3597   -2.6355 H         1 GTP         0.4161
     34 H5'        -1.1767    2.0502    0.6368 H         1 GTP         0.0348
     35 H5''       -0.2080    3.2814    1.4876 H         1 GTP         0.0348
     36 H4'         0.0403    1.7078    3.4343 H         1 GTP         0.1215
     37 H3'         1.5907    1.4859    1.1353 H         1 GTP         0.0576
     38 HO3'        2.6839   -0.1150    2.2479 H         1 GTP         0.3842
     39 H2'        -0.0017    0.0018    0.0005 H         1 GTP         0.0252
     40 HO2'        2.0953   -0.9375    0.0709 H         1 GTP         0.4224
     41 H1'        -0.1998   -1.6319    2.6178 H         1 GTP         0.0745
     42 H8         -3.0691    0.0134    0.8177 H         1 GTP         0.1522
     43 HN1        -2.7468   -6.4119   -0.1177 H         1 GTP         0.3518
     44 HN21        0.4233   -6.1297    1.5018 H         1 GTP         0.4761
     45 HN22       -0.7261   -7.2071    0.7466 H         1 GTP         0.4761
     46 H46        -0.0124   -3.8015    1.6821 H         1 GTP         0.5030
@<TRIPOS>BOND
     1    1    2 2
     2    1    3 1
     3    1    4 1
     4    1    5 1
     5    4   33 1
     6    5    6 1
     7    6    7 2
     8    6    8 1
     9    6    9 1
    10    9   10 1
    11   10   11 2
    12   10   12 1
    13   10   13 1
    14   13   14 1
    15   14   15 1
    16   14   34 1
    17   14   35 1
    18   15   16 1
    19   15   17 1
    20   15   36 1
    21   16   21 1
    22   17   18 1
    23   17   19 1
    24   17   37 1
    25   18   38 1
    26   19   20 1
    27   19   21 1
    28   19   39 1
    29   20   40 1
    30   21   22 1
    31   21   41 1
    32   22   23 ar
    33   22   32 ar
    34   23   24 ar
    35   23   42 1
    36   24   25 ar
    37   25   26 ar
    38   25   32 ar
    39   26   27 2
    40   26   28 ar
    41   28   29 ar
    42   28   43 1
    43   29   30 1
    44   29   31 ar
    45   30   44 1
    46   30   45 1
    47   31   32 ar
    48   31   46 1
@<TRIPOS>SUBSTRUCTURE
     1 GTP         1 GROUP 0 A     ****
@<TRIPOS>MOLECULE
[[[5-(2-amino-6-oxo-1,3-dihydropurin-2-ylium-9-yl)-3,4-dihydroxy-tetrahydrofuran-2-yl]methoxy-oxido-phosphoryl]oxy-oxido-phosphoryl] hydrogen phosphate
   46    48     1     0     0
SMALL
USER_CHARGES

@<TRIPOS>ATOM
      1 PG         -4.6897    1.0437   -1.7182 P.3       1 GTP         1.5400
      2 O1G        -3.7973    0.4299   -0.6626 O.co2     1 GTP        -0.8909
      3 O2G        -6.1957    0.9945   -1.5872 O.co2     1 GTP        -0.8909
      4 O3G        -4.2752    0.4251   -3.1713 O.3       1 GTP        -0.7980
      5 O3B        -4.2306    2.5898   -1.9683 O.3       1 GTP        -0.7612
      6 PB         -4.3123    3.8795   -0.9705 P.3       1 GTP         1.5847
      7 O1B        -3.6262    5.0516   -1.6361 O.co2     1 GTP        -0.8859
      8 O2B        -5.7177    3.9914   -0.4230 O.co2     1 GTP        -0.8859
      9 O3A        -3.3820    3.3250    0.2509 O.3       1 GTP        -0.7486
     10 PA         -2.9646    4.0418    1.6587 P.3       1 GTP         1.5001
     11 O1A        -2.1198    5.2596    1.3528 O.co2     1 GTP        -0.8487
     12 O2A        -4.1947    4.1429    2.5341 O.co2     1 GTP        -0.8487
     13 O5'        -2.0401    2.8620    2.3128 O.3       1 GTP        -0.5474
     14 C5'        -0.8811    2.4285    1.6206 C.3       1 GTP         0.2547
     15 C4'        -0.1994    1.3333    2.4288 C.3       1 GTP         0.0926
     16 O4'        -1.1285    0.2356    2.5840 O.3       1 GTP        -0.3593
     17 C3'         1.0324    0.7610    1.7344 C.3       1 GTP         0.0907
     18 O3'         1.9175    0.2377    2.7247 O.3       1 GTP        -0.5209
     19 C2'         0.4468   -0.3802    0.9263 C.3       1 GTP         0.0305
     20 O2'         1.3993   -1.3703    0.5961 O.3       1 GTP        -0.5978
     21 C1'        -0.6159   -0.9100    1.8769 C.3       1 GTP         0.2339
     22 N9         -1.7127   -1.6108    1.2130 N.pl3     1 GTP        -0.1765
     23 C8         -1.6311   -2.3341    0.0493 C.ar      1 GTP         0.4947
     24 N7         -2.7933   -2.8506   -0.3007 N.2       1 GTP        -0.5802
     25 C5         -3.6607   -2.4436    0.6786 C.ar      1 GTP         0.2279
     26 C6         -5.0651   -2.7506    0.7505 C.ar      1 GTP         0.6513
     27 O6         -5.6735   -3.4256   -0.0671 O.2       1 GTP        -0.5111
     28 N1         -5.6834   -2.1585    1.9182 N.pl3     1 GTP        -0.4713
     29 C2         -5.0007   -1.3738    2.8765 C.ar      1 GTP         0.5256
     30 N2         -5.6847   -0.8521    3.9640 N.pl3     1 GTP        -0.8665
     31 N3         -3.6227   -1.1271    2.7212 N.pl3     1 GTP        -0.5398
     32 C4         -3.0090   -1.6802    1.6149 C.ar      1 GTP        -0.0275
     33 HOG3       -4.7669    0.7270   -3.9647 H         1 GTP         0.4161
     34 H5'        -1.1767    2.0502    0.6368 H         1 GTP         0.0348
     35 H5''       -0.2080    3.2814    1.4876 H         1 GTP         0.0348
     36 H4'         0.0403    1.7078    3.4343 H         1 GTP         0.1215
     37 H3'         1.5907    1.4859    1.1353 H         1 GTP         0.0576
     38 HO3'        2.1521    0.9800    3.3017 H         1 GTP         0.3842
     39 H2'        -0.0017    0.0018    0.0005 H         1 GTP         0.0252
     40 HO2'        2.0953   -0.9375    0.0709 H         1 GTP         0.4224
     41 H1'        -0.1998   -1.6319    2.6178 H         1 GTP         0.0745
     42 H8         -0.7029   -2.4474   -0.4941 H         1 GTP         0.1522
     43 HN1        -6.6800   -2.3183    2.0594 H         1 GTP         0.3518
     44 HN21       -5.1660   -0.3153    4.5987 H         1 GTP         0.4761
     45 HN22       -6.6415   -1.0545    4.0252 H         1 GTP         0.4761
     46 H46        -3.1256   -0.5638    3.4080 H         1 GTP         0.5030
@<TRIPOS>BOND
     1    1    2 2
     2    1    3 1
     3    1    4 1
     4    1    5 1
     5    4   33 1
     6    5    6 1
     7    6    7 2
     8    6    8 1
     9    6    9 1
    10    9   10 1
    11   10   11 2
    12   10   12 1
    13   10   13 1
    14   13   14 1
    15   14   15 1
    16   14   34 1
    17   14   35 1
    18   15   16 1
    19   15   17 1
    20   15   36 1
    21   16   21 1
    22   17   18 1
    23   17   19 1
    24   17   37 1
    25   18   38 1
    26   19   20 1
    27   19   21 1
    28   19   39 1
    29   20   40 1
    30   21   22 1
    31   21   41 1
    32   22   23 ar
    33   22   32 ar
    34   23   24 ar
    35   23   42 1
    36   24   25 ar
    37   25   26 ar
    38   25   32 ar
    39   26   27 2
    40   26   28 ar
    41   28   29 ar
    42   28   43 1
    43   29   30 1
    44   29   31 ar
    45   30   44 1
    46   30   45 1
    47   31   32 ar
    48   31   46 1
@<TRIPOS>SUBSTRUCTURE
     1 GTP         1 GROUP 0 A     ****
@<TRIPOS>MOLECULE
[[[5-(2-amino-6-oxo-1,3-dihydropurin-2-ylium-9-yl)-3,4-dihydroxy-tetrahydrofuran-2-yl]methoxy-oxido-phosphoryl]oxy-oxido-phosphoryl] hydrogen phosphate
   46    48     1     0     0
SMALL
USER_CHARGES

@<TRIPOS>ATOM
      1 PG          0.3311    7.4237    2.6925 P.3       1 GTP         1.5400
      2 O1G        -0.3155    8.4642    3.5794 O.co2     1 GTP        -0.8909
      3 O2G         0.6092    6.0286    3.2065 O.co2     1 GTP        -0.8909
      4 O3G         1.7189    8.0420    2.0945 O.3       1 GTP        -0.7980
      5 O3B        -0.5115    7.3158    1.2989 O.3       1 GTP        -0.7612
      6 PB         -2.0305    6.7790    1.0340 P.3       1 GTP         1.5847
      7 O1B        -2.9776    7.5399    1.9348 O.co2     1 GTP        -0.8859
      8 O2B        -2.2651    6.6783   -0.4568 O.co2     1 GTP        -0.8859
      9 O3A        -1.8672    5.2499    1.5817 O.3       1 GTP        -0.7486
     10 PA         -2.9646    4.0418    1.6587 P.3       1 GTP         1.5001
     11 O1A        -4.0615    4.4416    2.6216 O.co2     1 GTP        -0.8487
     12 O2A        -3.2861    3.5890    0.2511 O.co2     1 GTP        -0.8487
     13 O5'        -2.0401    2.8620    2.3128 O.3       1 GTP        -0.5474
     14 C5'        -0.8811    2.4285    1.6206 C.3       1 GTP         0.2547
     15 C4'        -0.1994    1.3333    2.4288 C.3       1 GTP         0.0926
     16 O4'        -1.1285    0.2356    2.5840 O.3       1 GTP        -0.3593
     17 C3'         1.0324    0.7610    1.7344 C.3       1 GTP         0.0907
     18 O3'         1.9175    0.2377    2.7247 O.3       1 GTP        -0.5209
     19 C2'         0.4468   -0.3802    0.9263 C.3       1 GTP         0.0305
     20 O2'         1.3993   -1.3703    0.5961 O.3       1 GTP        -0.5978
     21 C1'        -0.6159   -0.9100    1.8769 C.3       1 GTP         0.2339
     22 N9         -1.7127   -1.6108    1.2130 N.pl3     1 GTP        -0.1765
     23 C8         -1.6092   -2.7449    0.4467 C.ar      1 GTP         0.4947
     24 N7         -2.7778   -3.1416   -0.0191 N.2       1 GTP        -0.5802
     25 C5         -3.6725   -2.2253    0.4675 C.ar      1 GTP         0.2279
     26 C6         -5.0932   -2.2202    0.2371 C.ar      1 GTP         0.6513
     27 O6         -5.6933   -3.0474   -0.4337 O.2       1 GTP        -0.5111
     28 N1         -5.7390   -1.1061    0.8992 N.pl3     1 GTP        -0.4713
     29 C2         -5.0661   -0.1368    1.6789 C.ar      1 GTP         0.5256
     30 N2         -5.7774    0.8934    2.2749 N.pl3     1 GTP        -0.8665
     31 N3         -3.6705   -0.2251    1.8481 N.pl3     1 GTP        -0.5398
     32 C4         -3.0303   -1.2785    1.2262 C.ar      1 GTP        -0.0275
     33 HOG3        2.2591    7.4834    1.4958 H         1 GTP         0.4161
     34 H5'        -1.1767    2.0502    0.6368 H         1 GTP         0.0348
     35 H5''       -0.2080    3.2814    1.4876 H         1 GTP         0.0348
     36 H4'         0.0403    1.7078    3.4343 H         1 GTP         0.1215
     37 H3'         1.5907    1.4859    1.1353 H         1 GTP         0.0576
     38 HO3'        2.6839   -0.1150    2.2479 H         1 GTP         0.3842
     39 H2'        -0.0017    0.0018    0.0005 H         1 GTP         0.0252
     40 HO2'        2.0953   -0.9375    0.0709 H         1 GTP         0.4224
     41 H1'        -0.1998   -1.6319    2.6178 H         1 GTP         0.0745
     42 H8         -0.6610   -3.2324    0.2653 H         1 GTP         0.1522
     43 HN1        -6.7487   -1.0139    0.7961 H         1 GTP         0.3518
     44 HN21       -5.2644    1.5388    2.8044 H         1 GTP         0.4761
     45 HN22       -6.7459    0.9078    2.1265 H         1 GTP         0.4761
     46 H46        -3.1807    0.4690    2.4089 H         1 GTP         0.5030
@<TRIPOS>BOND
     1    1    2 2
     2    1    3 1
     3    1    4 1
     4    1    5 1
     5    4   33 1
     6    5    6 1
     7    6    7 2
     8    6    8 1
     9    6    9 1
    10    9   10 1
    11   10   11 2
    12   10   12 1
    13   10   13 1
    14   13   14 1
    15   14   15 1
    16   14   34 1
    17   14   35 1
    18   15   16 1
    19   15   17 1
    20   15   36 1
    21   16   21 1
    22   17   18 1
    23   17   19 1
    24   17   37 1
    25   18   38 1
    26   19   20 1
    27   19   21 1
    28   19   39 1
    29   20   40 1
    30   21   22 1
    31   21   41 1
    32   22   23 ar
    33   22   32 ar
    34   23   24 ar
    35   23   42 1
    36   24   25 ar
    37   25   26 ar
    38   25   32 ar
    39   26   27 2
    40   26   28 ar
    41   28   29 ar
    42   28   43 1
    43   29   30 1
    44   29   31 ar
    45   30   44 1
    46   30   45 1
    47   31   32 ar
    48   31   46 1
@<TRIPOS>SUBSTRUCTURE
     1 GTP         1 GROUP 0 A     ****
@<TRIPOS>MOLECULE
[[[5-(2-amino-6-oxo-1,3-dihydropurin-2-ylium-9-yl)-3,4-dihydroxy-tetrahydrofuran-2-yl]methoxy-oxido-phosphoryl]oxy-oxido-phosphoryl] hydrogen phosphate
   46    48     1     0     0
SMALL
USER_CHARGES

@<TRIPOS>ATOM
      1 PG         -5.0270    7.1455    3.1542 P.3       1 GTP         1.5400
      2 O1G        -6.0115    7.2883    2.0150 O.co2     1 GTP        -0.8909
      3 O2G        -5.4644    6.6012    4.4959 O.co2     1 GTP        -0.8909
      4 O3G        -4.2968    8.5863    3.3923 O.3       1 GTP        -0.7980
      5 O3B        -3.7335    6.2963    2.6350 O.3       1 GTP        -0.7612
      6 PB         -2.7700    6.5451    1.3406 P.3       1 GTP         1.5847
      7 O1B        -3.5862    6.3453    0.0831 O.co2     1 GTP        -0.8859
      8 O2B        -1.9562    7.8000    1.5654 O.co2     1 GTP        -0.8859
      9 O3A        -1.7457    5.2883    1.5313 O.3       1 GTP        -0.7486
     10 PA         -0.4665    4.8322    0.6228 P.3       1 GTP         1.5001
     11 O1A        -0.9631    4.4288   -0.7487 O.co2     1 GTP        -0.8487
     12 O2A         0.6338    5.8580    0.7859 O.co2     1 GTP        -0.8487
     13 O5'         0.0178    3.5131    1.4595 O.3       1 GTP        -0.5474
     14 C5'        -0.8811    2.4285    1.6206 C.3       1 GTP         0.2547
     15 C4'        -0.1994    1.3333    2.4288 C.3       1 GTP         0.0926
     16 O4'        -1.1285    0.2356    2.5840 O.3       1 GTP        -0.3593
     17 C3'         1.0324    0.7610    1.7344 C.3       1 GTP         0.0907
     18 O3'         1.9175    0.2377    2.7247 O.3       1 GTP        -0.5209
     19 C2'         0.4468   -0.3802    0.9263 C.3       1 GTP         0.0305
     20 O2'         1.3993   -1.3703    0.5961 O.3       1 GTP        -0.5978
     21 C1'        -0.6159   -0.9100    1.8769 C.3       1 GTP         0.2339
     22 N9         -1.7127   -1.6108    1.2130 N.pl3     1 GTP        -0.1765
     23 C8         -2.8692   -1.0463    0.7355 C.ar      1 GTP         0.4947
     24 N7         -3.6707   -1.9381    0.1856 N.2       1 GTP        -0.5802
     25 C5         -3.0027   -3.1275    0.3134 C.ar      1 GTP         0.2279
     26 C6         -3.4659   -4.4142   -0.1355 C.ar      1 GTP         0.6513
     27 O6         -4.5328   -4.6133   -0.6980 O.2       1 GTP        -0.5111
     28 N1         -2.5102   -5.4606    0.1612 N.pl3     1 GTP        -0.4713
     29 C2         -1.2711   -5.2547    0.8113 C.ar      1 GTP         0.5256
     30 N2         -0.4228   -6.3256    1.0482 N.pl3     1 GTP        -0.8665
     31 N3         -0.9033   -3.9563    1.2146 N.pl3     1 GTP        -0.5398
     32 C4         -1.7979   -2.9400    0.9438 C.ar      1 GTP        -0.0275
     33 HOG3       -3.6249    8.6574    4.1036 H         1 GTP         0.4161
     34 H5'        -1.7771    2.7849    2.1387 H         1 GTP         0.0348
     35 H5''       -1.1654    2.0541    0.6320 H         1 GTP         0.0348
     36 H4'         0.0403    1.7078    3.4343 H         1 GTP         0.1215
     37 H3'         1.5907    1.4859    1.1353 H         1 GTP         0.0576
     38 HO3'        2.6839   -0.1150    2.2479 H         1 GTP         0.3842
     39 H2'        -0.0017    0.0018    0.0005 H         1 GTP         0.0252
     40 HO2'        2.0953   -0.9375    0.0709 H         1 GTP         0.4224
     41 H1'        -0.1998   -1.6319    2.6178 H         1 GTP         0.0745
     42 H8         -3.0691    0.0134    0.8177 H         1 GTP         0.1522
     43 HN1        -2.7468   -6.4119   -0.1177 H         1 GTP         0.3518
     44 HN21        0.4233   -6.1297    1.5018 H         1 GTP         0.4761
     45 HN22       -0.7261   -7.2071    0.7466 H         1 GTP         0.4761
     46 H46        -0.0124   -3.8015    1.6821 H         1 GTP         0.5030
@<TRIPOS>BOND
     1    1    2 2
     2    1    3 1
     3    1    4 1
     4    1    5 1
     5    4   33 1
     6    5    6 1
     7    6    7 2
     8    6    8 1
     9    6    9 1
    10    9   10 1
    11   10   11 2
    12   10   12 1
    13   10   13 1
    14   13   14 1
    15   14   15 1
    16   14   34 1
    17   14   35 1
    18   15   16 1
    19   15   17 1
    20   15   36 1
    21   16   21 1
    22   17   18 1
    23   17   19 1
    24   17   37 1
    25   18   38 1
    26   19   20 1
    27   19   21 1
    28   19   39 1
    29   20   40 1
    30   21   22 1
    31   21   41 1
    32   22   23 ar
    33   22   32 ar
    34   23   24 ar
    35   23   42 1
    36   24   25 ar
    37   25   26 ar
    38   25   32 ar
    39   26   27 2
    40   26   28 ar
    41   28   29 ar
    42   28   43 1
    43   29   30 1
    44   29   31 ar
    45   30   44 1
    46   30   45 1
    47   31   32 ar
    48   31   46 1
@<TRIPOS>SUBSTRUCTURE
     1 GTP         1 GROUP 0 A     ****
@<TRIPOS>MOLECULE
[[[5-(2-amino-6-oxo-1,3-dihydropurin-2-ylium-9-yl)-3,4-dihydroxy-tetrahydrofuran-2-yl]methoxy-oxido-phosphoryl]oxy-oxido-phosphoryl] hydrogen phosphate
   46    48     1     0     0
SMALL
USER_CHARGES

@<TRIPOS>ATOM
      1 PG          3.0609    4.1189   -4.8818 P.3       1 GTP         1.5400
      2 O1G         2.3522    3.9888   -3.5521 O.co2     1 GTP        -0.8909
      3 O2G         3.3588    5.4784   -5.4741 O.co2     1 GTP        -0.8909
      4 O3G         2.2492    3.2370   -5.9906 O.3       1 GTP        -0.7980
      5 O3B         4.4405    3.2481   -4.8359 O.3       1 GTP        -0.7612
      6 PB          5.7931    3.4773   -3.9507 P.3       1 GTP         1.5847
      7 O1B         6.7249    2.3078   -4.1776 O.co2     1 GTP        -0.8859
      8 O2B         6.2590    4.9058   -4.1228 O.co2     1 GTP        -0.8859
      9 O3A         5.1471    3.3776   -2.4549 O.3       1 GTP        -0.7486
     10 PA          5.8655    3.5044   -0.9928 P.3       1 GTP         1.5001
     11 O1A         6.8358    2.3550   -0.8262 O.co2     1 GTP        -0.8487
     12 O2A         6.3087    4.9375   -0.7936 O.co2     1 GTP        -0.8487
     13 O5'         4.5670    3.2937   -0.0211 O.3       1 GTP        -0.5474
     14 C5'         4.0922    1.9801    0.2227 C.3       1 GTP         0.2547
     15 C4'         2.5944    2.0310    0.4653 C.3       1 GTP         0.0926
     16 O4'         1.9327    2.5740   -0.6889 O.3       1 GTP        -0.3593
     17 C3'         1.9685    0.6634    0.6767 C.3       1 GTP         0.0907
     18 O3'         2.1425    0.1975    1.9977 O.3       1 GTP        -0.5209
     19 C2'         0.5176    0.9128    0.3099 C.3       1 GTP         0.0305
     20 O2'        -0.2103    1.4454    1.4152 O.3       1 GTP        -0.5978
     21 C1'         0.6219    1.9765   -0.7844 C.3       1 GTP         0.2339
     22 N9          0.4237    1.4496   -2.1357 N.pl3     1 GTP        -0.1765
     23 C8          1.3988    0.9691   -2.9736 C.ar      1 GTP         0.4947
     24 N7          0.9092    0.5634   -4.1293 N.2       1 GTP        -0.5802
     25 C5         -0.4383    0.7914   -4.0325 C.ar      1 GTP         0.2279
     26 C6         -1.4217    0.5138   -5.0461 C.ar      1 GTP         0.6513
     27 O6         -1.1759    0.0306   -6.1417 O.2       1 GTP        -0.5111
     28 N1         -2.7543    0.8794   -4.6134 N.pl3     1 GTP        -0.4713
     29 C2         -3.0626    1.4402   -3.3523 C.ar      1 GTP         0.5256
     30 N2         -4.3747    1.7544   -3.0321 N.pl3     1 GTP        -0.8665
     31 N3         -2.0304    1.6759   -2.4233 N.pl3     1 GTP        -0.5398
     32 C4         -0.7497    1.3366   -2.8118 C.ar      1 GTP        -0.0275
     33 HOG3        2.5871    3.2192   -6.9114 H         1 GTP         0.4161
     34 H5'         4.3179    1.3548   -0.6470 H         1 GTP         0.0348
     35 H5''        4.6083    1.5737    1.0983 H         1 GTP         0.0348
     36 H4'         2.3752    2.7029    1.3156 H         1 GTP         0.1215
     37 H3'         2.4336   -0.1217   -0.0015 H         1 GTP         0.0576
     38 HO3'        3.0987    0.1465    2.1461 H         1 GTP         0.3842
     39 H2'         0.0316    0.0155   -0.0339 H         1 GTP         0.0252
     40 HO2'       -1.1270    1.5823    1.1180 H         1 GTP         0.4224
     41 H1'        -0.1474    2.7798   -0.6651 H         1 GTP         0.0745
     42 H8          2.4413    0.9409   -2.6872 H         1 GTP         0.1522
     43 HN1        -3.5236    0.7214   -5.2629 H         1 GTP         0.3518
     44 HN21       -4.5350    2.1409   -2.1461 H         1 GTP         0.4761
     45 HN22       -5.0542    1.5695   -3.7134 H         1 GTP         0.4761
     46 H46        -2.2462    2.0786   -1.5136 H         1 GTP         0.5030
@<TRIPOS>BOND
     1    1    2 2
     2    1    3 1
     3    1    4 1
     4    1    5 1
     5    4   33 1
     6    5    6 1
     7    6    7 2
     8    6    8 1
     9    6    9 1
    10    9   10 1
    11   10   11 2
    12   10   12 1
    13   10   13 1
    14   13   14 1
    15   14   15 1
    16   14   34 1
    17   14   35 1
    18   15   16 1
    19   15   17 1
    20   15   36 1
    21   16   21 1
    22   17   18 1
    23   17   19 1
    24   17   37 1
    25   18   38 1
    26   19   20 1
    27   19   21 1
    28   19   39 1
    29   20   40 1
    30   21   22 1
    31   21   41 1
    32   22   23 ar
    33   22   32 ar
    34   23   24 ar
    35   23   42 1
    36   24   25 ar
    37   25   26 ar
    38   25   32 ar
    39   26   27 2
    40   26   28 ar
    41   28   29 ar
    42   28   43 1
    43   29   30 1
    44   29   31 ar
    45   30   44 1
    46   30   45 1
    47   31   32 ar
    48   31   46 1
@<TRIPOS>SUBSTRUCTURE
     1 GTP         1 GROUP 0 A     ****
@<TRIPOS>MOLECULE
[[[5-(2-amino-6-oxo-1,3-dihydropurin-2-ylium-9-yl)-3,4-dihydroxy-tetrahydrofuran-2-yl]methoxy-oxido-phosphoryl]oxy-oxido-phosphoryl] hydrogen phosphate
   46    48     1     0     0
SMALL
USER_CHARGES

@<TRIPOS>ATOM
      1 PG         -0.6226    5.6607   -1.9010 P.3       1 GTP         1.5400
      2 O1G         0.1437    4.7528   -0.9650 O.co2     1 GTP        -0.8909
      3 O2G        -1.2378    5.1238   -3.1742 O.co2     1 GTP        -0.8909
      4 O3G         0.3262    6.9341   -2.2807 O.3       1 GTP        -0.7980
      5 O3B        -1.7699    6.4524   -1.0521 O.3       1 GTP        -0.7612
      6 PB         -3.1074    5.8778   -0.3129 P.3       1 GTP         1.5847
      7 O1B        -3.7613    7.0067    0.4522 O.co2     1 GTP        -0.8859
      8 O2B        -3.8869    5.0298   -1.2931 O.co2     1 GTP        -0.8859
      9 O3A        -2.4032    4.8441    0.7361 O.3       1 GTP        -0.7486
     10 PA         -3.0798    3.8627    1.8536 P.3       1 GTP         1.5001
     11 O1A        -3.7618    4.7157    2.9012 O.co2     1 GTP        -0.8487
     12 O2A        -3.8250    2.7565    1.1390 O.co2     1 GTP        -0.8487
     13 O5'        -1.7336    3.1724    2.4750 O.3       1 GTP        -0.5474
     14 C5'        -0.8811    2.4285    1.6206 C.3       1 GTP         0.2547
     15 C4'        -0.1994    1.3333    2.4288 C.3       1 GTP         0.0926
     16 O4'        -1.1285    0.2356    2.5840 O.3       1 GTP        -0.3593
     17 C3'         1.0324    0.7610    1.7344 C.3       1 GTP         0.0907
     18 O3'         1.9175    0.2377    2.7247 O.3       1 GTP        -0.5209
     19 C2'         0.4468   -0.3802    0.9263 C.3       1 GTP         0.0305
     20 O2'         1.3993   -1.3703    0.5961 O.3       1 GTP        -0.5978
     21 C1'        -0.6159   -0.9100    1.8769 C.3       1 GTP         0.2339
     22 N9         -1.7127   -1.6108    1.2130 N.pl3     1 GTP        -0.1765
     23 C8         -2.8692   -1.0463    0.7355 C.ar      1 GTP         0.4947
     24 N7         -3.6707   -1.9381    0.1856 N.2       1 GTP        -0.5802
     25 C5         -3.0027   -3.1275    0.3134 C.ar      1 GTP         0.2279
     26 C6         -3.4659   -4.4142   -0.1355 C.ar      1 GTP         0.6513
     27 O6         -4.5328   -4.6133   -0.6980 O.2       1 GTP        -0.5111
     28 N1         -2.5102   -5.4606    0.1612 N.pl3     1 GTP        -0.4713
     29 C2         -1.2711   -5.2547    0.8113 C.ar      1 GTP         0.5256
     30 N2         -0.4228   -6.3256    1.0482 N.pl3     1 GTP        -0.8665
     31 N3         -0.9033   -3.9563    1.2146 N.pl3     1 GTP        -0.5398
     32 C4         -1.7979   -2.9400    0.9438 C.ar      1 GTP        -0.0275
     33 HOG3       -0.0314    7.6190   -2.8851 H         1 GTP         0.4161
     34 H5'        -1.4800    1.9927    0.8146 H         1 GTP         0.0348
     35 H5''       -0.1367    3.1040    1.1872 H         1 GTP         0.0348
     36 H4'         0.0403    1.7078    3.4343 H         1 GTP         0.1215
     37 H3'         1.5907    1.4859    1.1353 H         1 GTP         0.0576
     38 HO3'        2.6839   -0.1150    2.2479 H         1 GTP         0.3842
     39 H2'        -0.0017    0.0018    0.0005 H         1 GTP         0.0252
     40 HO2'        2.0953   -0.9375    0.0709 H         1 GTP         0.4224
     41 H1'        -0.1998   -1.6319    2.6178 H         1 GTP         0.0745
     42 H8         -3.0691    0.0134    0.8177 H         1 GTP         0.1522
     43 HN1        -2.7468   -6.4119   -0.1177 H         1 GTP         0.3518
     44 HN21        0.4233   -6.1297    1.5018 H         1 GTP         0.4761
     45 HN22       -0.7261   -7.2071    0.7466 H         1 GTP         0.4761
     46 H46        -0.0124   -3.8015    1.6821 H         1 GTP         0.5030
@<TRIPOS>BOND
     1    1    2 2
     2    1    3 1
     3    1    4 1
     4    1    5 1
     5    4   33 1
     6    5    6 1
     7    6    7 2
     8    6    8 1
     9    6    9 1
    10    9   10 1
    11   10   11 2
    12   10   12 1
    13   10   13 1
    14   13   14 1
    15   14   15 1
    16   14   34 1
    17   14   35 1
    18   15   16 1
    19   15   17 1
    20   15   36 1
    21   16   21 1
    22   17   18 1
    23   17   19 1
    24   17   37 1
    25   18   38 1
    26   19   20 1
    27   19   21 1
    28   19   39 1
    29   20   40 1
    30   21   22 1
    31   21   41 1
    32   22   23 ar
    33   22   32 ar
    34   23   24 ar
    35   23   42 1
    36   24   25 ar
    37   25   26 ar
    38   25   32 ar
    39   26   27 2
    40   26   28 ar
    41   28   29 ar
    42   28   43 1
    43   29   30 1
    44   29   31 ar
    45   30   44 1
    46   30   45 1
    47   31   32 ar
    48   31   46 1
@<TRIPOS>SUBSTRUCTURE
     1 GTP         1 GROUP 0 A     ****
@<TRIPOS>MOLECULE
[[[5-(2-amino-6-oxo-1,3-dihydropurin-2-ylium-9-yl)-3,4-dihydroxy-tetrahydrofuran-2-yl]methoxy-oxido-phosphoryl]oxy-oxido-phosphoryl] hydrogen phosphate
   46    48     1     0     0
SMALL
USER_CHARGES

@<TRIPOS>ATOM
      1 PG         -0.1643    8.7462    1.9028 P.3       1 GTP         1.5400
      2 O1G         0.3910    9.1674    0.5606 O.co2     1 GTP        -0.8909
      3 O2G        -1.1369    9.6287    2.6532 O.co2     1 GTP        -0.8909
      4 O3G         1.0848    8.3925    2.8930 O.3       1 GTP        -0.7980
      5 O3B        -0.8031    7.2504    1.7677 O.3       1 GTP        -0.7612
      6 PB         -2.1077    6.7422    0.9279 P.3       1 GTP         1.5847
      7 O1B        -3.3453    7.3726    1.5264 O.co2     1 GTP        -0.8859
      8 O2B        -1.8085    6.8348   -0.5518 O.co2     1 GTP        -0.8859
      9 O3A        -2.0640    5.1559    1.3109 O.3       1 GTP        -0.7486
     10 PA         -2.1561    4.4278    2.7707 P.3       1 GTP         1.5001
     11 O1A        -0.9467    4.8245    3.5894 O.co2     1 GTP        -0.8487
     12 O2A        -3.5584    4.6024    3.3116 O.co2     1 GTP        -0.8487
     13 O5'        -2.0401    2.8620    2.3128 O.3       1 GTP        -0.5474
     14 C5'        -0.8811    2.4285    1.6206 C.3       1 GTP         0.2547
     15 C4'        -0.1994    1.3333    2.4288 C.3       1 GTP         0.0926
     16 O4'        -1.1285    0.2356    2.5840 O.3       1 GTP        -0.3593
     17 C3'         1.0324    0.7610    1.7344 C.3       1 GTP         0.0907
     18 O3'         1.9175    0.2377    2.7247 O.3       1 GTP        -0.5209
     19 C2'         0.4468   -0.3802    0.9263 C.3       1 GTP         0.0305
     20 O2'         1.3993   -1.3703    0.5961 O.3       1 GTP        -0.5978
     21 C1'        -0.6159   -0.9100    1.8769 C.3       1 GTP         0.2339
     22 N9         -1.7127   -1.6108    1.2130 N.pl3     1 GTP        -0.1765
     23 C8         -2.8692   -1.0463    0.7355 C.ar      1 GTP         0.4947
     24 N7         -3.6707   -1.9381    0.1856 N.2       1 GTP        -0.5802
     25 C5         -3.0027   -3.1275    0.3134 C.ar      1 GTP         0.2279
     26 C6         -3.4659   -4.4142   -0.1355 C.ar      1 GTP         0.6513
     27 O6         -4.5328   -4.6133   -0.6980 O.2       1 GTP        -0.5111
     28 N1         -2.5102   -5.4606    0.1612 N.pl3     1 GTP        -0.4713
     29 C2         -1.2711   -5.2547    0.8113 C.ar      1 GTP         0.5256
     30 N2         -0.4228   -6.3256    1.0482 N.pl3     1 GTP        -0.8665
     31 N3         -0.9033   -3.9563    1.2146 N.pl3     1 GTP        -0.5398
     32 C4         -1.7979   -2.9400    0.9438 C.ar      1 GTP        -0.0275
     33 HOG3        0.8869    8.1006    3.8084 H         1 GTP         0.4161
     34 H5'        -1.1767    2.0502    0.6368 H         1 GTP         0.0348
     35 H5''       -0.2080    3.2814    1.4876 H         1 GTP         0.0348
     36 H4'         0.0403    1.7078    3.4343 H         1 GTP         0.1215
     37 H3'         1.5907    1.4859    1.1353 H         1 GTP         0.0576
     38 HO3'        2.6839   -0.1150    2.2479 H         1 GTP         0.3842
     39 H2'        -0.0017    0.0018    0.0005 H         1 GTP         0.0252
     40 HO2'        0.9369   -2.0558    0.0825 H         1 GTP         0.4224
     41 H1'        -0.1998   -1.6319    2.6178 H         1 GTP         0.0745
     42 H8         -3.0691    0.0134    0.8177 H         1 GTP         0.1522
     43 HN1        -2.7468   -6.4119   -0.1177 H         1 GTP         0.3518
     44 HN21        0.4233   -6.1297    1.5018 H         1 GTP         0.4761
     45 HN22       -0.7261   -7.2071    0.7466 H         1 GTP         0.4761
     46 H46        -0.0124   -3.8015    1.6821 H         1 GTP         0.5030
@<TRIPOS>BOND
     1    1    2 2
     2    1    3 1
     3    1    4 1
     4    1    5 1
     5    4   33 1
     6    5    6 1
     7    6    7 2
     8    6    8 1
     9    6    9 1
    10    9   10 1
    11   10   11 2
    12   10   12 1
    13   10   13 1
    14   13   14 1
    15   14   15 1
    16   14   34 1
    17   14   35 1
    18   15   16 1
    19   15   17 1
    20   15   36 1
    21   16   21 1
    22   17   18 1
    23   17   19 1
    24   17   37 1
    25   18   38 1
    26   19   20 1
    27   19   21 1
    28   19   39 1
    29   20   40 1
    30   21   22 1
    31   21   41 1
    32   22   23 ar
    33   22   32 ar
    34   23   24 ar
    35   23   42 1
    36   24   25 ar
    37   25   26 ar
    38   25   32 ar
    39   26   27 2
    40   26   28 ar
    41   28   29 ar
    42   28   43 1
    43   29   30 1
    44   29   31 ar
    45   30   44 1
    46   30   45 1
    47   31   32 ar
    48   31   46 1
@<TRIPOS>SUBSTRUCTURE
     1 GTP         1 GROUP 0 A     ****
@<TRIPOS>MOLECULE
[[[5-(2-amino-6-oxo-1,3-dihydropurin-2-ylium-9-yl)-3,4-dihydroxy-tetrahydrofuran-2-yl]methoxy-oxido-phosphoryl]oxy-oxido-phosphoryl] hydrogen phosphate
   46    48     1     0     0
SMALL
USER_CHARGES

@<TRIPOS>ATOM
      1 PG         -5.9343    3.6728   -2.0432 P.3       1 GTP         1.5400
      2 O1G        -5.2322    4.6926   -2.9118 O.co2     1 GTP        -0.8909
      3 O2G        -6.4753    2.3896   -2.6336 O.co2     1 GTP        -0.8909
      4 O3G        -7.1406    4.4212   -1.2366 O.3       1 GTP        -0.7980
      5 O3B        -4.9771    3.3082   -0.7726 O.3       1 GTP        -0.7612
      6 PB         -5.2892    2.3938    0.5436 P.3       1 GTP         1.5847
      7 O1B        -6.3622    3.0747    1.3637 O.co2     1 GTP        -0.8859
      8 O2B        -5.4144    0.9471    0.1207 O.co2     1 GTP        -0.8859
      9 O3A        -3.8516    2.5312    1.3047 O.3       1 GTP        -0.7486
     10 PA         -3.0798    3.8627    1.8536 P.3       1 GTP         1.5001
     11 O1A        -2.7213    4.7387    0.6727 O.co2     1 GTP        -0.8487
     12 O2A        -3.8485    4.4163    3.0335 O.co2     1 GTP        -0.8487
     13 O5'        -1.7336    3.1724    2.4750 O.3       1 GTP        -0.5474
     14 C5'        -0.8811    2.4285    1.6206 C.3       1 GTP         0.2547
     15 C4'        -0.1994    1.3333    2.4288 C.3       1 GTP         0.0926
     16 O4'        -1.1285    0.2356    2.5840 O.3       1 GTP        -0.3593
     17 C3'         1.0324    0.7610    1.7344 C.3       1 GTP         0.0907
     18 O3'         1.9175    0.2377    2.7247 O.3       1 GTP        -0.5209
     19 C2'         0.4468   -0.3802    0.9263 C.3       1 GTP         0.0305
     20 O2'         1.3993   -1.3703    0.5961 O.3       1 GTP        -0.5978
     21 C1'        -0.6159   -0.9100    1.8769 C.3       1 GTP         0.2339
     22 N9         -1.7127   -1.6108    1.2130 N.pl3     1 GTP        -0.1765
     23 C8         -2.8692   -1.0463    0.7355 C.ar      1 GTP         0.4947
     24 N7         -3.6707   -1.9381    0.1856 N.2       1 GTP        -0.5802
     25 C5         -3.0027   -3.1275    0.3134 C.ar      1 GTP         0.2279
     26 C6         -3.4659   -4.4142   -0.1355 C.ar      1 GTP         0.6513
     27 O6         -4.5328   -4.6133   -0.6980 O.2       1 GTP        -0.5111
     28 N1         -2.5102   -5.4606    0.1612 N.pl3     1 GTP        -0.4713
     29 C2         -1.2711   -5.2547    0.8113 C.ar      1 GTP         0.5256
     30 N2         -0.4228   -6.3256    1.0482 N.pl3     1 GTP        -0.8665
     31 N3         -0.9033   -3.9563    1.2146 N.pl3     1 GTP        -0.5398
     32 C4         -1.7979   -2.9400    0.9438 C.ar      1 GTP        -0.0275
     33 HOG3       -7.6945    3.8893   -0.6262 H         1 GTP         0.4161
     34 H5'        -1.4800    1.9927    0.8146 H         1 GTP         0.0348
     35 H5''       -0.1367    3.1040    1.1872 H         1 GTP         0.0348
     36 H4'         0.0403    1.7078    3.4343 H         1 GTP         0.1215
     37 H3'         1.5907    1.4859    1.1353 H         1 GTP         0.0576
     38 HO3'        2.6839   -0.1150    2.2479 H         1 GTP         0.3842
     39 H2'        -0.0017    0.0018    0.0005 H         1 GTP         0.0252
     40 HO2'        0.9369   -2.0558    0.0825 H         1 GTP         0.4224
     41 H1'        -0.1998   -1.6319    2.6178 H         1 GTP         0.0745
     42 H8         -3.0691    0.0134    0.8177 H         1 GTP         0.1522
     43 HN1        -2.7468   -6.4119   -0.1177 H         1 GTP         0.3518
     44 HN21        0.4233   -6.1297    1.5018 H         1 GTP         0.4761
     45 HN22       -0.7261   -7.2071    0.7466 H         1 GTP         0.4761
     46 H46        -0.0124   -3.8015    1.6821 H         1 GTP         0.5030
@<TRIPOS>BOND
     1    1    2 2
     2    1    3 1
     3    1    4 1
     4    1    5 1
     5    4   33 1
     6    5    6 1
     7    6    7 2
     8    6    8 1
     9    6    9 1
    10    9   10 1
    11   10   11 2
    12   10   12 1
    13   10   13 1
    14   13   14 1
    15   14   15 1
    16   14   34 1
    17   14   35 1
    18   15   16 1
    19   15   17 1
    20   15   36 1
    21   16   21 1
    22   17   18 1
    23   17   19 1
    24   17   37 1
    25   18   38 1
    26   19   20 1
    27   19   21 1
    28   19   39 1
    29   20   40 1
    30   21   22 1
    31   21   41 1
    32   22   23 ar
    33   22   32 ar
    34   23   24 ar
    35   23   42 1
    36   24   25 ar
    37   25   26 ar
    38   25   32 ar
    39   26   27 2
    40   26   28 ar
    41   28   29 ar
    42   28   43 1
    43   29   30 1
    44   29   31 ar
    45   30   44 1
    46   30   45 1
    47   31   32 ar
    48   31   46 1
@<TRIPOS>SUBSTRUCTURE
     1 GTP         1 GROUP 0 A     ****
@<TRIPOS>MOLECULE
[[[5-(2-amino-6-oxo-1,3-dihydropurin-2-ylium-9-yl)-3,4-dihydroxy-tetrahydrofuran-2-yl]methoxy-oxido-phosphoryl]oxy-oxido-phosphoryl] hydrogen phosphate
   46    48     1     0     0
SMALL
USER_CHARGES

@<TRIPOS>ATOM
      1 PG         -5.2577    6.8467   -0.1445 P.3       1 GTP         1.5400
      2 O1G        -6.3085    6.4200    0.8561 O.co2     1 GTP        -0.8909
      3 O2G        -4.9391    8.3093   -0.3611 O.co2     1 GTP        -0.8909
      4 O3G        -5.6137    6.1742   -1.5891 O.3       1 GTP        -0.7980
      5 O3B        -3.8712    6.0437    0.1663 O.3       1 GTP        -0.7612
      6 PB         -2.4753    6.0007   -0.6794 P.3       1 GTP         1.5847
      7 O1B        -2.7346    5.3287   -2.0093 O.co2     1 GTP        -0.8859
      8 O2B        -1.8046    7.3536   -0.5934 O.co2     1 GTP        -0.8859
      9 O3A        -1.6181    4.9968    0.2809 O.3       1 GTP        -0.7486
     10 PA         -0.0889    4.4444    0.1193 P.3       1 GTP         1.5001
     11 O1A        -0.0111    3.5842   -1.1233 O.co2     1 GTP        -0.8487
     12 O2A         0.8677    5.5971    0.3340 O.co2     1 GTP        -0.8487
     13 O5'         0.0178    3.5131    1.4595 O.3       1 GTP        -0.5474
     14 C5'        -0.8811    2.4285    1.6206 C.3       1 GTP         0.2547
     15 C4'        -0.1994    1.3333    2.4288 C.3       1 GTP         0.0926
     16 O4'        -1.1285    0.2356    2.5840 O.3       1 GTP        -0.3593
     17 C3'         1.0324    0.7610    1.7344 C.3       1 GTP         0.0907
     18 O3'         1.9175    0.2377    2.7247 O.3       1 GTP        -0.5209
     19 C2'         0.4468   -0.3802    0.9263 C.3       1 GTP         0.0305
     20 O2'         1.3993   -1.3703    0.5961 O.3       1 GTP        -0.5978
     21 C1'        -0.6159   -0.9100    1.8769 C.3       1 GTP         0.2339
     22 N9         -1.7127   -1.6108    1.2130 N.pl3     1 GTP        -0.1765
     23 C8         -2.8692   -1.0463    0.7355 C.ar      1 GTP         0.4947
     24 N7         -3.6707   -1.9381    0.1856 N.2       1 GTP        -0.5802
     25 C5         -3.0027   -3.1275    0.3134 C.ar      1 GTP         0.2279
     26 C6         -3.4659   -4.4142   -0.1355 C.ar      1 GTP         0.6513
     27 O6         -4.5328   -4.6133   -0.6980 O.2       1 GTP        -0.5111
     28 N1         -2.5102   -5.4606    0.1612 N.pl3     1 GTP        -0.4713
     29 C2         -1.2711   -5.2547    0.8113 C.ar      1 GTP         0.5256
     30 N2         -0.4228   -6.3256    1.0482 N.pl3     1 GTP        -0.8665
     31 N3         -0.9033   -3.9563    1.2146 N.pl3     1 GTP        -0.5398
     32 C4         -1.7979   -2.9400    0.9438 C.ar      1 GTP        -0.0275
     33 HOG3       -5.0203    6.3576   -2.3485 H         1 GTP         0.4161
     34 H5'        -1.7771    2.7849    2.1387 H         1 GTP         0.0348
     35 H5''       -1.1654    2.0541    0.6320 H         1 GTP         0.0348
     36 H4'         0.0403    1.7078    3.4343 H         1 GTP         0.1215
     37 H3'         1.5907    1.4859    1.1353 H         1 GTP         0.0576
     38 HO3'        2.6839   -0.1150    2.2479 H         1 GTP         0.3842
     39 H2'        -0.0017    0.0018    0.0005 H         1 GTP         0.0252
     40 HO2'        2.0953   -0.9375    0.0709 H         1 GTP         0.4224
     41 H1'        -0.1998   -1.6319    2.6178 H         1 GTP         0.0745
     42 H8         -3.0691    0.0134    0.8177 H         1 GTP         0.1522
     43 HN1        -2.7468   -6.4119   -0.1177 H         1 GTP         0.3518
     44 HN21        0.4233   -6.1297    1.5018 H         1 GTP         0.4761
     45 HN22       -0.7261   -7.2071    0.7466 H         1 GTP         0.4761
     46 H46        -0.0124   -3.8015    1.6821 H         1 GTP         0.5030
@<TRIPOS>BOND
     1    1    2 2
     2    1    3 1
     3    1    4 1
     4    1    5 1
     5    4   33 1
     6    5    6 1
     7    6    7 2
     8    6    8 1
     9    6    9 1
    10    9   10 1
    11   10   11 2
    12   10   12 1
    13   10   13 1
    14   13   14 1
    15   14   15 1
    16   14   34 1
    17   14   35 1
    18   15   16 1
    19   15   17 1
    20   15   36 1
    21   16   21 1
    22   17   18 1
    23   17   19 1
    24   17   37 1
    25   18   38 1
    26   19   20 1
    27   19   21 1
    28   19   39 1
    29   20   40 1
    30   21   22 1
    31   21   41 1
    32   22   23 ar
    33   22   32 ar
    34   23   24 ar
    35   23   42 1
    36   24   25 ar
    37   25   26 ar
    38   25   32 ar
    39   26   27 2
    40   26   28 ar
    41   28   29 ar
    42   28   43 1
    43   29   30 1
    44   29   31 ar
    45   30   44 1
    46   30   45 1
    47   31   32 ar
    48   31   46 1
@<TRIPOS>SUBSTRUCTURE
     1 GTP         1 GROUP 0 A     ****
@<TRIPOS>MOLECULE
[[[5-(2-amino-6-oxo-1,3-dihydropurin-2-ylium-9-yl)-3,4-dihydroxy-tetrahydrofuran-2-yl]methoxy-oxido-phosphoryl]oxy-oxido-phosphoryl] hydrogen phosphate
   46    48     1     0     0
SMALL
USER_CHARGES

@<TRIPOS>ATOM
      1 PG         -3.7054    5.4481   -3.3489 P.3       1 GTP         1.5400
      2 O1G        -3.3603    4.3935   -4.3766 O.co2     1 GTP        -0.8909
      3 O2G        -5.0905    6.0530   -3.2909 O.co2     1 GTP        -0.8909
      4 O3G        -2.6154    6.6585   -3.4617 O.3       1 GTP        -0.7980
      5 O3B        -3.3072    4.8950   -1.8659 O.3       1 GTP        -0.7612
      6 PB         -3.3194    5.6630   -0.4251 P.3       1 GTP         1.5847
      7 O1B        -2.2797    6.7610   -0.4521 O.co2     1 GTP        -0.8859
      8 O2B        -4.7518    5.9385   -0.0252 O.co2     1 GTP        -0.8859
      9 O3A        -2.7994    4.4428    0.5264 O.3       1 GTP        -0.7486
     10 PA         -2.5400    4.4095    2.1393 P.3       1 GTP         1.5001
     11 O1A        -1.4132    5.3638    2.4707 O.co2     1 GTP        -0.8487
     12 O2A        -3.8748    4.4994    2.8464 O.co2     1 GTP        -0.8487
     13 O5'        -2.0401    2.8620    2.3128 O.3       1 GTP        -0.5474
     14 C5'        -0.8811    2.4285    1.6206 C.3       1 GTP         0.2547
     15 C4'        -0.1994    1.3333    2.4288 C.3       1 GTP         0.0926
     16 O4'        -1.1285    0.2356    2.5840 O.3       1 GTP        -0.3593
     17 C3'         1.0324    0.7610    1.7344 C.3       1 GTP         0.0907
     18 O3'         1.9175    0.2377    2.7247 O.3       1 GTP        -0.5209
     19 C2'         0.4468   -0.3802    0.9263 C.3       1 GTP         0.0305
     20 O2'         1.3993   -1.3703    0.5961 O.3       1 GTP        -0.5978
     21 C1'        -0.6159   -0.9100    1.8769 C.3       1 GTP         0.2339
     22 N9         -1.7127   -1.6108    1.2130 N.pl3     1 GTP        -0.1765
     23 C8         -1.7789   -2.9564    0.9503 C.ar      1 GTP         0.4947
     24 N7         -2.8980   -3.2916    0.3377 N.2       1 GTP        -0.5802
     25 C5         -3.5824   -2.1127    0.2000 C.ar      1 GTP         0.2279
     26 C6         -4.8740   -1.9471   -0.4133 C.ar      1 GTP         0.6513
     27 O6         -5.5366   -2.8529   -0.8978 O.2       1 GTP        -0.5111
     28 N1         -5.3036   -0.5645   -0.3916 N.pl3     1 GTP        -0.4713
     29 C2         -4.5545    0.4997    0.1619 C.ar      1 GTP         0.5256
     30 N2         -5.0561    1.7921    0.1348 N.pl3     1 GTP        -0.8665
     31 N3         -3.2977    0.2393    0.7420 N.pl3     1 GTP        -0.5398
     32 C4         -2.8643   -1.0716    0.7336 C.ar      1 GTP        -0.0275
     33 HOG3       -2.7043    7.4248   -2.8557 H         1 GTP         0.4161
     34 H5'        -1.1767    2.0502    0.6368 H         1 GTP         0.0348
     35 H5''       -0.2080    3.2814    1.4876 H         1 GTP         0.0348
     36 H4'         0.0403    1.7078    3.4343 H         1 GTP         0.1215
     37 H3'         1.5907    1.4859    1.1353 H         1 GTP         0.0576
     38 HO3'        2.6839   -0.1150    2.2479 H         1 GTP         0.3842
     39 H2'        -0.0017    0.0018    0.0005 H         1 GTP         0.0252
     40 HO2'        0.9369   -2.0558    0.0825 H         1 GTP         0.4224
     41 H1'        -0.1998   -1.6319    2.6178 H         1 GTP         0.0745
     42 H8         -0.9852   -3.6367    1.2276 H         1 GTP         0.1522
     43 HN1        -6.2089   -0.3428   -0.8039 H         1 GTP         0.3518
     44 HN21       -4.4981    2.4933    0.5311 H         1 GTP         0.4761
     45 HN22       -5.9352    1.9183   -0.2793 H         1 GTP         0.4761
     46 H46        -2.7541    1.0010    1.1428 H         1 GTP         0.5030
@<TRIPOS>BOND
     1    1    2 2
     2    1    3 1
     3    1    4 1
     4    1    5 1
     5    4   33 1
     6    5    6 1
     7    6    7 2
     8    6    8 1
     9    6    9 1
    10    9   10 1
    11   10   11 2
    12   10   12 1
    13   10   13 1
    14   13   14 1
    15   14   15 1
    16   14   34 1
    17   14   35 1
    18   15   16 1
    19   15   17 1
    20   15   36 1
    21   16   21 1
    22   17   18 1
    23   17   19 1
    24   17   37 1
    25   18   38 1
    26   19   20 1
    27   19   21 1
    28   19   39 1
    29   20   40 1
    30   21   22 1
    31   21   41 1
    32   22   23 ar
    33   22   32 ar
    34   23   24 ar
    35   23   42 1
    36   24   25 ar
    37   25   26 ar
    38   25   32 ar
    39   26   27 2
    40   26   28 ar
    41   28   29 ar
    42   28   43 1
    43   29   30 1
    44   29   31 ar
    45   30   44 1
    46   30   45 1
    47   31   32 ar
    48   31   46 1
@<TRIPOS>SUBSTRUCTURE
     1 GTP         1 GROUP 0 A     ****
@<TRIPOS>MOLECULE
[[[5-(2-amino-6-oxo-1,3-dihydropurin-2-ylium-9-yl)-3,4-dihydroxy-tetrahydrofuran-2-yl]methoxy-oxido-phosphoryl]oxy-oxido-phosphoryl] hydrogen phosphate
   46    48     1     0     0
SMALL
USER_CHARGES

@<TRIPOS>ATOM
      1 PG         -3.1127    5.4544   -3.5147 P.3       1 GTP         1.5400
      2 O1G        -2.6453    6.8194   -3.9681 O.co2     1 GTP        -0.8909
      3 O2G        -2.9571    4.2434   -4.4074 O.co2     1 GTP        -0.8909
      4 O3G        -4.6771    5.5663   -3.0607 O.3       1 GTP        -0.7980
      5 O3B        -2.4559    5.1251   -2.0573 O.3       1 GTP        -0.7612
      6 PB         -2.4753    6.0007   -0.6794 P.3       1 GTP         1.5847
      7 O1B        -1.6929    7.2755   -0.9040 O.co2     1 GTP        -0.8859
      8 O2B        -3.8838    6.0228   -0.1287 O.co2     1 GTP        -0.8859
      9 O3A        -1.6181    4.9968    0.2809 O.3       1 GTP        -0.7486
     10 PA         -0.0889    4.4444    0.1193 P.3       1 GTP         1.5001
     11 O1A        -0.0111    3.5842   -1.1233 O.co2     1 GTP        -0.8487
     12 O2A         0.8677    5.5971    0.3340 O.co2     1 GTP        -0.8487
     13 O5'         0.0178    3.5131    1.4595 O.3       1 GTP        -0.5474
     14 C5'        -0.8811    2.4285    1.6206 C.3       1 GTP         0.2547
     15 C4'        -0.1994    1.3333    2.4288 C.3       1 GTP         0.0926
     16 O4'        -1.1285    0.2356    2.5840 O.3       1 GTP        -0.3593
     17 C3'         1.0324    0.7610    1.7344 C.3       1 GTP         0.0907
     18 O3'         1.9175    0.2377    2.7247 O.3       1 GTP        -0.5209
     19 C2'         0.4468   -0.3802    0.9263 C.3       1 GTP         0.0305
     20 O2'         1.3993   -1.3703    0.5961 O.3       1 GTP        -0.5978
     21 C1'        -0.6159   -0.9100    1.8769 C.3       1 GTP         0.2339
     22 N9         -1.7127   -1.6108    1.2130 N.pl3     1 GTP        -0.1765
     23 C8         -2.8692   -1.0463    0.7355 C.ar      1 GTP         0.4947
     24 N7         -3.6707   -1.9381    0.1856 N.2       1 GTP        -0.5802
     25 C5         -3.0027   -3.1275    0.3134 C.ar      1 GTP         0.2279
     26 C6         -3.4659   -4.4142   -0.1355 C.ar      1 GTP         0.6513
     27 O6         -4.5328   -4.6133   -0.6980 O.2       1 GTP        -0.5111
     28 N1         -2.5102   -5.4606    0.1612 N.pl3     1 GTP        -0.4713
     29 C2         -1.2711   -5.2547    0.8113 C.ar      1 GTP         0.5256
     30 N2         -0.4228   -6.3256    1.0482 N.pl3     1 GTP        -0.8665
     31 N3         -0.9033   -3.9563    1.2146 N.pl3     1 GTP        -0.5398
     32 C4         -1.7979   -2.9400    0.9438 C.ar      1 GTP        -0.0275
     33 HOG3       -5.1287    4.7573   -2.7385 H         1 GTP         0.4161
     34 H5'        -1.7771    2.7849    2.1387 H         1 GTP         0.0348
     35 H5''       -1.1654    2.0541    0.6320 H         1 GTP         0.0348
     36 H4'         0.0403    1.7078    3.4343 H         1 GTP         0.1215
     37 H3'         1.5907    1.4859    1.1353 H         1 GTP         0.0576
     38 HO3'        2.6839   -0.1150    2.2479 H         1 GTP         0.3842
     39 H2'        -0.0017    0.0018    0.0005 H         1 GTP         0.0252
     40 HO2'        0.9369   -2.0558    0.0825 H         1 GTP         0.4224
     41 H1'        -0.1998   -1.6319    2.6178 H         1 GTP         0.0745
     42 H8         -3.0691    0.0134    0.8177 H         1 GTP         0.1522
     43 HN1        -2.7468   -6.4119   -0.1177 H         1 GTP         0.3518
     44 HN21        0.4233   -6.1297    1.5018 H         1 GTP         0.4761
     45 HN22       -0.7261   -7.2071    0.7466 H         1 GTP         0.4761
     46 H46        -0.0124   -3.8015    1.6821 H         1 GTP         0.5030
@<TRIPOS>BOND
     1    1    2 2
     2    1    3 1
     3    1    4 1
     4    1    5 1
     5    4   33 1
     6    5    6 1
     7    6    7 2
     8    6    8 1
     9    6    9 1
    10    9   10 1
    11   10   11 2
    12   10   12 1
    13   10   13 1
    14   13   14 1
    15   14   15 1
    16   14   34 1
    17   14   35 1
    18   15   16 1
    19   15   17 1
    20   15   36 1
    21   16   21 1
    22   17   18 1
    23   17   19 1
    24   17   37 1
    25   18   38 1
    26   19   20 1
    27   19   21 1
    28   19   39 1
    29   20   40 1
    30   21   22 1
    31   21   41 1
    32   22   23 ar
    33   22   32 ar
    34   23   24 ar
    35   23   42 1
    36   24   25 ar
    37   25   26 ar
    38   25   32 ar
    39   26   27 2
    40   26   28 ar
    41   28   29 ar
    42   28   43 1
    43   29   30 1
    44   29   31 ar
    45   30   44 1
    46   30   45 1
    47   31   32 ar
    48   31   46 1
@<TRIPOS>SUBSTRUCTURE
     1 GTP         1 GROUP 0 A     ****
@<TRIPOS>MOLECULE
[[[5-(2-amino-6-oxo-1,3-dihydropurin-2-ylium-9-yl)-3,4-dihydroxy-tetrahydrofuran-2-yl]methoxy-oxido-phosphoryl]oxy-oxido-phosphoryl] hydrogen phosphate
   46    48     1     0     0
SMALL
USER_CHARGES

@<TRIPOS>ATOM
      1 PG          0.9754    3.4956   -3.1737 P.3       1 GTP         1.5400
      2 O1G         1.9620    4.5231   -3.6819 O.co2     1 GTP        -0.8909
      3 O2G         1.2982    2.6361   -1.9717 O.co2     1 GTP        -0.8909
      4 O3G         0.5599    2.5178   -4.4136 O.3       1 GTP        -0.7980
      5 O3B        -0.4684    4.2181   -2.9349 O.3       1 GTP        -0.7612
      6 PB         -0.9015    5.3557   -1.8469 P.3       1 GTP         1.5847
      7 O1B         0.0399    6.5325   -1.9751 O.co2     1 GTP        -0.8859
      8 O2B        -2.4027    5.5343   -1.8908 O.co2     1 GTP        -0.8859
      9 O3A        -0.5719    4.5412   -0.4711 O.3       1 GTP        -0.7486
     10 PA         -0.7385    5.0053    1.0867 P.3       1 GTP         1.5001
     11 O1A         0.2027    6.1600    1.3536 O.co2     1 GTP        -0.8487
     12 O2A        -2.2139    5.1088    1.4062 O.co2     1 GTP        -0.8487
     13 O5'        -0.2062    3.6557    1.8417 O.3       1 GTP        -0.5474
     14 C5'        -0.8811    2.4285    1.6206 C.3       1 GTP         0.2547
     15 C4'        -0.1994    1.3333    2.4288 C.3       1 GTP         0.0926
     16 O4'        -1.1285    0.2356    2.5840 O.3       1 GTP        -0.3593
     17 C3'         1.0324    0.7610    1.7344 C.3       1 GTP         0.0907
     18 O3'         1.9175    0.2377    2.7247 O.3       1 GTP        -0.5209
     19 C2'         0.4468   -0.3802    0.9263 C.3       1 GTP         0.0305
     20 O2'         1.3993   -1.3703    0.5961 O.3       1 GTP        -0.5978
     21 C1'        -0.6159   -0.9100    1.8769 C.3       1 GTP         0.2339
     22 N9         -1.7127   -1.6108    1.2130 N.pl3     1 GTP        -0.1765
     23 C8         -2.8692   -1.0463    0.7355 C.ar      1 GTP         0.4947
     24 N7         -3.6707   -1.9381    0.1856 N.2       1 GTP        -0.5802
     25 C5         -3.0027   -3.1275    0.3134 C.ar      1 GTP         0.2279
     26 C6         -3.4659   -4.4142   -0.1355 C.ar      1 GTP         0.6513
     27 O6         -4.5328   -4.6133   -0.6980 O.2       1 GTP        -0.5111
     28 N1         -2.5102   -5.4606    0.1612 N.pl3     1 GTP        -0.4713
     29 C2         -1.2711   -5.2547    0.8113 C.ar      1 GTP         0.5256
     30 N2         -0.4228   -6.3256    1.0482 N.pl3     1 GTP        -0.8665
     31 N3         -0.9033   -3.9563    1.2146 N.pl3     1 GTP        -0.5398
     32 C4         -1.7979   -2.9400    0.9438 C.ar      1 GTP        -0.0275
     33 HOG3       -0.0789    1.7931   -4.2429 H         1 GTP         0.4161
     34 H5'        -1.9256    2.5380    1.9293 H         1 GTP         0.0348
     35 H5''       -0.8474    2.1930    0.5521 H         1 GTP         0.0348
     36 H4'         0.0403    1.7078    3.4343 H         1 GTP         0.1215
     37 H3'         1.5907    1.4859    1.1353 H         1 GTP         0.0576
     38 HO3'        2.6839   -0.1150    2.2479 H         1 GTP         0.3842
     39 H2'        -0.0017    0.0018    0.0005 H         1 GTP         0.0252
     40 HO2'        2.0953   -0.9375    0.0709 H         1 GTP         0.4224
     41 H1'        -0.1998   -1.6319    2.6178 H         1 GTP         0.0745
     42 H8         -3.0691    0.0134    0.8177 H         1 GTP         0.1522
     43 HN1        -2.7468   -6.4119   -0.1177 H         1 GTP         0.3518
     44 HN21        0.4233   -6.1297    1.5018 H         1 GTP         0.4761
     45 HN22       -0.7261   -7.2071    0.7466 H         1 GTP         0.4761
     46 H46        -0.0124   -3.8015    1.6821 H         1 GTP         0.5030
@<TRIPOS>BOND
     1    1    2 2
     2    1    3 1
     3    1    4 1
     4    1    5 1
     5    4   33 1
     6    5    6 1
     7    6    7 2
     8    6    8 1
     9    6    9 1
    10    9   10 1
    11   10   11 2
    12   10   12 1
    13   10   13 1
    14   13   14 1
    15   14   15 1
    16   14   34 1
    17   14   35 1
    18   15   16 1
    19   15   17 1
    20   15   36 1
    21   16   21 1
    22   17   18 1
    23   17   19 1
    24   17   37 1
    25   18   38 1
    26   19   20 1
    27   19   21 1
    28   19   39 1
    29   20   40 1
    30   21   22 1
    31   21   41 1
    32   22   23 ar
    33   22   32 ar
    34   23   24 ar
    35   23   42 1
    36   24   25 ar
    37   25   26 ar
    38   25   32 ar
    39   26   27 2
    40   26   28 ar
    41   28   29 ar
    42   28   43 1
    43   29   30 1
    44   29   31 ar
    45   30   44 1
    46   30   45 1
    47   31   32 ar
    48   31   46 1
@<TRIPOS>SUBSTRUCTURE
     1 GTP         1 GROUP 0 A     ****
@<TRIPOS>MOLECULE
[[[5-(2-amino-6-oxo-1,3-dihydropurin-2-ylium-9-yl)-3,4-dihydroxy-tetrahydrofuran-2-yl]methoxy-oxido-phosphoryl]oxy-oxido-phosphoryl] hydrogen phosphate
   46    48     1     0     0
SMALL
USER_CHARGES

@<TRIPOS>ATOM
      1 PG         -1.8330    3.3303   -4.7096 P.3       1 GTP         1.5400
      2 O1G        -1.0479    4.3120   -5.5505 O.co2     1 GTP        -0.8909
      3 O2G        -1.8679    1.8596   -5.0613 O.co2     1 GTP        -0.8909
      4 O3G        -3.3689    3.8692   -4.5815 O.3       1 GTP        -0.7980
      5 O3B        -1.3844    3.4903   -3.1485 O.3       1 GTP        -0.7612
      6 PB         -1.3288    4.8235   -2.2077 P.3       1 GTP         1.5847
      7 O1B        -0.2754    5.7602   -2.7559 O.co2     1 GTP        -0.8859
      8 O2B        -2.7401    5.2929   -1.9334 O.co2     1 GTP        -0.8859
      9 O3A        -0.7889    4.1455   -0.8244 O.3       1 GTP        -0.7486
     10 PA         -0.4665    4.8322    0.6228 P.3       1 GTP         1.5001
     11 O1A         0.6860    5.7988    0.4566 O.co2     1 GTP        -0.8487
     12 O2A        -1.7709    5.2708    1.2521 O.co2     1 GTP        -0.8487
     13 O5'         0.0178    3.5131    1.4595 O.3       1 GTP        -0.5474
     14 C5'        -0.8811    2.4285    1.6206 C.3       1 GTP         0.2547
     15 C4'        -0.1994    1.3333    2.4288 C.3       1 GTP         0.0926
     16 O4'        -1.1285    0.2356    2.5840 O.3       1 GTP        -0.3593
     17 C3'         1.0324    0.7610    1.7344 C.3       1 GTP         0.0907
     18 O3'         1.9175    0.2377    2.7247 O.3       1 GTP        -0.5209
     19 C2'         0.4468   -0.3802    0.9263 C.3       1 GTP         0.0305
     20 O2'         1.3993   -1.3703    0.5961 O.3       1 GTP        -0.5978
     21 C1'        -0.6159   -0.9100    1.8769 C.3       1 GTP         0.2339
     22 N9         -1.7127   -1.6108    1.2130 N.pl3     1 GTP        -0.1765
     23 C8         -2.8692   -1.0463    0.7355 C.ar      1 GTP         0.4947
     24 N7         -3.6707   -1.9381    0.1856 N.2       1 GTP        -0.5802
     25 C5         -3.0027   -3.1275    0.3134 C.ar      1 GTP         0.2279
     26 C6         -3.4659   -4.4142   -0.1355 C.ar      1 GTP         0.6513
     27 O6         -4.5328   -4.6133   -0.6980 O.2       1 GTP        -0.5111
     28 N1         -2.5102   -5.4606    0.1612 N.pl3     1 GTP        -0.4713
     29 C2         -1.2711   -5.2547    0.8113 C.ar      1 GTP         0.5256
     30 N2         -0.4228   -6.3256    1.0482 N.pl3     1 GTP        -0.8665
     31 N3         -0.9033   -3.9563    1.2146 N.pl3     1 GTP        -0.5398
     32 C4         -1.7979   -2.9400    0.9438 C.ar      1 GTP        -0.0275
     33 HOG3       -4.0085    3.3373   -4.0616 H         1 GTP         0.4161
     34 H5'        -1.7771    2.7849    2.1387 H         1 GTP         0.0348
     35 H5''       -1.1654    2.0541    0.6320 H         1 GTP         0.0348
     36 H4'         0.0403    1.7078    3.4343 H         1 GTP         0.1215
     37 H3'         1.5907    1.4859    1.1353 H         1 GTP         0.0576
     38 HO3'        2.6839   -0.1150    2.2479 H         1 GTP         0.3842
     39 H2'        -0.0017    0.0018    0.0005 H         1 GTP         0.0252
     40 HO2'        2.0953   -0.9375    0.0709 H         1 GTP         0.4224
     41 H1'        -0.1998   -1.6319    2.6178 H         1 GTP         0.0745
     42 H8         -3.0691    0.0134    0.8177 H         1 GTP         0.1522
     43 HN1        -2.7468   -6.4119   -0.1177 H         1 GTP         0.3518
     44 HN21        0.4233   -6.1297    1.5018 H         1 GTP         0.4761
     45 HN22       -0.7261   -7.2071    0.7466 H         1 GTP         0.4761
     46 H46        -0.0124   -3.8015    1.6821 H         1 GTP         0.5030
@<TRIPOS>BOND
     1    1    2 2
     2    1    3 1
     3    1    4 1
     4    1    5 1
     5    4   33 1
     6    5    6 1
     7    6    7 2
     8    6    8 1
     9    6    9 1
    10    9   10 1
    11   10   11 2
    12   10   12 1
    13   10   13 1
    14   13   14 1
    15   14   15 1
    16   14   34 1
    17   14   35 1
    18   15   16 1
    19   15   17 1
    20   15   36 1
    21   16   21 1
    22   17   18 1
    23   17   19 1
    24   17   37 1
    25   18   38 1
    26   19   20 1
    27   19   21 1
    28   19   39 1
    29   20   40 1
    30   21   22 1
    31   21   41 1
    32   22   23 ar
    33   22   32 ar
    34   23   24 ar
    35   23   42 1
    36   24   25 ar
    37   25   26 ar
    38   25   32 ar
    39   26   27 2
    40   26   28 ar
    41   28   29 ar
    42   28   43 1
    43   29   30 1
    44   29   31 ar
    45   30   44 1
    46   30   45 1
    47   31   32 ar
    48   31   46 1
@<TRIPOS>SUBSTRUCTURE
     1 GTP         1 GROUP 0 A     ****
@<TRIPOS>MOLECULE
[[[5-(2-amino-6-oxo-1,3-dihydropurin-2-ylium-9-yl)-3,4-dihydroxy-tetrahydrofuran-2-yl]methoxy-oxido-phosphoryl]oxy-oxido-phosphoryl] hydrogen phosphate
   46    48     1     0     0
SMALL
USER_CHARGES

@<TRIPOS>ATOM
      1 PG         -6.7130    0.9863   -0.4810 P.3       1 GTP         1.5400
      2 O1G        -7.9911    1.3390    0.2466 O.co2     1 GTP        -0.8909
      3 O2G        -6.4400    1.5129   -1.8723 O.co2     1 GTP        -0.8909
      4 O3G        -6.5601   -0.6392   -0.5026 O.3       1 GTP        -0.7980
      5 O3B        -5.4407    1.3409    0.4779 O.3       1 GTP        -0.7612
      6 PB         -5.1305    0.8859    2.0149 P.3       1 GTP         1.5847
      7 O1B        -6.1703    1.5040    2.9227 O.co2     1 GTP        -0.8859
      8 O2B        -4.8384   -0.5979    2.0407 O.co2     1 GTP        -0.8859
      9 O3A        -3.7004    1.6434    2.2287 O.3       1 GTP        -0.7486
     10 PA         -3.3347    3.2338    2.1468 P.3       1 GTP         1.5001
     11 O1A        -3.5602    3.7126    0.7290 O.co2     1 GTP        -0.8487
     12 O2A        -3.9756    3.9393    3.3221 O.co2     1 GTP        -0.8487
     13 O5'        -1.7336    3.1724    2.4750 O.3       1 GTP        -0.5474
     14 C5'        -0.8811    2.4285    1.6206 C.3       1 GTP         0.2547
     15 C4'        -0.1994    1.3333    2.4288 C.3       1 GTP         0.0926
     16 O4'        -1.1285    0.2356    2.5840 O.3       1 GTP        -0.3593
     17 C3'         1.0324    0.7610    1.7344 C.3       1 GTP         0.0907
     18 O3'         1.9175    0.2377    2.7247 O.3       1 GTP        -0.5209
     19 C2'         0.4468   -0.3802    0.9263 C.3       1 GTP         0.0305
     20 O2'         1.3993   -1.3703    0.5961 O.3       1 GTP        -0.5978
     21 C1'        -0.6159   -0.9100    1.8769 C.3       1 GTP         0.2339
     22 N9         -1.7127   -1.6108    1.2130 N.pl3     1 GTP        -0.1765
     23 C8         -2.5534   -1.0907    0.2607 C.ar      1 GTP         0.4947
     24 N7         -3.4469   -1.9695   -0.1508 N.2       1 GTP        -0.5802
     25 C5         -3.1705   -3.1041    0.5657 C.ar      1 GTP         0.2279
     26 C6         -3.8738   -4.3568    0.4777 C.ar      1 GTP         0.6513
     27 O6         -4.8240   -4.5720   -0.2607 O.2       1 GTP        -0.5111
     28 N1         -3.3198   -5.3462    1.3780 N.pl3     1 GTP        -0.4713
     29 C2         -2.2226   -5.1203    2.2413 C.ar      1 GTP         0.5256
     30 N2         -1.7649   -6.1367    3.0659 N.pl3     1 GTP        -0.8665
     31 N3         -1.5969   -3.8585    2.2574 N.pl3     1 GTP        -0.5398
     32 C4         -2.1068   -2.8965    1.4082 C.ar      1 GTP        -0.0275
     33 HOG3       -5.7746   -1.0284   -0.9427 H         1 GTP         0.4161
     34 H5'        -1.4800    1.9927    0.8146 H         1 GTP         0.0348
     35 H5''       -0.1367    3.1040    1.1872 H         1 GTP         0.0348
     36 H4'         0.0403    1.7078    3.4343 H         1 GTP         0.1215
     37 H3'         1.5907    1.4859    1.1353 H         1 GTP         0.0576
     38 HO3'        2.6839   -0.1150    2.2479 H         1 GTP         0.3842
     39 H2'        -0.0017    0.0018    0.0005 H         1 GTP         0.0252
     40 HO2'        2.0953   -0.9375    0.0709 H         1 GTP         0.4224
     41 H1'        -0.1998   -1.6319    2.6178 H         1 GTP         0.0745
     42 H8         -2.4657   -0.0713   -0.0897 H         1 GTP         0.1522
     43 HN1        -3.7505   -6.2699    1.3904 H         1 GTP         0.3518
     44 HN21       -1.0023   -5.9289    3.6451 H         1 GTP         0.4761
     45 HN22       -2.2347   -6.9951    3.0150 H         1 GTP         0.4761
     46 H46        -0.8062   -3.6900    2.8760 H         1 GTP         0.5030
@<TRIPOS>BOND
     1    1    2 2
     2    1    3 1
     3    1    4 1
     4    1    5 1
     5    4   33 1
     6    5    6 1
     7    6    7 2
     8    6    8 1
     9    6    9 1
    10    9   10 1
    11   10   11 2
    12   10   12 1
    13   10   13 1
    14   13   14 1
    15   14   15 1
    16   14   34 1
    17   14   35 1
    18   15   16 1
    19   15   17 1
    20   15   36 1
    21   16   21 1
    22   17   18 1
    23   17   19 1
    24   17   37 1
    25   18   38 1
    26   19   20 1
    27   19   21 1
    28   19   39 1
    29   20   40 1
    30   21   22 1
    31   21   41 1
    32   22   23 ar
    33   22   32 ar
    34   23   24 ar
    35   23   42 1
    36   24   25 ar
    37   25   26 ar
    38   25   32 ar
    39   26   27 2
    40   26   28 ar
    41   28   29 ar
    42   28   43 1
    43   29   30 1
    44   29   31 ar
    45   30   44 1
    46   30   45 1
    47   31   32 ar
    48   31   46 1
@<TRIPOS>SUBSTRUCTURE
     1 GTP         1 GROUP 0 A     ****
@<TRIPOS>MOLECULE
[[[5-(2-amino-6-oxo-1,3-dihydropurin-2-ylium-9-yl)-3,4-dihydroxy-tetrahydrofuran-2-yl]methoxy-oxido-phosphoryl]oxy-oxido-phosphoryl] hydrogen phosphate
   46    48     1     0     0
SMALL
USER_CHARGES

@<TRIPOS>ATOM
      1 PG         -5.3862    7.6818    0.3220 P.3       1 GTP         1.5400
      2 O1G        -4.5877    8.9623    0.2216 O.co2     1 GTP        -0.8909
      3 O2G        -6.3497    7.2788   -0.7721 O.co2     1 GTP        -0.8909
      4 O3G        -6.1873    7.6802    1.7447 O.3       1 GTP        -0.7980
      5 O3B        -4.3662    6.4411    0.6119 O.3       1 GTP        -0.7612
      6 PB         -3.2101    5.7928   -0.3414 P.3       1 GTP         1.5847
      7 O1B        -3.8729    5.1553   -1.5421 O.co2     1 GTP        -0.8859
      8 O2B        -2.0822    6.7886   -0.4954 O.co2     1 GTP        -0.8859
      9 O3A        -2.6652    4.6274    0.6634 O.3       1 GTP        -0.7486
     10 PA         -2.0037    4.7528    2.1522 P.3       1 GTP         1.5001
     11 O1A        -0.6902    5.4959    2.0400 O.co2     1 GTP        -0.8487
     12 O2A        -3.0754    5.2004    3.1222 O.co2     1 GTP        -0.8487
     13 O5'        -1.7336    3.1724    2.4750 O.3       1 GTP        -0.5474
     14 C5'        -0.8811    2.4285    1.6206 C.3       1 GTP         0.2547
     15 C4'        -0.1994    1.3333    2.4288 C.3       1 GTP         0.0926
     16 O4'        -1.1285    0.2356    2.5840 O.3       1 GTP        -0.3593
     17 C3'         1.0324    0.7610    1.7344 C.3       1 GTP         0.0907
     18 O3'         1.9175    0.2377    2.7247 O.3       1 GTP        -0.5209
     19 C2'         0.4468   -0.3802    0.9263 C.3       1 GTP         0.0305
     20 O2'         1.3993   -1.3703    0.5961 O.3       1 GTP        -0.5978
     21 C1'        -0.6159   -0.9100    1.8769 C.3       1 GTP         0.2339
     22 N9         -1.7127   -1.6108    1.2130 N.pl3     1 GTP        -0.1765
     23 C8         -2.8692   -1.0463    0.7355 C.ar      1 GTP         0.4947
     24 N7         -3.6707   -1.9381    0.1856 N.2       1 GTP        -0.5802
     25 C5         -3.0027   -3.1275    0.3134 C.ar      1 GTP         0.2279
     26 C6         -3.4659   -4.4142   -0.1355 C.ar      1 GTP         0.6513
     27 O6         -4.5328   -4.6133   -0.6980 O.2       1 GTP        -0.5111
     28 N1         -2.5102   -5.4606    0.1612 N.pl3     1 GTP        -0.4713
     29 C2         -1.2711   -5.2547    0.8113 C.ar      1 GTP         0.5256
     30 N2         -0.4228   -6.3256    1.0482 N.pl3     1 GTP        -0.8665
     31 N3         -0.9033   -3.9563    1.2146 N.pl3     1 GTP        -0.5398
     32 C4         -1.7979   -2.9400    0.9438 C.ar      1 GTP        -0.0275
     33 HOG3       -6.7549    6.9097    1.9601 H         1 GTP         0.4161
     34 H5'        -1.4800    1.9927    0.8146 H         1 GTP         0.0348
     35 H5''       -0.1367    3.1040    1.1872 H         1 GTP         0.0348
     36 H4'         0.0403    1.7078    3.4343 H         1 GTP         0.1215
     37 H3'         1.5907    1.4859    1.1353 H         1 GTP         0.0576
     38 HO3'        2.1521    0.9800    3.3017 H         1 GTP         0.3842
     39 H2'        -0.0017    0.0018    0.0005 H         1 GTP         0.0252
     40 HO2'        0.9369   -2.0558    0.0825 H         1 GTP         0.4224
     41 H1'        -0.1998   -1.6319    2.6178 H         1 GTP         0.0745
     42 H8         -3.0691    0.0134    0.8177 H         1 GTP         0.1522
     43 HN1        -2.7468   -6.4119   -0.1177 H         1 GTP         0.3518
     44 HN21        0.4233   -6.1297    1.5018 H         1 GTP         0.4761
     45 HN22       -0.7261   -7.2071    0.7466 H         1 GTP         0.4761
     46 H46        -0.0124   -3.8015    1.6821 H         1 GTP         0.5030
@<TRIPOS>BOND
     1    1    2 2
     2    1    3 1
     3    1    4 1
     4    1    5 1
     5    4   33 1
     6    5    6 1
     7    6    7 2
     8    6    8 1
     9    6    9 1
    10    9   10 1
    11   10   11 2
    12   10   12 1
    13   10   13 1
    14   13   14 1
    15   14   15 1
    16   14   34 1
    17   14   35 1
    18   15   16 1
    19   15   17 1
    20   15   36 1
    21   16   21 1
    22   17   18 1
    23   17   19 1
    24   17   37 1
    25   18   38 1
    26   19   20 1
    27   19   21 1
    28   19   39 1
    29   20   40 1
    30   21   22 1
    31   21   41 1
    32   22   23 ar
    33   22   32 ar
    34   23   24 ar
    35   23   42 1
    36   24   25 ar
    37   25   26 ar
    38   25   32 ar
    39   26   27 2
    40   26   28 ar
    41   28   29 ar
    42   28   43 1
    43   29   30 1
    44   29   31 ar
    45   30   44 1
    46   30   45 1
    47   31   32 ar
    48   31   46 1
@<TRIPOS>SUBSTRUCTURE
     1 GTP         1 GROUP 0 A     ****
@<TRIPOS>MOLECULE
[[[5-(2-amino-6-oxo-1,3-dihydropurin-2-ylium-9-yl)-3,4-dihydroxy-tetrahydrofuran-2-yl]methoxy-oxido-phosphoryl]oxy-oxido-phosphoryl] hydrogen phosphate
   46    48     1     0     0
SMALL
USER_CHARGES

@<TRIPOS>ATOM
      1 PG          2.1506    5.7272    6.2810 P.3       1 GTP         1.5400
      2 O1G         2.9587    6.7675    5.5380 O.co2     1 GTP        -0.8909
      3 O2G         1.4896    6.0537    7.6016 O.co2     1 GTP        -0.8909
      4 O3G         3.0755    4.3963    6.4793 O.3       1 GTP        -0.7980
      5 O3B         1.0322    5.1018    5.2700 O.3       1 GTP        -0.7612
      6 PB         -0.2716    5.8082    4.5869 P.3       1 GTP         1.5847
      7 O1B        -1.2533    6.1725    5.6783 O.co2     1 GTP        -0.8859
      8 O2B         0.1949    6.8256    3.5697 O.co2     1 GTP        -0.8859
      9 O3A        -0.8451    4.5359    3.7400 O.3       1 GTP        -0.7486
     10 PA         -2.1561    4.4278    2.7707 P.3       1 GTP         1.5001
     11 O1A        -3.3990    4.6374    3.6082 O.co2     1 GTP        -0.8487
     12 O2A        -1.9055    5.2477    1.5239 O.co2     1 GTP        -0.8487
     13 O5'        -2.0401    2.8620    2.3128 O.3       1 GTP        -0.5474
     14 C5'        -0.8811    2.4285    1.6206 C.3       1 GTP         0.2547
     15 C4'        -0.1994    1.3333    2.4288 C.3       1 GTP         0.0926
     16 O4'        -1.1285    0.2356    2.5840 O.3       1 GTP        -0.3593
     17 C3'         1.0324    0.7610    1.7344 C.3       1 GTP         0.0907
     18 O3'         1.9175    0.2377    2.7247 O.3       1 GTP        -0.5209
     19 C2'         0.4468   -0.3802    0.9263 C.3       1 GTP         0.0305
     20 O2'         1.3993   -1.3703    0.5961 O.3       1 GTP        -0.5978
     21 C1'        -0.6159   -0.9100    1.8769 C.3       1 GTP         0.2339
     22 N9         -1.7127   -1.6108    1.2130 N.pl3     1 GTP        -0.1765
     23 C8         -2.8692   -1.0463    0.7355 C.ar      1 GTP         0.4947
     24 N7         -3.6707   -1.9381    0.1856 N.2       1 GTP        -0.5802
     25 C5         -3.0027   -3.1275    0.3134 C.ar      1 GTP         0.2279
     26 C6         -3.4659   -4.4142   -0.1355 C.ar      1 GTP         0.6513
     27 O6         -4.5328   -4.6133   -0.6980 O.2       1 GTP        -0.5111
     28 N1         -2.5102   -5.4606    0.1612 N.pl3     1 GTP        -0.4713
     29 C2         -1.2711   -5.2547    0.8113 C.ar      1 GTP         0.5256
     30 N2         -0.4228   -6.3256    1.0482 N.pl3     1 GTP        -0.8665
     31 N3         -0.9033   -3.9563    1.2146 N.pl3     1 GTP        -0.5398
     32 C4         -1.7979   -2.9400    0.9438 C.ar      1 GTP        -0.0275
     33 HOG3        2.6901    3.6254    6.9478 H         1 GTP         0.4161
     34 H5'        -1.1767    2.0502    0.6368 H         1 GTP         0.0348
     35 H5''       -0.2080    3.2814    1.4876 H         1 GTP         0.0348
     36 H4'         0.0403    1.7078    3.4343 H         1 GTP         0.1215
     37 H3'         1.5907    1.4859    1.1353 H         1 GTP         0.0576
     38 HO3'        2.6839   -0.1150    2.2479 H         1 GTP         0.3842
     39 H2'        -0.0017    0.0018    0.0005 H         1 GTP         0.0252
     40 HO2'        2.0953   -0.9375    0.0709 H         1 GTP         0.4224
     41 H1'        -0.1998   -1.6319    2.6178 H         1 GTP         0.0745
     42 H8         -3.0691    0.0134    0.8177 H         1 GTP         0.1522
     43 HN1        -2.7468   -6.4119   -0.1177 H         1 GTP         0.3518
     44 HN21        0.4233   -6.1297    1.5018 H         1 GTP         0.4761
     45 HN22       -0.7261   -7.2071    0.7466 H         1 GTP         0.4761
     46 H46        -0.0124   -3.8015    1.6821 H         1 GTP         0.5030
@<TRIPOS>BOND
     1    1    2 2
     2    1    3 1
     3    1    4 1
     4    1    5 1
     5    4   33 1
     6    5    6 1
     7    6    7 2
     8    6    8 1
     9    6    9 1
    10    9   10 1
    11   10   11 2
    12   10   12 1
    13   10   13 1
    14   13   14 1
    15   14   15 1
    16   14   34 1
    17   14   35 1
    18   15   16 1
    19   15   17 1
    20   15   36 1
    21   16   21 1
    22   17   18 1
    23   17   19 1
    24   17   37 1
    25   18   38 1
    26   19   20 1
    27   19   21 1
    28   19   39 1
    29   20   40 1
    30   21   22 1
    31   21   41 1
    32   22   23 ar
    33   22   32 ar
    34   23   24 ar
    35   23   42 1
    36   24   25 ar
    37   25   26 ar
    38   25   32 ar
    39   26   27 2
    40   26   28 ar
    41   28   29 ar
    42   28   43 1
    43   29   30 1
    44   29   31 ar
    45   30   44 1
    46   30   45 1
    47   31   32 ar
    48   31   46 1
@<TRIPOS>SUBSTRUCTURE
     1 GTP         1 GROUP 0 A     ****
@<TRIPOS>MOLECULE
[[[5-(2-amino-6-oxo-1,3-dihydropurin-2-ylium-9-yl)-3,4-dihydroxy-tetrahydrofuran-2-yl]methoxy-oxido-phosphoryl]oxy-oxido-phosphoryl] hydrogen phosphate
   46    48     1     0     0
SMALL
USER_CHARGES

@<TRIPOS>ATOM
      1 PG         -2.2008    0.0476    6.5485 P.3       1 GTP         1.5400
      2 O1G        -1.0819    0.8816    5.9655 O.co2     1 GTP        -0.8909
      3 O2G        -3.0209    0.5533    7.7143 O.co2     1 GTP        -0.8909
      4 O3G        -1.6052   -1.4233    6.9329 O.3       1 GTP        -0.7980
      5 O3B        -3.2101   -0.4014    5.3470 O.3       1 GTP        -0.7612
      6 PB         -4.2010    0.5060    4.4195 P.3       1 GTP         1.5847
      7 O1B        -4.8177   -0.3789    3.3592 O.co2     1 GTP        -0.8859
      8 O2B        -5.0515    1.3796    5.3145 O.co2     1 GTP        -0.8859
      9 O3A        -3.0915    1.4872    3.7332 O.3       1 GTP        -0.7486
     10 PA         -3.2890    2.7005    2.6567 P.3       1 GTP         1.5001
     11 O1A        -3.8147    2.1209    1.3614 O.co2     1 GTP        -0.8487
     12 O2A        -3.9964    3.8478    3.3444 O.co2     1 GTP        -0.8487
     13 O5'        -1.7336    3.1724    2.4750 O.3       1 GTP        -0.5474
     14 C5'        -0.8811    2.4285    1.6206 C.3       1 GTP         0.2547
     15 C4'        -0.1994    1.3333    2.4288 C.3       1 GTP         0.0926
     16 O4'        -1.1285    0.2356    2.5840 O.3       1 GTP        -0.3593
     17 C3'         1.0324    0.7610    1.7344 C.3       1 GTP         0.0907
     18 O3'         1.9175    0.2377    2.7247 O.3       1 GTP        -0.5209
     19 C2'         0.4468   -0.3802    0.9263 C.3       1 GTP         0.0305
     20 O2'         1.3993   -1.3703    0.5961 O.3       1 GTP        -0.5978
     21 C1'        -0.6159   -0.9100    1.8769 C.3       1 GTP         0.2339
     22 N9         -1.7127   -1.6108    1.2130 N.pl3     1 GTP        -0.1765
     23 C8         -2.5534   -1.0907    0.2607 C.ar      1 GTP         0.4947
     24 N7         -3.4469   -1.9695   -0.1508 N.2       1 GTP        -0.5802
     25 C5         -3.1705   -3.1041    0.5657 C.ar      1 GTP         0.2279
     26 C6         -3.8738   -4.3568    0.4777 C.ar      1 GTP         0.6513
     27 O6         -4.8240   -4.5720   -0.2607 O.2       1 GTP        -0.5111
     28 N1         -3.3198   -5.3462    1.3780 N.pl3     1 GTP        -0.4713
     29 C2         -2.2226   -5.1203    2.2413 C.ar      1 GTP         0.5256
     30 N2         -1.7649   -6.1367    3.0659 N.pl3     1 GTP        -0.8665
     31 N3         -1.5969   -3.8585    2.2574 N.pl3     1 GTP        -0.5398
     32 C4         -2.1068   -2.8965    1.4082 C.ar      1 GTP        -0.0275
     33 HOG3       -2.2135   -2.0852    7.3255 H         1 GTP         0.4161
     34 H5'        -1.4800    1.9927    0.8146 H         1 GTP         0.0348
     35 H5''       -0.1367    3.1040    1.1872 H         1 GTP         0.0348
     36 H4'         0.0403    1.7078    3.4343 H         1 GTP         0.1215
     37 H3'         1.5907    1.4859    1.1353 H         1 GTP         0.0576
     38 HO3'        2.6839   -0.1150    2.2479 H         1 GTP         0.3842
     39 H2'        -0.0017    0.0018    0.0005 H         1 GTP         0.0252
     40 HO2'        2.0953   -0.9375    0.0709 H         1 GTP         0.4224
     41 H1'        -0.1998   -1.6319    2.6178 H         1 GTP         0.0745
     42 H8         -2.4657   -0.0713   -0.0897 H         1 GTP         0.1522
     43 HN1        -3.7505   -6.2699    1.3904 H         1 GTP         0.3518
     44 HN21       -1.0023   -5.9289    3.6451 H         1 GTP         0.4761
     45 HN22       -2.2347   -6.9951    3.0150 H         1 GTP         0.4761
     46 H46        -0.8062   -3.6900    2.8760 H         1 GTP         0.5030
@<TRIPOS>BOND
     1    1    2 2
     2    1    3 1
     3    1    4 1
     4    1    5 1
     5    4   33 1
     6    5    6 1
     7    6    7 2
     8    6    8 1
     9    6    9 1
    10    9   10 1
    11   10   11 2
    12   10   12 1
    13   10   13 1
    14   13   14 1
    15   14   15 1
    16   14   34 1
    17   14   35 1
    18   15   16 1
    19   15   17 1
    20   15   36 1
    21   16   21 1
    22   17   18 1
    23   17   19 1
    24   17   37 1
    25   18   38 1
    26   19   20 1
    27   19   21 1
    28   19   39 1
    29   20   40 1
    30   21   22 1
    31   21   41 1
    32   22   23 ar
    33   22   32 ar
    34   23   24 ar
    35   23   42 1
    36   24   25 ar
    37   25   26 ar
    38   25   32 ar
    39   26   27 2
    40   26   28 ar
    41   28   29 ar
    42   28   43 1
    43   29   30 1
    44   29   31 ar
    45   30   44 1
    46   30   45 1
    47   31   32 ar
    48   31   46 1
@<TRIPOS>SUBSTRUCTURE
     1 GTP         1 GROUP 0 A     ****
@<TRIPOS>MOLECULE
[[[5-(2-amino-6-oxo-1,3-dihydropurin-2-ylium-9-yl)-3,4-dihydroxy-tetrahydrofuran-2-yl]methoxy-oxido-phosphoryl]oxy-oxido-phosphoryl] hydrogen phosphate
   46    48     1     0     0
SMALL
USER_CHARGES

@<TRIPOS>ATOM
      1 PG         -3.9303    8.7535    2.1456 P.3       1 GTP         1.5400
      2 O1G        -2.9189    9.7818    2.6006 O.co2     1 GTP        -0.8909
      3 O2G        -4.7540    8.9732    0.8962 O.co2     1 GTP        -0.8909
      4 O3G        -4.9442    8.4390    3.3862 O.3       1 GTP        -0.7980
      5 O3B        -3.2002    7.2971    2.0484 O.3       1 GTP        -0.7612
      6 PB         -2.0305    6.7790    1.0340 P.3       1 GTP         1.5847
      7 O1B        -2.5846    6.7553   -0.3731 O.co2     1 GTP        -0.8859
      8 O2B        -0.7390    7.4935    1.3644 O.co2     1 GTP        -0.8859
      9 O3A        -1.8672    5.2499    1.5817 O.3       1 GTP        -0.7486
     10 PA         -2.9646    4.0418    1.6587 P.3       1 GTP         1.5001
     11 O1A        -4.0615    4.4416    2.6216 O.co2     1 GTP        -0.8487
     12 O2A        -3.2861    3.5890    0.2511 O.co2     1 GTP        -0.8487
     13 O5'        -2.0401    2.8620    2.3128 O.3       1 GTP        -0.5474
     14 C5'        -0.8811    2.4285    1.6206 C.3       1 GTP         0.2547
     15 C4'        -0.1994    1.3333    2.4288 C.3       1 GTP         0.0926
     16 O4'        -1.1285    0.2356    2.5840 O.3       1 GTP        -0.3593
     17 C3'         1.0324    0.7610    1.7344 C.3       1 GTP         0.0907
     18 O3'         1.9175    0.2377    2.7247 O.3       1 GTP        -0.5209
     19 C2'         0.4468   -0.3802    0.9263 C.3       1 GTP         0.0305
     20 O2'         1.3993   -1.3703    0.5961 O.3       1 GTP        -0.5978
     21 C1'        -0.6159   -0.9100    1.8769 C.3       1 GTP         0.2339
     22 N9         -1.7127   -1.6108    1.2130 N.pl3     1 GTP        -0.1765
     23 C8         -1.6092   -2.7449    0.4467 C.ar      1 GTP         0.4947
     24 N7         -2.7778   -3.1416   -0.0191 N.2       1 GTP        -0.5802
     25 C5         -3.6725   -2.2253    0.4675 C.ar      1 GTP         0.2279
     26 C6         -5.0932   -2.2202    0.2371 C.ar      1 GTP         0.6513
     27 O6         -5.6933   -3.0474   -0.4337 O.2       1 GTP        -0.5111
     28 N1         -5.7390   -1.1061    0.8992 N.pl3     1 GTP        -0.4713
     29 C2         -5.0661   -0.1368    1.6789 C.ar      1 GTP         0.5256
     30 N2         -5.7774    0.8934    2.2749 N.pl3     1 GTP        -0.8665
     31 N3         -3.6705   -0.2251    1.8481 N.pl3     1 GTP        -0.5398
     32 C4         -3.0303   -1.2785    1.2262 C.ar      1 GTP        -0.0275
     33 HOG3       -5.6631    7.7861    3.2476 H         1 GTP         0.4161
     34 H5'        -1.1767    2.0502    0.6368 H         1 GTP         0.0348
     35 H5''       -0.2080    3.2814    1.4876 H         1 GTP         0.0348
     36 H4'         0.0403    1.7078    3.4343 H         1 GTP         0.1215
     37 H3'         1.5907    1.4859    1.1353 H         1 GTP         0.0576
     38 HO3'        2.6839   -0.1150    2.2479 H         1 GTP         0.3842
     39 H2'        -0.0017    0.0018    0.0005 H         1 GTP         0.0252
     40 HO2'        2.0953   -0.9375    0.0709 H         1 GTP         0.4224
     41 H1'        -0.1998   -1.6319    2.6178 H         1 GTP         0.0745
     42 H8         -0.6610   -3.2324    0.2653 H         1 GTP         0.1522
     43 HN1        -6.7487   -1.0139    0.7961 H         1 GTP         0.3518
     44 HN21       -5.2644    1.5388    2.8044 H         1 GTP         0.4761
     45 HN22       -6.7459    0.9078    2.1265 H         1 GTP         0.4761
     46 H46        -3.1807    0.4690    2.4089 H         1 GTP         0.5030
@<TRIPOS>BOND
     1    1    2 2
     2    1    3 1
     3    1    4 1
     4    1    5 1
     5    4   33 1
     6    5    6 1
     7    6    7 2
     8    6    8 1
     9    6    9 1
    10    9   10 1
    11   10   11 2
    12   10   12 1
    13   10   13 1
    14   13   14 1
    15   14   15 1
    16   14   34 1
    17   14   35 1
    18   15   16 1
    19   15   17 1
    20   15   36 1
    21   16   21 1
    22   17   18 1
    23   17   19 1
    24   17   37 1
    25   18   38 1
    26   19   20 1
    27   19   21 1
    28   19   39 1
    29   20   40 1
    30   21   22 1
    31   21   41 1
    32   22   23 ar
    33   22   32 ar
    34   23   24 ar
    35   23   42 1
    36   24   25 ar
    37   25   26 ar
    38   25   32 ar
    39   26   27 2
    40   26   28 ar
    41   28   29 ar
    42   28   43 1
    43   29   30 1
    44   29   31 ar
    45   30   44 1
    46   30   45 1
    47   31   32 ar
    48   31   46 1
@<TRIPOS>SUBSTRUCTURE
     1 GTP         1 GROUP 0 A     ****
@<TRIPOS>MOLECULE
[[[5-(2-amino-6-oxo-1,3-dihydropurin-2-ylium-9-yl)-3,4-dihydroxy-tetrahydrofuran-2-yl]methoxy-oxido-phosphoryl]oxy-oxido-phosphoryl] hydrogen phosphate
   46    48     1     0     0
SMALL
USER_CHARGES

@<TRIPOS>ATOM
      1 PG         -2.8061    7.4853   -1.7306 P.3       1 GTP         1.5400
      2 O1G        -4.0861    8.2223   -1.4056 O.co2     1 GTP        -0.8909
      3 O2G        -1.5507    8.2383   -2.1110 O.co2     1 GTP        -0.8909
      4 O3G        -3.1227    6.3842   -2.8939 O.3       1 GTP        -0.7980
      5 O3B        -2.4584    6.4603   -0.5090 O.3       1 GTP        -0.7612
      6 PB         -2.0305    6.7790    1.0340 P.3       1 GTP         1.5847
      7 O1B        -0.6809    7.4617    1.0317 O.co2     1 GTP        -0.8859
      8 O2B        -3.2162    7.3715    1.7624 O.co2     1 GTP        -0.8859
      9 O3A        -1.8672    5.2499    1.5817 O.3       1 GTP        -0.7486
     10 PA         -2.9646    4.0418    1.6587 P.3       1 GTP         1.5001
     11 O1A        -4.0615    4.4416    2.6216 O.co2     1 GTP        -0.8487
     12 O2A        -3.2861    3.5890    0.2511 O.co2     1 GTP        -0.8487
     13 O5'        -2.0401    2.8620    2.3128 O.3       1 GTP        -0.5474
     14 C5'        -0.8811    2.4285    1.6206 C.3       1 GTP         0.2547
     15 C4'        -0.1994    1.3333    2.4288 C.3       1 GTP         0.0926
     16 O4'        -1.1285    0.2356    2.5840 O.3       1 GTP        -0.3593
     17 C3'         1.0324    0.7610    1.7344 C.3       1 GTP         0.0907
     18 O3'         1.9175    0.2377    2.7247 O.3       1 GTP        -0.5209
     19 C2'         0.4468   -0.3802    0.9263 C.3       1 GTP         0.0305
     20 O2'         1.3993   -1.3703    0.5961 O.3       1 GTP        -0.5978
     21 C1'        -0.6159   -0.9100    1.8769 C.3       1 GTP         0.2339
     22 N9         -1.7127   -1.6108    1.2130 N.pl3     1 GTP        -0.1765
     23 C8         -1.6092   -2.7449    0.4467 C.ar      1 GTP         0.4947
     24 N7         -2.7778   -3.1416   -0.0191 N.2       1 GTP        -0.5802
     25 C5         -3.6725   -2.2253    0.4675 C.ar      1 GTP         0.2279
     26 C6         -5.0932   -2.2202    0.2371 C.ar      1 GTP         0.6513
     27 O6         -5.6933   -3.0474   -0.4337 O.2       1 GTP        -0.5111
     28 N1         -5.7390   -1.1061    0.8992 N.pl3     1 GTP        -0.4713
     29 C2         -5.0661   -0.1368    1.6789 C.ar      1 GTP         0.5256
     30 N2         -5.7774    0.8934    2.2749 N.pl3     1 GTP        -0.8665
     31 N3         -3.6705   -0.2251    1.8481 N.pl3     1 GTP        -0.5398
     32 C4         -3.0303   -1.2785    1.2262 C.ar      1 GTP        -0.0275
     33 HOG3       -2.3872    5.8208   -3.2162 H         1 GTP         0.4161
     34 H5'        -1.1767    2.0502    0.6368 H         1 GTP         0.0348
     35 H5''       -0.2080    3.2814    1.4876 H         1 GTP         0.0348
     36 H4'         0.0403    1.7078    3.4343 H         1 GTP         0.1215
     37 H3'         1.5907    1.4859    1.1353 H         1 GTP         0.0576
     38 HO3'        2.6839   -0.1150    2.2479 H         1 GTP         0.3842
     39 H2'        -0.0017    0.0018    0.0005 H         1 GTP         0.0252
     40 HO2'        2.0953   -0.9375    0.0709 H         1 GTP         0.4224
     41 H1'        -0.1998   -1.6319    2.6178 H         1 GTP         0.0745
     42 H8         -0.6610   -3.2324    0.2653 H         1 GTP         0.1522
     43 HN1        -6.7487   -1.0139    0.7961 H         1 GTP         0.3518
     44 HN21       -5.2644    1.5388    2.8044 H         1 GTP         0.4761
     45 HN22       -6.7459    0.9078    2.1265 H         1 GTP         0.4761
     46 H46        -3.1807    0.4690    2.4089 H         1 GTP         0.5030
@<TRIPOS>BOND
     1    1    2 2
     2    1    3 1
     3    1    4 1
     4    1    5 1
     5    4   33 1
     6    5    6 1
     7    6    7 2
     8    6    8 1
     9    6    9 1
    10    9   10 1
    11   10   11 2
    12   10   12 1
    13   10   13 1
    14   13   14 1
    15   14   15 1
    16   14   34 1
    17   14   35 1
    18   15   16 1
    19   15   17 1
    20   15   36 1
    21   16   21 1
    22   17   18 1
    23   17   19 1
    24   17   37 1
    25   18   38 1
    26   19   20 1
    27   19   21 1
    28   19   39 1
    29   20   40 1
    30   21   22 1
    31   21   41 1
    32   22   23 ar
    33   22   32 ar
    34   23   24 ar
    35   23   42 1
    36   24   25 ar
    37   25   26 ar
    38   25   32 ar
    39   26   27 2
    40   26   28 ar
    41   28   29 ar
    42   28   43 1
    43   29   30 1
    44   29   31 ar
    45   30   44 1
    46   30   45 1
    47   31   32 ar
    48   31   46 1
@<TRIPOS>SUBSTRUCTURE
     1 GTP         1 GROUP 0 A     ****
@<TRIPOS>MOLECULE
[[[5-(2-amino-6-oxo-1,3-dihydropurin-2-ylium-9-yl)-3,4-dihydroxy-tetrahydrofuran-2-yl]methoxy-oxido-phosphoryl]oxy-oxido-phosphoryl] hydrogen phosphate
   46    48     1     0     0
SMALL
USER_CHARGES

@<TRIPOS>ATOM
      1 PG         -5.0270    7.1455    3.1542 P.3       1 GTP         1.5400
      2 O1G        -4.5672    8.5114    3.6130 O.co2     1 GTP        -0.8909
      3 O2G        -6.1456    6.9999    2.1466 O.co2     1 GTP        -0.8909
      4 O3G        -5.3958    6.2530    4.4708 O.3       1 GTP        -0.7980
      5 O3B        -3.7335    6.2963    2.6350 O.3       1 GTP        -0.7612
      6 PB         -2.7700    6.5451    1.3406 P.3       1 GTP         1.5847
      7 O1B        -3.5862    6.3453    0.0831 O.co2     1 GTP        -0.8859
      8 O2B        -1.9562    7.8000    1.5654 O.co2     1 GTP        -0.8859
      9 O3A        -1.7457    5.2883    1.5313 O.3       1 GTP        -0.7486
     10 PA         -0.4665    4.8322    0.6228 P.3       1 GTP         1.5001
     11 O1A        -0.9631    4.4288   -0.7487 O.co2     1 GTP        -0.8487
     12 O2A         0.6338    5.8580    0.7859 O.co2     1 GTP        -0.8487
     13 O5'         0.0178    3.5131    1.4595 O.3       1 GTP        -0.5474
     14 C5'        -0.8811    2.4285    1.6206 C.3       1 GTP         0.2547
     15 C4'        -0.1994    1.3333    2.4288 C.3       1 GTP         0.0926
     16 O4'        -1.1285    0.2356    2.5840 O.3       1 GTP        -0.3593
     17 C3'         1.0324    0.7610    1.7344 C.3       1 GTP         0.0907
     18 O3'         1.9175    0.2377    2.7247 O.3       1 GTP        -0.5209
     19 C2'         0.4468   -0.3802    0.9263 C.3       1 GTP         0.0305
     20 O2'         1.3993   -1.3703    0.5961 O.3       1 GTP        -0.5978
     21 C1'        -0.6159   -0.9100    1.8769 C.3       1 GTP         0.2339
     22 N9         -1.7127   -1.6108    1.2130 N.pl3     1 GTP        -0.1765
     23 C8         -2.5534   -1.0907    0.2607 C.ar      1 GTP         0.4947
     24 N7         -3.4469   -1.9695   -0.1508 N.2       1 GTP        -0.5802
     25 C5         -3.1705   -3.1041    0.5657 C.ar      1 GTP         0.2279
     26 C6         -3.8738   -4.3568    0.4777 C.ar      1 GTP         0.6513
     27 O6         -4.8240   -4.5720   -0.2607 O.2       1 GTP        -0.5111
     28 N1         -3.3198   -5.3462    1.3780 N.pl3     1 GTP        -0.4713
     29 C2         -2.2226   -5.1203    2.2413 C.ar      1 GTP         0.5256
     30 N2         -1.7649   -6.1367    3.0659 N.pl3     1 GTP        -0.8665
     31 N3         -1.5969   -3.8585    2.2574 N.pl3     1 GTP        -0.5398
     32 C4         -2.1068   -2.8965    1.4082 C.ar      1 GTP        -0.0275
     33 HOG3       -5.7125    5.3341    4.3382 H         1 GTP         0.4161
     34 H5'        -1.7771    2.7849    2.1387 H         1 GTP         0.0348
     35 H5''       -1.1654    2.0541    0.6320 H         1 GTP         0.0348
     36 H4'         0.0403    1.7078    3.4343 H         1 GTP         0.1215
     37 H3'         1.5907    1.4859    1.1353 H         1 GTP         0.0576
     38 HO3'        2.6839   -0.1150    2.2479 H         1 GTP         0.3842
     39 H2'        -0.0017    0.0018    0.0005 H         1 GTP         0.0252
     40 HO2'        2.0953   -0.9375    0.0709 H         1 GTP         0.4224
     41 H1'        -0.1998   -1.6319    2.6178 H         1 GTP         0.0745
     42 H8         -2.4657   -0.0713   -0.0897 H         1 GTP         0.1522
     43 HN1        -3.7505   -6.2699    1.3904 H         1 GTP         0.3518
     44 HN21       -1.0023   -5.9289    3.6451 H         1 GTP         0.4761
     45 HN22       -2.2347   -6.9951    3.0150 H         1 GTP         0.4761
     46 H46        -0.8062   -3.6900    2.8760 H         1 GTP         0.5030
@<TRIPOS>BOND
     1    1    2 2
     2    1    3 1
     3    1    4 1
     4    1    5 1
     5    4   33 1
     6    5    6 1
     7    6    7 2
     8    6    8 1
     9    6    9 1
    10    9   10 1
    11   10   11 2
    12   10   12 1
    13   10   13 1
    14   13   14 1
    15   14   15 1
    16   14   34 1
    17   14   35 1
    18   15   16 1
    19   15   17 1
    20   15   36 1
    21   16   21 1
    22   17   18 1
    23   17   19 1
    24   17   37 1
    25   18   38 1
    26   19   20 1
    27   19   21 1
    28   19   39 1
    29   20   40 1
    30   21   22 1
    31   21   41 1
    32   22   23 ar
    33   22   32 ar
    34   23   24 ar
    35   23   42 1
    36   24   25 ar
    37   25   26 ar
    38   25   32 ar
    39   26   27 2
    40   26   28 ar
    41   28   29 ar
    42   28   43 1
    43   29   30 1
    44   29   31 ar
    45   30   44 1
    46   30   45 1
    47   31   32 ar
    48   31   46 1
@<TRIPOS>SUBSTRUCTURE
     1 GTP         1 GROUP 0 A     ****
@<TRIPOS>MOLECULE
[[[5-(2-amino-6-oxo-1,3-dihydropurin-2-ylium-9-yl)-3,4-dihydroxy-tetrahydrofuran-2-yl]methoxy-oxido-phosphoryl]oxy-oxido-phosphoryl] hydrogen phosphate
   46    48     1     0     0
SMALL
USER_CHARGES

@<TRIPOS>ATOM
      1 PG         -0.1672    5.7860    6.0829 P.3       1 GTP         1.5400
      2 O1G         0.3875    4.4813    5.5561 O.co2     1 GTP        -0.8909
      3 O2G         0.7327    6.9823    6.2989 O.co2     1 GTP        -0.8909
      4 O3G        -0.9713    5.4846    7.4715 O.3       1 GTP        -0.7980
      5 O3B        -1.4336    6.2370    5.1574 O.3       1 GTP        -0.7612
      6 PB         -1.4719    6.7071    3.5943 P.3       1 GTP         1.5847
      7 O1B        -2.9147    6.8833    3.1762 O.co2     1 GTP        -0.8859
      8 O2B        -0.4472    7.7992    3.3825 O.co2     1 GTP        -0.8859
      9 O3A        -0.8637    5.3603    2.9008 O.3       1 GTP        -0.7486
     10 PA         -0.5790    5.0299    1.3261 P.3       1 GTP         1.5001
     11 O1A        -1.8994    5.0096    0.5869 O.co2     1 GTP        -0.8487
     12 O2A         0.5706    5.8913    0.8506 O.co2     1 GTP        -0.8487
     13 O5'         0.0178    3.5131    1.4595 O.3       1 GTP        -0.5474
     14 C5'        -0.8811    2.4285    1.6206 C.3       1 GTP         0.2547
     15 C4'        -0.1994    1.3333    2.4288 C.3       1 GTP         0.0926
     16 O4'        -1.1285    0.2356    2.5840 O.3       1 GTP        -0.3593
     17 C3'         1.0324    0.7610    1.7344 C.3       1 GTP         0.0907
     18 O3'         1.9175    0.2377    2.7247 O.3       1 GTP        -0.5209
     19 C2'         0.4468   -0.3802    0.9263 C.3       1 GTP         0.0305
     20 O2'         1.3993   -1.3703    0.5961 O.3       1 GTP        -0.5978
     21 C1'        -0.6159   -0.9100    1.8769 C.3       1 GTP         0.2339
     22 N9         -1.7127   -1.6108    1.2130 N.pl3     1 GTP        -0.1765
     23 C8         -2.8692   -1.0463    0.7355 C.ar      1 GTP         0.4947
     24 N7         -3.6707   -1.9381    0.1856 N.2       1 GTP        -0.5802
     25 C5         -3.0027   -3.1275    0.3134 C.ar      1 GTP         0.2279
     26 C6         -3.4659   -4.4142   -0.1355 C.ar      1 GTP         0.6513
     27 O6         -4.5328   -4.6133   -0.6980 O.2       1 GTP        -0.5111
     28 N1         -2.5102   -5.4606    0.1612 N.pl3     1 GTP        -0.4713
     29 C2         -1.2711   -5.2547    0.8113 C.ar      1 GTP         0.5256
     30 N2         -0.4228   -6.3256    1.0482 N.pl3     1 GTP        -0.8665
     31 N3         -0.9033   -3.9563    1.2146 N.pl3     1 GTP        -0.5398
     32 C4         -1.7979   -2.9400    0.9438 C.ar      1 GTP        -0.0275
     33 HOG3       -1.3926    6.2367    7.9397 H         1 GTP         0.4161
     34 H5'        -1.7771    2.7849    2.1387 H         1 GTP         0.0348
     35 H5''       -1.1654    2.0541    0.6320 H         1 GTP         0.0348
     36 H4'         0.0403    1.7078    3.4343 H         1 GTP         0.1215
     37 H3'         1.5907    1.4859    1.1353 H         1 GTP         0.0576
     38 HO3'        2.1521    0.9800    3.3017 H         1 GTP         0.3842
     39 H2'        -0.0017    0.0018    0.0005 H         1 GTP         0.0252
     40 HO2'        0.9369   -2.0558    0.0825 H         1 GTP         0.4224
     41 H1'        -0.1998   -1.6319    2.6178 H         1 GTP         0.0745
     42 H8         -3.0691    0.0134    0.8177 H         1 GTP         0.1522
     43 HN1        -2.7468   -6.4119   -0.1177 H         1 GTP         0.3518
     44 HN21        0.4233   -6.1297    1.5018 H         1 GTP         0.4761
     45 HN22       -0.7261   -7.2071    0.7466 H         1 GTP         0.4761
     46 H46        -0.0124   -3.8015    1.6821 H         1 GTP         0.5030
@<TRIPOS>BOND
     1    1    2 2
     2    1    3 1
     3    1    4 1
     4    1    5 1
     5    4   33 1
     6    5    6 1
     7    6    7 2
     8    6    8 1
     9    6    9 1
    10    9   10 1
    11   10   11 2
    12   10   12 1
    13   10   13 1
    14   13   14 1
    15   14   15 1
    16   14   34 1
    17   14   35 1
    18   15   16 1
    19   15   17 1
    20   15   36 1
    21   16   21 1
    22   17   18 1
    23   17   19 1
    24   17   37 1
    25   18   38 1
    26   19   20 1
    27   19   21 1
    28   19   39 1
    29   20   40 1
    30   21   22 1
    31   21   41 1
    32   22   23 ar
    33   22   32 ar
    34   23   24 ar
    35   23   42 1
    36   24   25 ar
    37   25   26 ar
    38   25   32 ar
    39   26   27 2
    40   26   28 ar
    41   28   29 ar
    42   28   43 1
    43   29   30 1
    44   29   31 ar
    45   30   44 1
    46   30   45 1
    47   31   32 ar
    48   31   46 1
@<TRIPOS>SUBSTRUCTURE
     1 GTP         1 GROUP 0 A     ****
@<TRIPOS>MOLECULE
[[[5-(2-amino-6-oxo-1,3-dihydropurin-2-ylium-9-yl)-3,4-dihydroxy-tetrahydrofuran-2-yl]methoxy-oxido-phosphoryl]oxy-oxido-phosphoryl] hydrogen phosphate
   46    48     1     0     0
SMALL
USER_CHARGES

@<TRIPOS>ATOM
      1 PG         -2.5081    4.2059   -2.5157 P.3       1 GTP         1.5400
      2 O1G        -1.2954    3.9057   -1.6633 O.co2     1 GTP        -0.8909
      3 O2G        -3.1584    3.1250   -3.3503 O.co2     1 GTP        -0.8909
      4 O3G        -2.1592    5.4712   -3.4869 O.3       1 GTP        -0.7980
      5 O3B        -3.6478    4.9147   -1.5871 O.3       1 GTP        -0.7612
      6 PB         -4.5154    4.3030   -0.3467 P.3       1 GTP         1.5847
      7 O1B        -5.3377    5.4153    0.2649 O.co2     1 GTP        -0.8859
      8 O2B        -5.1465    2.9992   -0.7819 O.co2     1 GTP        -0.8859
      9 O3A        -3.2920    3.9119    0.6609 O.3       1 GTP        -0.7486
     10 PA         -3.3347    3.2338    2.1468 P.3       1 GTP         1.5001
     11 O1A        -4.0274    4.1866    3.0968 O.co2     1 GTP        -0.8487
     12 O2A        -3.7889    1.7968    2.0106 O.co2     1 GTP        -0.8487
     13 O5'        -1.7336    3.1724    2.4750 O.3       1 GTP        -0.5474
     14 C5'        -0.8811    2.4285    1.6206 C.3       1 GTP         0.2547
     15 C4'        -0.1994    1.3333    2.4288 C.3       1 GTP         0.0926
     16 O4'        -1.1285    0.2356    2.5840 O.3       1 GTP        -0.3593
     17 C3'         1.0324    0.7610    1.7344 C.3       1 GTP         0.0907
     18 O3'         1.9175    0.2377    2.7247 O.3       1 GTP        -0.5209
     19 C2'         0.4468   -0.3802    0.9263 C.3       1 GTP         0.0305
     20 O2'         1.3993   -1.3703    0.5961 O.3       1 GTP        -0.5978
     21 C1'        -0.6159   -0.9100    1.8769 C.3       1 GTP         0.2339
     22 N9         -1.7127   -1.6108    1.2130 N.pl3     1 GTP        -0.1765
     23 C8         -2.5534   -1.0907    0.2607 C.ar      1 GTP         0.4947
     24 N7         -3.4469   -1.9695   -0.1508 N.2       1 GTP        -0.5802
     25 C5         -3.1705   -3.1041    0.5657 C.ar      1 GTP         0.2279
     26 C6         -3.8738   -4.3568    0.4777 C.ar      1 GTP         0.6513
     27 O6         -4.8240   -4.5720   -0.2607 O.2       1 GTP        -0.5111
     28 N1         -3.3198   -5.3462    1.3780 N.pl3     1 GTP        -0.4713
     29 C2         -2.2226   -5.1203    2.2413 C.ar      1 GTP         0.5256
     30 N2         -1.7649   -6.1367    3.0659 N.pl3     1 GTP        -0.8665
     31 N3         -1.5969   -3.8585    2.2574 N.pl3     1 GTP        -0.5398
     32 C4         -2.1068   -2.8965    1.4082 C.ar      1 GTP        -0.0275
     33 HOG3       -2.8507    5.7897   -4.1055 H         1 GTP         0.4161
     34 H5'        -1.4800    1.9927    0.8146 H         1 GTP         0.0348
     35 H5''       -0.1367    3.1040    1.1872 H         1 GTP         0.0348
     36 H4'         0.0403    1.7078    3.4343 H         1 GTP         0.1215
     37 H3'         1.5907    1.4859    1.1353 H         1 GTP         0.0576
     38 HO3'        2.1521    0.9800    3.3017 H         1 GTP         0.3842
     39 H2'        -0.0017    0.0018    0.0005 H         1 GTP         0.0252
     40 HO2'        2.0953   -0.9375    0.0709 H         1 GTP         0.4224
     41 H1'        -0.1998   -1.6319    2.6178 H         1 GTP         0.0745
     42 H8         -2.4657   -0.0713   -0.0897 H         1 GTP         0.1522
     43 HN1        -3.7505   -6.2699    1.3904 H         1 GTP         0.3518
     44 HN21       -1.0023   -5.9289    3.6451 H         1 GTP         0.4761
     45 HN22       -2.2347   -6.9951    3.0150 H         1 GTP         0.4761
     46 H46        -0.8062   -3.6900    2.8760 H         1 GTP         0.5030
@<TRIPOS>BOND
     1    1    2 2
     2    1    3 1
     3    1    4 1
     4    1    5 1
     5    4   33 1
     6    5    6 1
     7    6    7 2
     8    6    8 1
     9    6    9 1
    10    9   10 1
    11   10   11 2
    12   10   12 1
    13   10   13 1
    14   13   14 1
    15   14   15 1
    16   14   34 1
    17   14   35 1
    18   15   16 1
    19   15   17 1
    20   15   36 1
    21   16   21 1
    22   17   18 1
    23   17   19 1
    24   17   37 1
    25   18   38 1
    26   19   20 1
    27   19   21 1
    28   19   39 1
    29   20   40 1
    30   21   22 1
    31   21   41 1
    32   22   23 ar
    33   22   32 ar
    34   23   24 ar
    35   23   42 1
    36   24   25 ar
    37   25   26 ar
    38   25   32 ar
    39   26   27 2
    40   26   28 ar
    41   28   29 ar
    42   28   43 1
    43   29   30 1
    44   29   31 ar
    45   30   44 1
    46   30   45 1
    47   31   32 ar
    48   31   46 1
@<TRIPOS>SUBSTRUCTURE
     1 GTP         1 GROUP 0 A     ****
@<TRIPOS>MOLECULE
[[[5-(2-amino-6-oxo-1,3-dihydropurin-2-ylium-9-yl)-3,4-dihydroxy-tetrahydrofuran-2-yl]methoxy-oxido-phosphoryl]oxy-oxido-phosphoryl] hydrogen phosphate
   46    48     1     0     0
SMALL
USER_CHARGES

@<TRIPOS>ATOM
      1 PG         -1.9184    7.7971   -1.8280 P.3       1 GTP         1.5400
      2 O1G        -1.5987    7.1742   -3.1687 O.co2     1 GTP        -0.8909
      3 O2G        -3.1265    8.6904   -1.6543 O.co2     1 GTP        -0.8909
      4 O3G        -0.5987    8.6017   -1.3020 O.3       1 GTP        -0.7980
      5 O3B        -1.9604    6.6242   -0.6939 O.3       1 GTP        -0.7612
      6 PB         -2.1077    6.7422    0.9279 P.3       1 GTP         1.5847
      7 O1B        -0.8773    7.4287    1.4777 O.co2     1 GTP        -0.8859
      8 O2B        -3.5008    7.2265    1.2627 O.co2     1 GTP        -0.8859
      9 O3A        -2.0640    5.1559    1.3109 O.3       1 GTP        -0.7486
     10 PA         -2.1561    4.4278    2.7707 P.3       1 GTP         1.5001
     11 O1A        -0.9467    4.8245    3.5894 O.co2     1 GTP        -0.8487
     12 O2A        -3.5584    4.6024    3.3116 O.co2     1 GTP        -0.8487
     13 O5'        -2.0401    2.8620    2.3128 O.3       1 GTP        -0.5474
     14 C5'        -0.8811    2.4285    1.6206 C.3       1 GTP         0.2547
     15 C4'        -0.1994    1.3333    2.4288 C.3       1 GTP         0.0926
     16 O4'        -1.1285    0.2356    2.5840 O.3       1 GTP        -0.3593
     17 C3'         1.0324    0.7610    1.7344 C.3       1 GTP         0.0907
     18 O3'         1.9175    0.2377    2.7247 O.3       1 GTP        -0.5209
     19 C2'         0.4468   -0.3802    0.9263 C.3       1 GTP         0.0305
     20 O2'         1.3993   -1.3703    0.5961 O.3       1 GTP        -0.5978
     21 C1'        -0.6159   -0.9100    1.8769 C.3       1 GTP         0.2339
     22 N9         -1.7127   -1.6108    1.2130 N.pl3     1 GTP        -0.1765
     23 C8         -2.8692   -1.0463    0.7355 C.ar      1 GTP         0.4947
     24 N7         -3.6707   -1.9381    0.1856 N.2       1 GTP        -0.5802
     25 C5         -3.0027   -3.1275    0.3134 C.ar      1 GTP         0.2279
     26 C6         -3.4659   -4.4142   -0.1355 C.ar      1 GTP         0.6513
     27 O6         -4.5328   -4.6133   -0.6980 O.2       1 GTP        -0.5111
     28 N1         -2.5102   -5.4606    0.1612 N.pl3     1 GTP        -0.4713
     29 C2         -1.2711   -5.2547    0.8113 C.ar      1 GTP         0.5256
     30 N2         -0.4228   -6.3256    1.0482 N.pl3     1 GTP        -0.8665
     31 N3         -0.9033   -3.9563    1.2146 N.pl3     1 GTP        -0.5398
     32 C4         -1.7979   -2.9400    0.9438 C.ar      1 GTP        -0.0275
     33 HOG3       -0.6472    9.0641   -0.4382 H         1 GTP         0.4161
     34 H5'        -1.1767    2.0502    0.6368 H         1 GTP         0.0348
     35 H5''       -0.2080    3.2814    1.4876 H         1 GTP         0.0348
     36 H4'         0.0403    1.7078    3.4343 H         1 GTP         0.1215
     37 H3'         1.5907    1.4859    1.1353 H         1 GTP         0.0576
     38 HO3'        2.6839   -0.1150    2.2479 H         1 GTP         0.3842
     39 H2'        -0.0017    0.0018    0.0005 H         1 GTP         0.0252
     40 HO2'        2.0953   -0.9375    0.0709 H         1 GTP         0.4224
     41 H1'        -0.1998   -1.6319    2.6178 H         1 GTP         0.0745
     42 H8         -3.0691    0.0134    0.8177 H         1 GTP         0.1522
     43 HN1        -2.7468   -6.4119   -0.1177 H         1 GTP         0.3518
     44 HN21        0.4233   -6.1297    1.5018 H         1 GTP         0.4761
     45 HN22       -0.7261   -7.2071    0.7466 H         1 GTP         0.4761
     46 H46        -0.0124   -3.8015    1.6821 H         1 GTP         0.5030
@<TRIPOS>BOND
     1    1    2 2
     2    1    3 1
     3    1    4 1
     4    1    5 1
     5    4   33 1
     6    5    6 1
     7    6    7 2
     8    6    8 1
     9    6    9 1
    10    9   10 1
    11   10   11 2
    12   10   12 1
    13   10   13 1
    14   13   14 1
    15   14   15 1
    16   14   34 1
    17   14   35 1
    18   15   16 1
    19   15   17 1
    20   15   36 1
    21   16   21 1
    22   17   18 1
    23   17   19 1
    24   17   37 1
    25   18   38 1
    26   19   20 1
    27   19   21 1
    28   19   39 1
    29   20   40 1
    30   21   22 1
    31   21   41 1
    32   22   23 ar
    33   22   32 ar
    34   23   24 ar
    35   23   42 1
    36   24   25 ar
    37   25   26 ar
    38   25   32 ar
    39   26   27 2
    40   26   28 ar
    41   28   29 ar
    42   28   43 1
    43   29   30 1
    44   29   31 ar
    45   30   44 1
    46   30   45 1
    47   31   32 ar
    48   31   46 1
@<TRIPOS>SUBSTRUCTURE
     1 GTP         1 GROUP 0 A     ****
@<TRIPOS>MOLECULE
[[[5-(2-amino-6-oxo-1,3-dihydropurin-2-ylium-9-yl)-3,4-dihydroxy-tetrahydrofuran-2-yl]methoxy-oxido-phosphoryl]oxy-oxido-phosphoryl] hydrogen phosphate
   46    48     1     0     0
SMALL
USER_CHARGES

@<TRIPOS>ATOM
      1 PG         -3.5250    7.0725    5.0775 P.3       1 GTP         1.5400
      2 O1G        -4.0527    6.4147    6.3329 O.co2     1 GTP        -0.8909
      3 O2G        -2.9459    8.4692    5.1164 O.co2     1 GTP        -0.8909
      4 O3G        -4.6934    7.0274    3.9379 O.3       1 GTP        -0.7980
      5 O3B        -2.4483    6.0731    4.3665 O.3       1 GTP        -0.7612
      6 PB         -0.9772    5.5850    4.8794 P.3       1 GTP         1.5847
      7 O1B        -0.0553    6.7833    4.9190 O.co2     1 GTP        -0.8859
      8 O2B        -1.1485    4.6779    6.0775 O.co2     1 GTP        -0.8859
      9 O3A        -0.5682    4.6235    3.6252 O.3       1 GTP        -0.7486
     10 PA         -0.3962    4.9846    2.0409 P.3       1 GTP         1.5001
     11 O1A        -1.7409    5.4059    1.4892 O.co2     1 GTP        -0.8487
     12 O2A         0.8270    5.8595    1.8736 O.co2     1 GTP        -0.8487
     13 O5'         0.0178    3.5131    1.4595 O.3       1 GTP        -0.5474
     14 C5'        -0.8811    2.4285    1.6206 C.3       1 GTP         0.2547
     15 C4'        -0.1994    1.3333    2.4288 C.3       1 GTP         0.0926
     16 O4'        -1.1285    0.2356    2.5840 O.3       1 GTP        -0.3593
     17 C3'         1.0324    0.7610    1.7344 C.3       1 GTP         0.0907
     18 O3'         1.9175    0.2377    2.7247 O.3       1 GTP        -0.5209
     19 C2'         0.4468   -0.3802    0.9263 C.3       1 GTP         0.0305
     20 O2'         1.3993   -1.3703    0.5961 O.3       1 GTP        -0.5978
     21 C1'        -0.6159   -0.9100    1.8769 C.3       1 GTP         0.2339
     22 N9         -1.7127   -1.6108    1.2130 N.pl3     1 GTP        -0.1765
     23 C8         -2.8692   -1.0463    0.7355 C.ar      1 GTP         0.4947
     24 N7         -3.6707   -1.9381    0.1856 N.2       1 GTP        -0.5802
     25 C5         -3.0027   -3.1275    0.3134 C.ar      1 GTP         0.2279
     26 C6         -3.4659   -4.4142   -0.1355 C.ar      1 GTP         0.6513
     27 O6         -4.5328   -4.6133   -0.6980 O.2       1 GTP        -0.5111
     28 N1         -2.5102   -5.4606    0.1612 N.pl3     1 GTP        -0.4713
     29 C2         -1.2711   -5.2547    0.8113 C.ar      1 GTP         0.5256
     30 N2         -0.4228   -6.3256    1.0482 N.pl3     1 GTP        -0.8665
     31 N3         -0.9033   -3.9563    1.2146 N.pl3     1 GTP        -0.5398
     32 C4         -1.7979   -2.9400    0.9438 C.ar      1 GTP        -0.0275
     33 HOG3       -4.5033    7.4182    3.0585 H         1 GTP         0.4161
     34 H5'        -1.7771    2.7849    2.1387 H         1 GTP         0.0348
     35 H5''       -1.1654    2.0541    0.6320 H         1 GTP         0.0348
     36 H4'         0.0403    1.7078    3.4343 H         1 GTP         0.1215
     37 H3'         1.5907    1.4859    1.1353 H         1 GTP         0.0576
     38 HO3'        2.6839   -0.1150    2.2479 H         1 GTP         0.3842
     39 H2'        -0.0017    0.0018    0.0005 H         1 GTP         0.0252
     40 HO2'        2.0953   -0.9375    0.0709 H         1 GTP         0.4224
     41 H1'        -0.1998   -1.6319    2.6178 H         1 GTP         0.0745
     42 H8         -3.0691    0.0134    0.8177 H         1 GTP         0.1522
     43 HN1        -2.7468   -6.4119   -0.1177 H         1 GTP         0.3518
     44 HN21        0.4233   -6.1297    1.5018 H         1 GTP         0.4761
     45 HN22       -0.7261   -7.2071    0.7466 H         1 GTP         0.4761
     46 H46        -0.0124   -3.8015    1.6821 H         1 GTP         0.5030
@<TRIPOS>BOND
     1    1    2 2
     2    1    3 1
     3    1    4 1
     4    1    5 1
     5    4   33 1
     6    5    6 1
     7    6    7 2
     8    6    8 1
     9    6    9 1
    10    9   10 1
    11   10   11 2
    12   10   12 1
    13   10   13 1
    14   13   14 1
    15   14   15 1
    16   14   34 1
    17   14   35 1
    18   15   16 1
    19   15   17 1
    20   15   36 1
    21   16   21 1
    22   17   18 1
    23   17   19 1
    24   17   37 1
    25   18   38 1
    26   19   20 1
    27   19   21 1
    28   19   39 1
    29   20   40 1
    30   21   22 1
    31   21   41 1
    32   22   23 ar
    33   22   32 ar
    34   23   24 ar
    35   23   42 1
    36   24   25 ar
    37   25   26 ar
    38   25   32 ar
    39   26   27 2
    40   26   28 ar
    41   28   29 ar
    42   28   43 1
    43   29   30 1
    44   29   31 ar
    45   30   44 1
    46   30   45 1
    47   31   32 ar
    48   31   46 1
@<TRIPOS>SUBSTRUCTURE
     1 GTP         1 GROUP 0 A     ****
@<TRIPOS>MOLECULE
[[[5-(2-amino-6-oxo-1,3-dihydropurin-2-ylium-9-yl)-3,4-dihydroxy-tetrahydrofuran-2-yl]methoxy-oxido-phosphoryl]oxy-oxido-phosphoryl] hydrogen phosphate
   46    48     1     0     0
SMALL
USER_CHARGES

@<TRIPOS>ATOM
      1 PG         -1.7843    7.2245    6.6963 P.3       1 GTP         1.5400
      2 O1G        -0.8457    6.9445    7.8487 O.co2     1 GTP        -0.8909
      3 O2G        -1.8257    8.5870    6.0409 O.co2     1 GTP        -0.8909
      4 O3G        -3.2996    6.8222    7.1521 O.3       1 GTP        -0.7980
      5 O3B        -1.5640    6.0897    5.5440 O.3       1 GTP        -0.7612
      6 PB         -0.2716    5.8082    4.5869 P.3       1 GTP         1.5847
      7 O1B        -0.0876    6.9898    3.6609 O.co2     1 GTP        -0.8859
      8 O2B         0.8650    5.2822    5.4348 O.co2     1 GTP        -0.8859
      9 O3A        -0.8451    4.5359    3.7400 O.3       1 GTP        -0.7486
     10 PA         -2.1561    4.4278    2.7707 P.3       1 GTP         1.5001
     11 O1A        -3.3990    4.6374    3.6082 O.co2     1 GTP        -0.8487
     12 O2A        -1.9055    5.2477    1.5239 O.co2     1 GTP        -0.8487
     13 O5'        -2.0401    2.8620    2.3128 O.3       1 GTP        -0.5474
     14 C5'        -0.8811    2.4285    1.6206 C.3       1 GTP         0.2547
     15 C4'        -0.1994    1.3333    2.4288 C.3       1 GTP         0.0926
     16 O4'        -1.1285    0.2356    2.5840 O.3       1 GTP        -0.3593
     17 C3'         1.0324    0.7610    1.7344 C.3       1 GTP         0.0907
     18 O3'         1.9175    0.2377    2.7247 O.3       1 GTP        -0.5209
     19 C2'         0.4468   -0.3802    0.9263 C.3       1 GTP         0.0305
     20 O2'         1.3993   -1.3703    0.5961 O.3       1 GTP        -0.5978
     21 C1'        -0.6159   -0.9100    1.8769 C.3       1 GTP         0.2339
     22 N9         -1.7127   -1.6108    1.2130 N.pl3     1 GTP        -0.1765
     23 C8         -2.8692   -1.0463    0.7355 C.ar      1 GTP         0.4947
     24 N7         -3.6707   -1.9381    0.1856 N.2       1 GTP        -0.5802
     25 C5         -3.0027   -3.1275    0.3134 C.ar      1 GTP         0.2279
     26 C6         -3.4659   -4.4142   -0.1355 C.ar      1 GTP         0.6513
     27 O6         -4.5328   -4.6133   -0.6980 O.2       1 GTP        -0.5111
     28 N1         -2.5102   -5.4606    0.1612 N.pl3     1 GTP        -0.4713
     29 C2         -1.2711   -5.2547    0.8113 C.ar      1 GTP         0.5256
     30 N2         -0.4228   -6.3256    1.0482 N.pl3     1 GTP        -0.8665
     31 N3         -0.9033   -3.9563    1.2146 N.pl3     1 GTP        -0.5398
     32 C4         -1.7979   -2.9400    0.9438 C.ar      1 GTP        -0.0275
     33 HOG3       -4.0294    6.9468    6.5085 H         1 GTP         0.4161
     34 H5'        -1.1767    2.0502    0.6368 H         1 GTP         0.0348
     35 H5''       -0.2080    3.2814    1.4876 H         1 GTP         0.0348
     36 H4'         0.0403    1.7078    3.4343 H         1 GTP         0.1215
     37 H3'         1.5907    1.4859    1.1353 H         1 GTP         0.0576
     38 HO3'        2.6839   -0.1150    2.2479 H         1 GTP         0.3842
     39 H2'        -0.0017    0.0018    0.0005 H         1 GTP         0.0252
     40 HO2'        2.0953   -0.9375    0.0709 H         1 GTP         0.4224
     41 H1'        -0.1998   -1.6319    2.6178 H         1 GTP         0.0745
     42 H8         -3.0691    0.0134    0.8177 H         1 GTP         0.1522
     43 HN1        -2.7468   -6.4119   -0.1177 H         1 GTP         0.3518
     44 HN21        0.4233   -6.1297    1.5018 H         1 GTP         0.4761
     45 HN22       -0.7261   -7.2071    0.7466 H         1 GTP         0.4761
     46 H46        -0.0124   -3.8015    1.6821 H         1 GTP         0.5030
@<TRIPOS>BOND
     1    1    2 2
     2    1    3 1
     3    1    4 1
     4    1    5 1
     5    4   33 1
     6    5    6 1
     7    6    7 2
     8    6    8 1
     9    6    9 1
    10    9   10 1
    11   10   11 2
    12   10   12 1
    13   10   13 1
    14   13   14 1
    15   14   15 1
    16   14   34 1
    17   14   35 1
    18   15   16 1
    19   15   17 1
    20   15   36 1
    21   16   21 1
    22   17   18 1
    23   17   19 1
    24   17   37 1
    25   18   38 1
    26   19   20 1
    27   19   21 1
    28   19   39 1
    29   20   40 1
    30   21   22 1
    31   21   41 1
    32   22   23 ar
    33   22   32 ar
    34   23   24 ar
    35   23   42 1
    36   24   25 ar
    37   25   26 ar
    38   25   32 ar
    39   26   27 2
    40   26   28 ar
    41   28   29 ar
    42   28   43 1
    43   29   30 1
    44   29   31 ar
    45   30   44 1
    46   30   45 1
    47   31   32 ar
    48   31   46 1
@<TRIPOS>SUBSTRUCTURE
     1 GTP         1 GROUP 0 A     ****
@<TRIPOS>MOLECULE
[[[5-(2-amino-6-oxo-1,3-dihydropurin-2-ylium-9-yl)-3,4-dihydroxy-tetrahydrofuran-2-yl]methoxy-oxido-phosphoryl]oxy-oxido-phosphoryl] hydrogen phosphate
   46    48     1     0     0
SMALL
USER_CHARGES

@<TRIPOS>ATOM
      1 PG         -4.8861    4.8314    0.5712 P.3       1 GTP         1.5400
      2 O1G        -5.5288    4.2872   -0.6851 O.co2     1 GTP        -0.8909
      3 O2G        -4.1867    3.9119    1.5474 O.co2     1 GTP        -0.8909
      4 O3G        -5.9993    5.7037    1.3871 O.3       1 GTP        -0.7980
      5 O3B        -3.8712    6.0437    0.1663 O.3       1 GTP        -0.7612
      6 PB         -2.4753    6.0007   -0.6794 P.3       1 GTP         1.5847
      7 O1B        -2.7346    5.3287   -2.0093 O.co2     1 GTP        -0.8859
      8 O2B        -1.8046    7.3536   -0.5934 O.co2     1 GTP        -0.8859
      9 O3A        -1.6181    4.9968    0.2809 O.3       1 GTP        -0.7486
     10 PA         -0.0889    4.4444    0.1193 P.3       1 GTP         1.5001
     11 O1A        -0.0111    3.5842   -1.1233 O.co2     1 GTP        -0.8487
     12 O2A         0.8677    5.5971    0.3340 O.co2     1 GTP        -0.8487
     13 O5'         0.0178    3.5131    1.4595 O.3       1 GTP        -0.5474
     14 C5'        -0.8811    2.4285    1.6206 C.3       1 GTP         0.2547
     15 C4'        -0.1994    1.3333    2.4288 C.3       1 GTP         0.0926
     16 O4'        -1.1285    0.2356    2.5840 O.3       1 GTP        -0.3593
     17 C3'         1.0324    0.7610    1.7344 C.3       1 GTP         0.0907
     18 O3'         1.9175    0.2377    2.7247 O.3       1 GTP        -0.5209
     19 C2'         0.4468   -0.3802    0.9263 C.3       1 GTP         0.0305
     20 O2'         1.3993   -1.3703    0.5961 O.3       1 GTP        -0.5978
     21 C1'        -0.6159   -0.9100    1.8769 C.3       1 GTP         0.2339
     22 N9         -1.7127   -1.6108    1.2130 N.pl3     1 GTP        -0.1765
     23 C8         -1.6092   -2.7449    0.4467 C.ar      1 GTP         0.4947
     24 N7         -2.7778   -3.1416   -0.0191 N.2       1 GTP        -0.5802
     25 C5         -3.6725   -2.2253    0.4675 C.ar      1 GTP         0.2279
     26 C6         -5.0932   -2.2202    0.2371 C.ar      1 GTP         0.6513
     27 O6         -5.6933   -3.0474   -0.4337 O.2       1 GTP        -0.5111
     28 N1         -5.7390   -1.1061    0.8992 N.pl3     1 GTP        -0.4713
     29 C2         -5.0661   -0.1368    1.6789 C.ar      1 GTP         0.5256
     30 N2         -5.7774    0.8934    2.2749 N.pl3     1 GTP        -0.8665
     31 N3         -3.6705   -0.2251    1.8481 N.pl3     1 GTP        -0.5398
     32 C4         -3.0303   -1.2785    1.2262 C.ar      1 GTP        -0.0275
     33 HOG3       -5.7340    6.1261    2.2318 H         1 GTP         0.4161
     34 H5'        -1.7771    2.7849    2.1387 H         1 GTP         0.0348
     35 H5''       -1.1654    2.0541    0.6320 H         1 GTP         0.0348
     36 H4'         0.0403    1.7078    3.4343 H         1 GTP         0.1215
     37 H3'         1.5907    1.4859    1.1353 H         1 GTP         0.0576
     38 HO3'        2.6839   -0.1150    2.2479 H         1 GTP         0.3842
     39 H2'        -0.0017    0.0018    0.0005 H         1 GTP         0.0252
     40 HO2'        2.0953   -0.9375    0.0709 H         1 GTP         0.4224
     41 H1'        -0.1998   -1.6319    2.6178 H         1 GTP         0.0745
     42 H8         -0.6610   -3.2324    0.2653 H         1 GTP         0.1522
     43 HN1        -6.7487   -1.0139    0.7961 H         1 GTP         0.3518
     44 HN21       -5.2644    1.5388    2.8044 H         1 GTP         0.4761
     45 HN22       -6.7459    0.9078    2.1265 H         1 GTP         0.4761
     46 H46        -3.1807    0.4690    2.4089 H         1 GTP         0.5030
@<TRIPOS>BOND
     1    1    2 2
     2    1    3 1
     3    1    4 1
     4    1    5 1
     5    4   33 1
     6    5    6 1
     7    6    7 2
     8    6    8 1
     9    6    9 1
    10    9   10 1
    11   10   11 2
    12   10   12 1
    13   10   13 1
    14   13   14 1
    15   14   15 1
    16   14   34 1
    17   14   35 1
    18   15   16 1
    19   15   17 1
    20   15   36 1
    21   16   21 1
    22   17   18 1
    23   17   19 1
    24   17   37 1
    25   18   38 1
    26   19   20 1
    27   19   21 1
    28   19   39 1
    29   20   40 1
    30   21   22 1
    31   21   41 1
    32   22   23 ar
    33   22   32 ar
    34   23   24 ar
    35   23   42 1
    36   24   25 ar
    37   25   26 ar
    38   25   32 ar
    39   26   27 2
    40   26   28 ar
    41   28   29 ar
    42   28   43 1
    43   29   30 1
    44   29   31 ar
    45   30   44 1
    46   30   45 1
    47   31   32 ar
    48   31   46 1
@<TRIPOS>SUBSTRUCTURE
     1 GTP         1 GROUP 0 A     ****
@<TRIPOS>MOLECULE
[[[5-(2-amino-6-oxo-1,3-dihydropurin-2-ylium-9-yl)-3,4-dihydroxy-tetrahydrofuran-2-yl]methoxy-oxido-phosphoryl]oxy-oxido-phosphoryl] hydrogen phosphate
   46    48     1     0     0
SMALL
USER_CHARGES

@<TRIPOS>ATOM
      1 PG         -6.0454    2.5109   -2.2671 P.3       1 GTP         1.5400
      2 O1G        -5.7455    3.4434   -3.4195 O.co2     1 GTP        -0.8909
      3 O2G        -6.1582    1.0183   -2.4841 O.co2     1 GTP        -0.8909
      4 O3G        -7.4007    3.0299   -1.5191 O.3       1 GTP        -0.7980
      5 O3B        -4.9775    2.7914   -1.0651 O.3       1 GTP        -0.7612
      6 PB         -4.5863    4.1899   -0.3189 P.3       1 GTP         1.5847
      7 O1B        -3.9166    5.1034   -1.3211 O.co2     1 GTP        -0.8859
      8 O2B        -5.7632    4.6523    0.5109 O.co2     1 GTP        -0.8859
      9 O3A        -3.4727    3.6234    0.7318 O.3       1 GTP        -0.7486
     10 PA         -2.5926    4.4187    1.8556 P.3       1 GTP         1.5001
     11 O1A        -1.6707    5.3914    1.1526 O.co2     1 GTP        -0.8487
     12 O2A        -3.5190    4.8780    2.9603 O.co2     1 GTP        -0.8487
     13 O5'        -1.7336    3.1724    2.4750 O.3       1 GTP        -0.5474
     14 C5'        -0.8811    2.4285    1.6206 C.3       1 GTP         0.2547
     15 C4'        -0.1994    1.3333    2.4288 C.3       1 GTP         0.0926
     16 O4'        -1.1285    0.2356    2.5840 O.3       1 GTP        -0.3593
     17 C3'         1.0324    0.7610    1.7344 C.3       1 GTP         0.0907
     18 O3'         1.9175    0.2377    2.7247 O.3       1 GTP        -0.5209
     19 C2'         0.4468   -0.3802    0.9263 C.3       1 GTP         0.0305
     20 O2'         1.3993   -1.3703    0.5961 O.3       1 GTP        -0.5978
     21 C1'        -0.6159   -0.9100    1.8769 C.3       1 GTP         0.2339
     22 N9         -1.7127   -1.6108    1.2130 N.pl3     1 GTP        -0.1765
     23 C8         -1.6092   -2.7449    0.4467 C.ar      1 GTP         0.4947
     24 N7         -2.7778   -3.1416   -0.0191 N.2       1 GTP        -0.5802
     25 C5         -3.6725   -2.2253    0.4675 C.ar      1 GTP         0.2279
     26 C6         -5.0932   -2.2202    0.2371 C.ar      1 GTP         0.6513
     27 O6         -5.6933   -3.0474   -0.4337 O.2       1 GTP        -0.5111
     28 N1         -5.7390   -1.1061    0.8992 N.pl3     1 GTP        -0.4713
     29 C2         -5.0661   -0.1368    1.6789 C.ar      1 GTP         0.5256
     30 N2         -5.7774    0.8934    2.2749 N.pl3     1 GTP        -0.8665
     31 N3         -3.6705   -0.2251    1.8481 N.pl3     1 GTP        -0.5398
     32 C4         -3.0303   -1.2785    1.2262 C.ar      1 GTP        -0.0275
     33 HOG3       -7.4047    3.9315   -1.1327 H         1 GTP         0.4161
     34 H5'        -1.4800    1.9927    0.8146 H         1 GTP         0.0348
     35 H5''       -0.1367    3.1040    1.1872 H         1 GTP         0.0348
     36 H4'         0.0403    1.7078    3.4343 H         1 GTP         0.1215
     37 H3'         1.5907    1.4859    1.1353 H         1 GTP         0.0576
     38 HO3'        2.1521    0.9800    3.3017 H         1 GTP         0.3842
     39 H2'        -0.0017    0.0018    0.0005 H         1 GTP         0.0252
     40 HO2'        1.7495   -1.7243    1.4324 H         1 GTP         0.4224
     41 H1'        -0.1998   -1.6319    2.6178 H         1 GTP         0.0745
     42 H8         -0.6610   -3.2324    0.2653 H         1 GTP         0.1522
     43 HN1        -6.7487   -1.0139    0.7961 H         1 GTP         0.3518
     44 HN21       -5.2644    1.5388    2.8044 H         1 GTP         0.4761
     45 HN22       -6.7459    0.9078    2.1265 H         1 GTP         0.4761
     46 H46        -3.1807    0.4690    2.4089 H         1 GTP         0.5030
@<TRIPOS>BOND
     1    1    2 2
     2    1    3 1
     3    1    4 1
     4    1    5 1
     5    4   33 1
     6    5    6 1
     7    6    7 2
     8    6    8 1
     9    6    9 1
    10    9   10 1
    11   10   11 2
    12   10   12 1
    13   10   13 1
    14   13   14 1
    15   14   15 1
    16   14   34 1
    17   14   35 1
    18   15   16 1
    19   15   17 1
    20   15   36 1
    21   16   21 1
    22   17   18 1
    23   17   19 1
    24   17   37 1
    25   18   38 1
    26   19   20 1
    27   19   21 1
    28   19   39 1
    29   20   40 1
    30   21   22 1
    31   21   41 1
    32   22   23 ar
    33   22   32 ar
    34   23   24 ar
    35   23   42 1
    36   24   25 ar
    37   25   26 ar
    38   25   32 ar
    39   26   27 2
    40   26   28 ar
    41   28   29 ar
    42   28   43 1
    43   29   30 1
    44   29   31 ar
    45   30   44 1
    46   30   45 1
    47   31   32 ar
    48   31   46 1
@<TRIPOS>SUBSTRUCTURE
     1 GTP         1 GROUP 0 A     ****
@<TRIPOS>MOLECULE
[[[5-(2-amino-6-oxo-1,3-dihydropurin-2-ylium-9-yl)-3,4-dihydroxy-tetrahydrofuran-2-yl]methoxy-oxido-phosphoryl]oxy-oxido-phosphoryl] hydrogen phosphate
   46    48     1     0     0
SMALL
USER_CHARGES

@<TRIPOS>ATOM
      1 PG          1.1081    6.0639    4.8451 P.3       1 GTP         1.5400
      2 O1G         0.5264    6.8128    6.0233 O.co2     1 GTP        -0.8909
      3 O2G         0.9739    4.5612    4.7363 O.co2     1 GTP        -0.8909
      4 O3G         2.6879    6.4543    4.7111 O.3       1 GTP        -0.7980
      5 O3B         0.5678    6.7446    3.4637 O.3       1 GTP        -0.7612
      6 PB         -0.9420    6.7977    2.8447 P.3       1 GTP         1.5847
      7 O1B        -1.8726    7.3789    3.8857 O.co2     1 GTP        -0.8859
      8 O2B        -0.8798    7.3538    1.4395 O.co2     1 GTP        -0.8859
      9 O3A        -1.2210    5.1961    2.6972 O.3       1 GTP        -0.7486
     10 PA         -2.5400    4.4095    2.1393 P.3       1 GTP         1.5001
     11 O1A        -3.7027    4.6909    3.0663 O.co2     1 GTP        -0.8487
     12 O2A        -2.6521    4.6480    0.6493 O.co2     1 GTP        -0.8487
     13 O5'        -2.0401    2.8620    2.3128 O.3       1 GTP        -0.5474
     14 C5'        -0.8811    2.4285    1.6206 C.3       1 GTP         0.2547
     15 C4'        -0.1994    1.3333    2.4288 C.3       1 GTP         0.0926
     16 O4'        -1.1285    0.2356    2.5840 O.3       1 GTP        -0.3593
     17 C3'         1.0324    0.7610    1.7344 C.3       1 GTP         0.0907
     18 O3'         1.9175    0.2377    2.7247 O.3       1 GTP        -0.5209
     19 C2'         0.4468   -0.3802    0.9263 C.3       1 GTP         0.0305
     20 O2'         1.3993   -1.3703    0.5961 O.3       1 GTP        -0.5978
     21 C1'        -0.6159   -0.9100    1.8769 C.3       1 GTP         0.2339
     22 N9         -1.7127   -1.6108    1.2130 N.pl3     1 GTP        -0.1765
     23 C8         -2.5534   -1.0907    0.2607 C.ar      1 GTP         0.4947
     24 N7         -3.4469   -1.9695   -0.1508 N.2       1 GTP        -0.5802
     25 C5         -3.1705   -3.1041    0.5657 C.ar      1 GTP         0.2279
     26 C6         -3.8738   -4.3568    0.4777 C.ar      1 GTP         0.6513
     27 O6         -4.8240   -4.5720   -0.2607 O.2       1 GTP        -0.5111
     28 N1         -3.3198   -5.3462    1.3780 N.pl3     1 GTP        -0.4713
     29 C2         -2.2226   -5.1203    2.2413 C.ar      1 GTP         0.5256
     30 N2         -1.7649   -6.1367    3.0659 N.pl3     1 GTP        -0.8665
     31 N3         -1.5969   -3.8585    2.2574 N.pl3     1 GTP        -0.5398
     32 C4         -2.1068   -2.8965    1.4082 C.ar      1 GTP        -0.0275
     33 HOG3        3.2099    6.0463    3.9878 H         1 GTP         0.4161
     34 H5'        -1.1767    2.0502    0.6368 H         1 GTP         0.0348
     35 H5''       -0.2080    3.2814    1.4876 H         1 GTP         0.0348
     36 H4'         0.0403    1.7078    3.4343 H         1 GTP         0.1215
     37 H3'         1.5907    1.4859    1.1353 H         1 GTP         0.0576
     38 HO3'        2.6839   -0.1150    2.2479 H         1 GTP         0.3842
     39 H2'        -0.0017    0.0018    0.0005 H         1 GTP         0.0252
     40 HO2'        0.9369   -2.0558    0.0825 H         1 GTP         0.4224
     41 H1'        -0.1998   -1.6319    2.6178 H         1 GTP         0.0745
     42 H8         -2.4657   -0.0713   -0.0897 H         1 GTP         0.1522
     43 HN1        -3.7505   -6.2699    1.3904 H         1 GTP         0.3518
     44 HN21       -1.0023   -5.9289    3.6451 H         1 GTP         0.4761
     45 HN22       -2.2347   -6.9951    3.0150 H         1 GTP         0.4761
     46 H46        -0.8062   -3.6900    2.8760 H         1 GTP         0.5030
@<TRIPOS>BOND
     1    1    2 2
     2    1    3 1
     3    1    4 1
     4    1    5 1
     5    4   33 1
     6    5    6 1
     7    6    7 2
     8    6    8 1
     9    6    9 1
    10    9   10 1
    11   10   11 2
    12   10   12 1
    13   10   13 1
    14   13   14 1
    15   14   15 1
    16   14   34 1
    17   14   35 1
    18   15   16 1
    19   15   17 1
    20   15   36 1
    21   16   21 1
    22   17   18 1
    23   17   19 1
    24   17   37 1
    25   18   38 1
    26   19   20 1
    27   19   21 1
    28   19   39 1
    29   20   40 1
    30   21   22 1
    31   21   41 1
    32   22   23 ar
    33   22   32 ar
    34   23   24 ar
    35   23   42 1
    36   24   25 ar
    37   25   26 ar
    38   25   32 ar
    39   26   27 2
    40   26   28 ar
    41   28   29 ar
    42   28   43 1
    43   29   30 1
    44   29   31 ar
    45   30   44 1
    46   30   45 1
    47   31   32 ar
    48   31   46 1
@<TRIPOS>SUBSTRUCTURE
     1 GTP         1 GROUP 0 A     ****
@<TRIPOS>MOLECULE
[[[5-(2-amino-6-oxo-1,3-dihydropurin-2-ylium-9-yl)-3,4-dihydroxy-tetrahydrofuran-2-yl]methoxy-oxido-phosphoryl]oxy-oxido-phosphoryl] hydrogen phosphate
   46    48     1     0     0
SMALL
USER_CHARGES

@<TRIPOS>ATOM
      1 PG         -4.6830    5.0266    2.9789 P.3       1 GTP         1.5400
      2 O1G        -4.7454    4.6637    1.5119 O.co2     1 GTP        -0.8909
      3 O2G        -4.6826    3.9542    4.0455 O.co2     1 GTP        -0.8909
      4 O3G        -5.8868    6.0807    3.3040 O.3       1 GTP        -0.7980
      5 O3B        -3.4118    6.0197    3.2268 O.3       1 GTP        -0.7612
      6 PB         -1.8115    5.7208    3.1040 P.3       1 GTP         1.5847
      7 O1B        -1.0593    7.0177    3.3033 O.co2     1 GTP        -0.8859
      8 O2B        -1.4784    4.4814    3.9043 O.co2     1 GTP        -0.8859
      9 O3A        -1.7457    5.2883    1.5313 O.3       1 GTP        -0.7486
     10 PA         -0.4665    4.8322    0.6228 P.3       1 GTP         1.5001
     11 O1A        -0.9631    4.4288   -0.7487 O.co2     1 GTP        -0.8487
     12 O2A         0.6338    5.8580    0.7859 O.co2     1 GTP        -0.8487
     13 O5'         0.0178    3.5131    1.4595 O.3       1 GTP        -0.5474
     14 C5'        -0.8811    2.4285    1.6206 C.3       1 GTP         0.2547
     15 C4'        -0.1994    1.3333    2.4288 C.3       1 GTP         0.0926
     16 O4'        -1.1285    0.2356    2.5840 O.3       1 GTP        -0.3593
     17 C3'         1.0324    0.7610    1.7344 C.3       1 GTP         0.0907
     18 O3'         1.9175    0.2377    2.7247 O.3       1 GTP        -0.5209
     19 C2'         0.4468   -0.3802    0.9263 C.3       1 GTP         0.0305
     20 O2'         1.3993   -1.3703    0.5961 O.3       1 GTP        -0.5978
     21 C1'        -0.6159   -0.9100    1.8769 C.3       1 GTP         0.2339
     22 N9         -1.7127   -1.6108    1.2130 N.pl3     1 GTP        -0.1765
     23 C8         -2.8692   -1.0463    0.7355 C.ar      1 GTP         0.4947
     24 N7         -3.6707   -1.9381    0.1856 N.2       1 GTP        -0.5802
     25 C5         -3.0027   -3.1275    0.3134 C.ar      1 GTP         0.2279
     26 C6         -3.4659   -4.4142   -0.1355 C.ar      1 GTP         0.6513
     27 O6         -4.5328   -4.6133   -0.6980 O.2       1 GTP        -0.5111
     28 N1         -2.5102   -5.4606    0.1612 N.pl3     1 GTP        -0.4713
     29 C2         -1.2711   -5.2547    0.8113 C.ar      1 GTP         0.5256
     30 N2         -0.4228   -6.3256    1.0482 N.pl3     1 GTP        -0.8665
     31 N3         -0.9033   -3.9563    1.2146 N.pl3     1 GTP        -0.5398
     32 C4         -1.7979   -2.9400    0.9438 C.ar      1 GTP        -0.0275
     33 HOG3       -5.9804    6.4139    4.2219 H         1 GTP         0.4161
     34 H5'        -1.7771    2.7849    2.1387 H         1 GTP         0.0348
     35 H5''       -1.1654    2.0541    0.6320 H         1 GTP         0.0348
     36 H4'         0.0403    1.7078    3.4343 H         1 GTP         0.1215
     37 H3'         1.5907    1.4859    1.1353 H         1 GTP         0.0576
     38 HO3'        2.6839   -0.1150    2.2479 H         1 GTP         0.3842
     39 H2'        -0.0017    0.0018    0.0005 H         1 GTP         0.0252
     40 HO2'        2.0953   -0.9375    0.0709 H         1 GTP         0.4224
     41 H1'        -0.1998   -1.6319    2.6178 H         1 GTP         0.0745
     42 H8         -3.0691    0.0134    0.8177 H         1 GTP         0.1522
     43 HN1        -2.7468   -6.4119   -0.1177 H         1 GTP         0.3518
     44 HN21        0.4233   -6.1297    1.5018 H         1 GTP         0.4761
     45 HN22       -0.7261   -7.2071    0.7466 H         1 GTP         0.4761
     46 H46        -0.0124   -3.8015    1.6821 H         1 GTP         0.5030
@<TRIPOS>BOND
     1    1    2 2
     2    1    3 1
     3    1    4 1
     4    1    5 1
     5    4   33 1
     6    5    6 1
     7    6    7 2
     8    6    8 1
     9    6    9 1
    10    9   10 1
    11   10   11 2
    12   10   12 1
    13   10   13 1
    14   13   14 1
    15   14   15 1
    16   14   34 1
    17   14   35 1
    18   15   16 1
    19   15   17 1
    20   15   36 1
    21   16   21 1
    22   17   18 1
    23   17   19 1
    24   17   37 1
    25   18   38 1
    26   19   20 1
    27   19   21 1
    28   19   39 1
    29   20   40 1
    30   21   22 1
    31   21   41 1
    32   22   23 ar
    33   22   32 ar
    34   23   24 ar
    35   23   42 1
    36   24   25 ar
    37   25   26 ar
    38   25   32 ar
    39   26   27 2
    40   26   28 ar
    41   28   29 ar
    42   28   43 1
    43   29   30 1
    44   29   31 ar
    45   30   44 1
    46   30   45 1
    47   31   32 ar
    48   31   46 1
@<TRIPOS>SUBSTRUCTURE
     1 GTP         1 GROUP 0 A     ****
@<TRIPOS>MOLECULE
[[[5-(2-amino-6-oxo-1,3-dihydropurin-2-ylium-9-yl)-3,4-dihydroxy-tetrahydrofuran-2-yl]methoxy-oxido-phosphoryl]oxy-oxido-phosphoryl] hydrogen phosphate
   46    48     1     0     0
SMALL
USER_CHARGES

@<TRIPOS>ATOM
      1 PG          4.7362    1.4275   -6.1860 P.3       1 GTP         1.5400
      2 O1G         4.7751    2.6293   -7.1034 O.co2     1 GTP        -0.8909
      3 O2G         5.7068    0.2814   -6.3649 O.co2     1 GTP        -0.8909
      4 O3G         3.2184    0.8259   -6.1833 O.3       1 GTP        -0.7980
      5 O3B         4.8014    1.9391   -4.6375 O.3       1 GTP        -0.7612
      6 PB          6.0145    2.6741   -3.8289 P.3       1 GTP         1.5847
      7 O1B         7.1725    1.7086   -3.7094 O.co2     1 GTP        -0.8859
      8 O2B         6.2011    4.0696   -4.3815 O.co2     1 GTP        -0.8859
      9 O3A         5.2941    2.8444   -2.3740 O.3       1 GTP        -0.7486
     10 PA          5.8655    3.5044   -0.9928 P.3       1 GTP         1.5001
     11 O1A         7.0286    2.6708   -0.5002 O.co2     1 GTP        -0.8487
     12 O2A         6.0020    4.9984   -1.1902 O.co2     1 GTP        -0.8487
     13 O5'         4.5670    3.2937   -0.0211 O.3       1 GTP        -0.5474
     14 C5'         4.0922    1.9801    0.2227 C.3       1 GTP         0.2547
     15 C4'         2.5944    2.0310    0.4653 C.3       1 GTP         0.0926
     16 O4'         1.9327    2.5740   -0.6889 O.3       1 GTP        -0.3593
     17 C3'         1.9685    0.6634    0.6767 C.3       1 GTP         0.0907
     18 O3'         2.1425    0.1975    1.9977 O.3       1 GTP        -0.5209
     19 C2'         0.5176    0.9128    0.3099 C.3       1 GTP         0.0305
     20 O2'        -0.2103    1.4454    1.4152 O.3       1 GTP        -0.5978
     21 C1'         0.6219    1.9765   -0.7844 C.3       1 GTP         0.2339
     22 N9          0.4237    1.4496   -2.1357 N.pl3     1 GTP        -0.1765
     23 C8          1.3988    0.9691   -2.9736 C.ar      1 GTP         0.4947
     24 N7          0.9092    0.5634   -4.1293 N.2       1 GTP        -0.5802
     25 C5         -0.4383    0.7914   -4.0325 C.ar      1 GTP         0.2279
     26 C6         -1.4217    0.5138   -5.0461 C.ar      1 GTP         0.6513
     27 O6         -1.1759    0.0306   -6.1417 O.2       1 GTP        -0.5111
     28 N1         -2.7543    0.8794   -4.6134 N.pl3     1 GTP        -0.4713
     29 C2         -3.0626    1.4402   -3.3523 C.ar      1 GTP         0.5256
     30 N2         -4.3747    1.7544   -3.0321 N.pl3     1 GTP        -0.8665
     31 N3         -2.0304    1.6759   -2.4233 N.pl3     1 GTP        -0.5398
     32 C4         -0.7497    1.3366   -2.8118 C.ar      1 GTP        -0.0275
     33 HOG3        3.0297    0.0373   -5.6311 H         1 GTP         0.4161
     34 H5'         4.3179    1.3548   -0.6470 H         1 GTP         0.0348
     35 H5''        4.6083    1.5737    1.0983 H         1 GTP         0.0348
     36 H4'         2.3752    2.7029    1.3156 H         1 GTP         0.1215
     37 H3'         2.4336   -0.1217   -0.0015 H         1 GTP         0.0576
     38 HO3'        1.7160   -0.6716    2.0397 H         1 GTP         0.3842
     39 H2'         0.0316    0.0155   -0.0339 H         1 GTP         0.0252
     40 HO2'       -1.1270    1.5823    1.1180 H         1 GTP         0.4224
     41 H1'        -0.1474    2.7798   -0.6651 H         1 GTP         0.0745
     42 H8          2.4413    0.9409   -2.6872 H         1 GTP         0.1522
     43 HN1        -3.5236    0.7214   -5.2629 H         1 GTP         0.3518
     44 HN21       -4.5350    2.1409   -2.1461 H         1 GTP         0.4761
     45 HN22       -5.0542    1.5695   -3.7134 H         1 GTP         0.4761
     46 H46        -2.2462    2.0786   -1.5136 H         1 GTP         0.5030
@<TRIPOS>BOND
     1    1    2 2
     2    1    3 1
     3    1    4 1
     4    1    5 1
     5    4   33 1
     6    5    6 1
     7    6    7 2
     8    6    8 1
     9    6    9 1
    10    9   10 1
    11   10   11 2
    12   10   12 1
    13   10   13 1
    14   13   14 1
    15   14   15 1
    16   14   34 1
    17   14   35 1
    18   15   16 1
    19   15   17 1
    20   15   36 1
    21   16   21 1
    22   17   18 1
    23   17   19 1
    24   17   37 1
    25   18   38 1
    26   19   20 1
    27   19   21 1
    28   19   39 1
    29   20   40 1
    30   21   22 1
    31   21   41 1
    32   22   23 ar
    33   22   32 ar
    34   23   24 ar
    35   23   42 1
    36   24   25 ar
    37   25   26 ar
    38   25   32 ar
    39   26   27 2
    40   26   28 ar
    41   28   29 ar
    42   28   43 1
    43   29   30 1
    44   29   31 ar
    45   30   44 1
    46   30   45 1
    47   31   32 ar
    48   31   46 1
@<TRIPOS>SUBSTRUCTURE
     1 GTP         1 GROUP 0 A     ****
@<TRIPOS>MOLECULE
[[[5-(2-amino-6-oxo-1,3-dihydropurin-2-ylium-9-yl)-3,4-dihydroxy-tetrahydrofuran-2-yl]methoxy-oxido-phosphoryl]oxy-oxido-phosphoryl] hydrogen phosphate
   46    48     1     0     0
SMALL
USER_CHARGES

@<TRIPOS>ATOM
      1 PG          0.5755    8.3699    3.3771 P.3       1 GTP         1.5400
      2 O1G        -0.4236    9.2682    4.0716 O.co2     1 GTP        -0.8909
      3 O2G         2.0235    8.3349    3.8127 O.co2     1 GTP        -0.8909
      4 O3G         0.5236    8.6780    1.7745 O.3       1 GTP        -0.7980
      5 O3B        -0.0070    6.8455    3.3541 O.3       1 GTP        -0.7612
      6 PB         -0.2716    5.8082    4.5869 P.3       1 GTP         1.5847
      7 O1B         1.0584    5.4436    5.2077 O.co2     1 GTP        -0.8859
      8 O2B        -1.4224    6.3204    5.4241 O.co2     1 GTP        -0.8859
      9 O3A        -0.8451    4.5359    3.7400 O.3       1 GTP        -0.7486
     10 PA         -2.1561    4.4278    2.7707 P.3       1 GTP         1.5001
     11 O1A        -3.3990    4.6374    3.6082 O.co2     1 GTP        -0.8487
     12 O2A        -1.9055    5.2477    1.5239 O.co2     1 GTP        -0.8487
     13 O5'        -2.0401    2.8620    2.3128 O.3       1 GTP        -0.5474
     14 C5'        -0.8811    2.4285    1.6206 C.3       1 GTP         0.2547
     15 C4'        -0.1994    1.3333    2.4288 C.3       1 GTP         0.0926
     16 O4'        -1.1285    0.2356    2.5840 O.3       1 GTP        -0.3593
     17 C3'         1.0324    0.7610    1.7344 C.3       1 GTP         0.0907
     18 O3'         1.9175    0.2377    2.7247 O.3       1 GTP        -0.5209
     19 C2'         0.4468   -0.3802    0.9263 C.3       1 GTP         0.0305
     20 O2'         1.3993   -1.3703    0.5961 O.3       1 GTP        -0.5978
     21 C1'        -0.6159   -0.9100    1.8769 C.3       1 GTP         0.2339
     22 N9         -1.7127   -1.6108    1.2130 N.pl3     1 GTP        -0.1765
     23 C8         -2.8692   -1.0463    0.7355 C.ar      1 GTP         0.4947
     24 N7         -3.6707   -1.9381    0.1856 N.2       1 GTP        -0.5802
     25 C5         -3.0027   -3.1275    0.3134 C.ar      1 GTP         0.2279
     26 C6         -3.4659   -4.4142   -0.1355 C.ar      1 GTP         0.6513
     27 O6         -4.5328   -4.6133   -0.6980 O.2       1 GTP        -0.5111
     28 N1         -2.5102   -5.4606    0.1612 N.pl3     1 GTP        -0.4713
     29 C2         -1.2711   -5.2547    0.8113 C.ar      1 GTP         0.5256
     30 N2         -0.4228   -6.3256    1.0482 N.pl3     1 GTP        -0.8665
     31 N3         -0.9033   -3.9563    1.2146 N.pl3     1 GTP        -0.5398
     32 C4         -1.7979   -2.9400    0.9438 C.ar      1 GTP        -0.0275
     33 HOG3        1.1190    8.1712    1.1821 H         1 GTP         0.4161
     34 H5'        -1.1767    2.0502    0.6368 H         1 GTP         0.0348
     35 H5''       -0.2080    3.2814    1.4876 H         1 GTP         0.0348
     36 H4'         0.0403    1.7078    3.4343 H         1 GTP         0.1215
     37 H3'         1.5907    1.4859    1.1353 H         1 GTP         0.0576
     38 HO3'        2.6839   -0.1150    2.2479 H         1 GTP         0.3842
     39 H2'        -0.0017    0.0018    0.0005 H         1 GTP         0.0252
     40 HO2'        2.0953   -0.9375    0.0709 H         1 GTP         0.4224
     41 H1'        -0.1998   -1.6319    2.6178 H         1 GTP         0.0745
     42 H8         -3.0691    0.0134    0.8177 H         1 GTP         0.1522
     43 HN1        -2.7468   -6.4119   -0.1177 H         1 GTP         0.3518
     44 HN21        0.4233   -6.1297    1.5018 H         1 GTP         0.4761
     45 HN22       -0.7261   -7.2071    0.7466 H         1 GTP         0.4761
     46 H46        -0.0124   -3.8015    1.6821 H         1 GTP         0.5030
@<TRIPOS>BOND
     1    1    2 2
     2    1    3 1
     3    1    4 1
     4    1    5 1
     5    4   33 1
     6    5    6 1
     7    6    7 2
     8    6    8 1
     9    6    9 1
    10    9   10 1
    11   10   11 2
    12   10   12 1
    13   10   13 1
    14   13   14 1
    15   14   15 1
    16   14   34 1
    17   14   35 1
    18   15   16 1
    19   15   17 1
    20   15   36 1
    21   16   21 1
    22   17   18 1
    23   17   19 1
    24   17   37 1
    25   18   38 1
    26   19   20 1
    27   19   21 1
    28   19   39 1
    29   20   40 1
    30   21   22 1
    31   21   41 1
    32   22   23 ar
    33   22   32 ar
    34   23   24 ar
    35   23   42 1
    36   24   25 ar
    37   25   26 ar
    38   25   32 ar
    39   26   27 2
    40   26   28 ar
    41   28   29 ar
    42   28   43 1
    43   29   30 1
    44   29   31 ar
    45   30   44 1
    46   30   45 1
    47   31   32 ar
    48   31   46 1
@<TRIPOS>SUBSTRUCTURE
     1 GTP         1 GROUP 0 A     ****
@<TRIPOS>MOLECULE
[[[5-(2-amino-6-oxo-1,3-dihydropurin-2-ylium-9-yl)-3,4-dihydroxy-tetrahydrofuran-2-yl]methoxy-oxido-phosphoryl]oxy-oxido-phosphoryl] hydrogen phosphate
   46    48     1     0     0
SMALL
USER_CHARGES

@<TRIPOS>ATOM
      1 PG          1.9327    6.1051    2.8376 P.3       1 GTP         1.5400
      2 O1G         1.7840    4.6017    2.7662 O.co2     1 GTP        -0.8909
      3 O2G         2.3346    6.9052    1.6186 O.co2     1 GTP        -0.8909
      4 O3G         2.9567    6.4678    4.0565 O.3       1 GTP        -0.7980
      5 O3B         0.5678    6.7446    3.4637 O.3       1 GTP        -0.7612
      6 PB         -0.9420    6.7977    2.8447 P.3       1 GTP         1.5847
      7 O1B        -1.8726    7.3789    3.8857 O.co2     1 GTP        -0.8859
      8 O2B        -0.8798    7.3538    1.4395 O.co2     1 GTP        -0.8859
      9 O3A        -1.2210    5.1961    2.6972 O.3       1 GTP        -0.7486
     10 PA         -2.5400    4.4095    2.1393 P.3       1 GTP         1.5001
     11 O1A        -3.7027    4.6909    3.0663 O.co2     1 GTP        -0.8487
     12 O2A        -2.6521    4.6480    0.6493 O.co2     1 GTP        -0.8487
     13 O5'        -2.0401    2.8620    2.3128 O.3       1 GTP        -0.5474
     14 C5'        -0.8811    2.4285    1.6206 C.3       1 GTP         0.2547
     15 C4'        -0.1994    1.3333    2.4288 C.3       1 GTP         0.0926
     16 O4'        -1.1285    0.2356    2.5840 O.3       1 GTP        -0.3593
     17 C3'         1.0324    0.7610    1.7344 C.3       1 GTP         0.0907
     18 O3'         1.9175    0.2377    2.7247 O.3       1 GTP        -0.5209
     19 C2'         0.4468   -0.3802    0.9263 C.3       1 GTP         0.0305
     20 O2'         1.3993   -1.3703    0.5961 O.3       1 GTP        -0.5978
     21 C1'        -0.6159   -0.9100    1.8769 C.3       1 GTP         0.2339
     22 N9         -1.7127   -1.6108    1.2130 N.pl3     1 GTP        -0.1765
     23 C8         -1.7789   -2.9564    0.9503 C.ar      1 GTP         0.4947
     24 N7         -2.8980   -3.2916    0.3377 N.2       1 GTP        -0.5802
     25 C5         -3.5824   -2.1127    0.2000 C.ar      1 GTP         0.2279
     26 C6         -4.8740   -1.9471   -0.4133 C.ar      1 GTP         0.6513
     27 O6         -5.5366   -2.8529   -0.8978 O.2       1 GTP        -0.5111
     28 N1         -5.3036   -0.5645   -0.3916 N.pl3     1 GTP        -0.4713
     29 C2         -4.5545    0.4997    0.1619 C.ar      1 GTP         0.5256
     30 N2         -5.0561    1.7921    0.1348 N.pl3     1 GTP        -0.8665
     31 N3         -3.2977    0.2393    0.7420 N.pl3     1 GTP        -0.5398
     32 C4         -2.8643   -1.0716    0.7336 C.ar      1 GTP        -0.0275
     33 HOG3        3.1577    7.4117    4.2323 H         1 GTP         0.4161
     34 H5'        -1.1767    2.0502    0.6368 H         1 GTP         0.0348
     35 H5''       -0.2080    3.2814    1.4876 H         1 GTP         0.0348
     36 H4'         0.0403    1.7078    3.4343 H         1 GTP         0.1215
     37 H3'         1.5907    1.4859    1.1353 H         1 GTP         0.0576
     38 HO3'        2.6839   -0.1150    2.2479 H         1 GTP         0.3842
     39 H2'        -0.0017    0.0018    0.0005 H         1 GTP         0.0252
     40 HO2'        2.0953   -0.9375    0.0709 H         1 GTP         0.4224
     41 H1'        -0.1998   -1.6319    2.6178 H         1 GTP         0.0745
     42 H8         -0.9852   -3.6367    1.2276 H         1 GTP         0.1522
     43 HN1        -6.2089   -0.3428   -0.8039 H         1 GTP         0.3518
     44 HN21       -4.4981    2.4933    0.5311 H         1 GTP         0.4761
     45 HN22       -5.9352    1.9183   -0.2793 H         1 GTP         0.4761
     46 H46        -2.7541    1.0010    1.1428 H         1 GTP         0.5030
@<TRIPOS>BOND
     1    1    2 2
     2    1    3 1
     3    1    4 1
     4    1    5 1
     5    4   33 1
     6    5    6 1
     7    6    7 2
     8    6    8 1
     9    6    9 1
    10    9   10 1
    11   10   11 2
    12   10   12 1
    13   10   13 1
    14   13   14 1
    15   14   15 1
    16   14   34 1
    17   14   35 1
    18   15   16 1
    19   15   17 1
    20   15   36 1
    21   16   21 1
    22   17   18 1
    23   17   19 1
    24   17   37 1
    25   18   38 1
    26   19   20 1
    27   19   21 1
    28   19   39 1
    29   20   40 1
    30   21   22 1
    31   21   41 1
    32   22   23 ar
    33   22   32 ar
    34   23   24 ar
    35   23   42 1
    36   24   25 ar
    37   25   26 ar
    38   25   32 ar
    39   26   27 2
    40   26   28 ar
    41   28   29 ar
    42   28   43 1
    43   29   30 1
    44   29   31 ar
    45   30   44 1
    46   30   45 1
    47   31   32 ar
    48   31   46 1
@<TRIPOS>SUBSTRUCTURE
     1 GTP         1 GROUP 0 A     ****
@<TRIPOS>MOLECULE
[[[5-(2-amino-6-oxo-1,3-dihydropurin-2-ylium-9-yl)-3,4-dihydroxy-tetrahydrofuran-2-yl]methoxy-oxido-phosphoryl]oxy-oxido-phosphoryl] hydrogen phosphate
   46    48     1     0     0
SMALL
USER_CHARGES

@<TRIPOS>ATOM
      1 PG         -4.8090    4.6957    0.0886 P.3       1 GTP         1.5400
      2 O1G        -3.9358    3.4666   -0.0313 O.co2     1 GTP        -0.8909
      3 O2G        -5.8297    4.8188    1.1979 O.co2     1 GTP        -0.8909
      4 O3G        -5.5633    4.9374   -1.3392 O.3       1 GTP        -0.7980
      5 O3B        -3.8596    6.0233    0.0936 O.3       1 GTP        -0.7612
      6 PB         -2.7767    6.5305    1.2053 P.3       1 GTP         1.5847
      7 O1B        -2.0624    7.7495    0.6654 O.co2     1 GTP        -0.8859
      8 O2B        -3.4341    6.5366    2.5674 O.co2     1 GTP        -0.8859
      9 O3A        -1.7628    5.2512    1.1860 O.3       1 GTP        -0.7486
     10 PA         -0.3962    4.9846    2.0409 P.3       1 GTP         1.5001
     11 O1A         0.6371    6.0152    1.6404 O.co2     1 GTP        -0.8487
     12 O2A        -0.7667    4.7715    3.4925 O.co2     1 GTP        -0.8487
     13 O5'         0.0178    3.5131    1.4595 O.3       1 GTP        -0.5474
     14 C5'        -0.8811    2.4285    1.6206 C.3       1 GTP         0.2547
     15 C4'        -0.1994    1.3333    2.4288 C.3       1 GTP         0.0926
     16 O4'        -1.1285    0.2356    2.5840 O.3       1 GTP        -0.3593
     17 C3'         1.0324    0.7610    1.7344 C.3       1 GTP         0.0907
     18 O3'         1.9175    0.2377    2.7247 O.3       1 GTP        -0.5209
     19 C2'         0.4468   -0.3802    0.9263 C.3       1 GTP         0.0305
     20 O2'         1.3993   -1.3703    0.5961 O.3       1 GTP        -0.5978
     21 C1'        -0.6159   -0.9100    1.8769 C.3       1 GTP         0.2339
     22 N9         -1.7127   -1.6108    1.2130 N.pl3     1 GTP        -0.1765
     23 C8         -2.8692   -1.0463    0.7355 C.ar      1 GTP         0.4947
     24 N7         -3.6707   -1.9381    0.1856 N.2       1 GTP        -0.5802
     25 C5         -3.0027   -3.1275    0.3134 C.ar      1 GTP         0.2279
     26 C6         -3.4659   -4.4142   -0.1355 C.ar      1 GTP         0.6513
     27 O6         -4.5328   -4.6133   -0.6980 O.2       1 GTP        -0.5111
     28 N1         -2.5102   -5.4606    0.1612 N.pl3     1 GTP        -0.4713
     29 C2         -1.2711   -5.2547    0.8113 C.ar      1 GTP         0.5256
     30 N2         -0.4228   -6.3256    1.0482 N.pl3     1 GTP        -0.8665
     31 N3         -0.9033   -3.9563    1.2146 N.pl3     1 GTP        -0.5398
     32 C4         -1.7979   -2.9400    0.9438 C.ar      1 GTP        -0.0275
     33 HOG3       -6.1707    5.7031   -1.4226 H         1 GTP         0.4161
     34 H5'        -1.7771    2.7849    2.1387 H         1 GTP         0.0348
     35 H5''       -1.1654    2.0541    0.6320 H         1 GTP         0.0348
     36 H4'         0.0403    1.7078    3.4343 H         1 GTP         0.1215
     37 H3'         1.5907    1.4859    1.1353 H         1 GTP         0.0576
     38 HO3'        2.6839   -0.1150    2.2479 H         1 GTP         0.3842
     39 H2'        -0.0017    0.0018    0.0005 H         1 GTP         0.0252
     40 HO2'        2.0953   -0.9375    0.0709 H         1 GTP         0.4224
     41 H1'        -0.1998   -1.6319    2.6178 H         1 GTP         0.0745
     42 H8         -3.0691    0.0134    0.8177 H         1 GTP         0.1522
     43 HN1        -2.7468   -6.4119   -0.1177 H         1 GTP         0.3518
     44 HN21        0.4233   -6.1297    1.5018 H         1 GTP         0.4761
     45 HN22       -0.7261   -7.2071    0.7466 H         1 GTP         0.4761
     46 H46        -0.0124   -3.8015    1.6821 H         1 GTP         0.5030
@<TRIPOS>BOND
     1    1    2 2
     2    1    3 1
     3    1    4 1
     4    1    5 1
     5    4   33 1
     6    5    6 1
     7    6    7 2
     8    6    8 1
     9    6    9 1
    10    9   10 1
    11   10   11 2
    12   10   12 1
    13   10   13 1
    14   13   14 1
    15   14   15 1
    16   14   34 1
    17   14   35 1
    18   15   16 1
    19   15   17 1
    20   15   36 1
    21   16   21 1
    22   17   18 1
    23   17   19 1
    24   17   37 1
    25   18   38 1
    26   19   20 1
    27   19   21 1
    28   19   39 1
    29   20   40 1
    30   21   22 1
    31   21   41 1
    32   22   23 ar
    33   22   32 ar
    34   23   24 ar
    35   23   42 1
    36   24   25 ar
    37   25   26 ar
    38   25   32 ar
    39   26   27 2
    40   26   28 ar
    41   28   29 ar
    42   28   43 1
    43   29   30 1
    44   29   31 ar
    45   30   44 1
    46   30   45 1
    47   31   32 ar
    48   31   46 1
@<TRIPOS>SUBSTRUCTURE
     1 GTP         1 GROUP 0 A     ****
@<TRIPOS>MOLECULE
[[[5-(2-amino-6-oxo-1,3-dihydropurin-2-ylium-9-yl)-3,4-dihydroxy-tetrahydrofuran-2-yl]methoxy-oxido-phosphoryl]oxy-oxido-phosphoryl] hydrogen phosphate
   46    48     1     0     0
SMALL
USER_CHARGES

@<TRIPOS>ATOM
      1 PG          0.8877    6.7891    0.6688 P.3       1 GTP         1.5400
      2 O1G         2.1168    6.1046    1.2240 O.co2     1 GTP        -0.8909
      3 O2G         0.1454    6.2126   -0.5163 O.co2     1 GTP        -0.8909
      4 O3G         1.2641    8.3432    0.3387 O.3       1 GTP        -0.7980
      5 O3B        -0.1722    7.0448    1.8834 O.3       1 GTP        -0.7612
      6 PB         -1.0193    5.9714    2.7755 P.3       1 GTP         1.5847
      7 O1B        -0.0547    4.9770    3.3823 O.co2     1 GTP        -0.8859
      8 O2B        -2.0237    6.7190    3.6239 O.co2     1 GTP        -0.8859
      9 O3A        -1.8672    5.2499    1.5817 O.3       1 GTP        -0.7486
     10 PA         -2.9646    4.0418    1.6587 P.3       1 GTP         1.5001
     11 O1A        -4.0615    4.4416    2.6216 O.co2     1 GTP        -0.8487
     12 O2A        -3.2861    3.5890    0.2511 O.co2     1 GTP        -0.8487
     13 O5'        -2.0401    2.8620    2.3128 O.3       1 GTP        -0.5474
     14 C5'        -0.8811    2.4285    1.6206 C.3       1 GTP         0.2547
     15 C4'        -0.1994    1.3333    2.4288 C.3       1 GTP         0.0926
     16 O4'        -1.1285    0.2356    2.5840 O.3       1 GTP        -0.3593
     17 C3'         1.0324    0.7610    1.7344 C.3       1 GTP         0.0907
     18 O3'         1.9175    0.2377    2.7247 O.3       1 GTP        -0.5209
     19 C2'         0.4468   -0.3802    0.9263 C.3       1 GTP         0.0305
     20 O2'         1.3993   -1.3703    0.5961 O.3       1 GTP        -0.5978
     21 C1'        -0.6159   -0.9100    1.8769 C.3       1 GTP         0.2339
     22 N9         -1.7127   -1.6108    1.2130 N.pl3     1 GTP        -0.1765
     23 C8         -1.6092   -2.7449    0.4467 C.ar      1 GTP         0.4947
     24 N7         -2.7778   -3.1416   -0.0191 N.2       1 GTP        -0.5802
     25 C5         -3.6725   -2.2253    0.4675 C.ar      1 GTP         0.2279
     26 C6         -5.0932   -2.2202    0.2371 C.ar      1 GTP         0.6513
     27 O6         -5.6933   -3.0474   -0.4337 O.2       1 GTP        -0.5111
     28 N1         -5.7390   -1.1061    0.8992 N.pl3     1 GTP        -0.4713
     29 C2         -5.0661   -0.1368    1.6789 C.ar      1 GTP         0.5256
     30 N2         -5.7774    0.8934    2.2749 N.pl3     1 GTP        -0.8665
     31 N3         -3.6705   -0.2251    1.8481 N.pl3     1 GTP        -0.5398
     32 C4         -3.0303   -1.2785    1.2262 C.ar      1 GTP        -0.0275
     33 HOG3        0.5657    8.9244   -0.0312 H         1 GTP         0.4161
     34 H5'        -1.1767    2.0502    0.6368 H         1 GTP         0.0348
     35 H5''       -0.2080    3.2814    1.4876 H         1 GTP         0.0348
     36 H4'         0.0403    1.7078    3.4343 H         1 GTP         0.1215
     37 H3'         1.5907    1.4859    1.1353 H         1 GTP         0.0576
     38 HO3'        2.6839   -0.1150    2.2479 H         1 GTP         0.3842
     39 H2'        -0.0017    0.0018    0.0005 H         1 GTP         0.0252
     40 HO2'        2.0953   -0.9375    0.0709 H         1 GTP         0.4224
     41 H1'        -0.1998   -1.6319    2.6178 H         1 GTP         0.0745
     42 H8         -0.6610   -3.2324    0.2653 H         1 GTP         0.1522
     43 HN1        -6.7487   -1.0139    0.7961 H         1 GTP         0.3518
     44 HN21       -5.2644    1.5388    2.8044 H         1 GTP         0.4761
     45 HN22       -6.7459    0.9078    2.1265 H         1 GTP         0.4761
     46 H46        -3.1807    0.4690    2.4089 H         1 GTP         0.5030
@<TRIPOS>BOND
     1    1    2 2
     2    1    3 1
     3    1    4 1
     4    1    5 1
     5    4   33 1
     6    5    6 1
     7    6    7 2
     8    6    8 1
     9    6    9 1
    10    9   10 1
    11   10   11 2
    12   10   12 1
    13   10   13 1
    14   13   14 1
    15   14   15 1
    16   14   34 1
    17   14   35 1
    18   15   16 1
    19   15   17 1
    20   15   36 1
    21   16   21 1
    22   17   18 1
    23   17   19 1
    24   17   37 1
    25   18   38 1
    26   19   20 1
    27   19   21 1
    28   19   39 1
    29   20   40 1
    30   21   22 1
    31   21   41 1
    32   22   23 ar
    33   22   32 ar
    34   23   24 ar
    35   23   42 1
    36   24   25 ar
    37   25   26 ar
    38   25   32 ar
    39   26   27 2
    40   26   28 ar
    41   28   29 ar
    42   28   43 1
    43   29   30 1
    44   29   31 ar
    45   30   44 1
    46   30   45 1
    47   31   32 ar
    48   31   46 1
@<TRIPOS>SUBSTRUCTURE
     1 GTP         1 GROUP 0 A     ****
@<TRIPOS>MOLECULE
[[[5-(2-amino-6-oxo-1,3-dihydropurin-2-ylium-9-yl)-3,4-dihydroxy-tetrahydrofuran-2-yl]methoxy-oxido-phosphoryl]oxy-oxido-phosphoryl] hydrogen phosphate
   46    48     1     0     0
SMALL
USER_CHARGES

@<TRIPOS>ATOM
      1 PG          0.7329    1.2313   -4.5237 P.3       1 GTP         1.5400
      2 O1G         1.1650   -0.2069   -4.3442 O.co2     1 GTP        -0.8909
      3 O2G        -0.4543    1.5837   -5.3921 O.co2     1 GTP        -0.8909
      4 O3G         2.0200    2.1004   -5.0278 O.3       1 GTP        -0.7980
      5 O3B         0.5347    1.9138   -3.0545 O.3       1 GTP        -0.7612
      6 PB          0.2279    3.4669   -2.6554 P.3       1 GTP         1.5847
      7 O1B         1.4194    4.3124   -3.0462 O.co2     1 GTP        -0.8859
      8 O2B        -1.1742    3.8221   -3.0978 O.co2     1 GTP        -0.8859
      9 O3A         0.1765    3.3147   -1.0309 O.3       1 GTP        -0.7486
     10 PA         -0.0889    4.4444    0.1193 P.3       1 GTP         1.5001
     11 O1A         1.0444    5.4470    0.0872 O.co2     1 GTP        -0.8487
     12 O2A        -1.5319    4.8920    0.0350 O.co2     1 GTP        -0.8487
     13 O5'         0.0178    3.5131    1.4595 O.3       1 GTP        -0.5474
     14 C5'        -0.8811    2.4285    1.6206 C.3       1 GTP         0.2547
     15 C4'        -0.1994    1.3333    2.4288 C.3       1 GTP         0.0926
     16 O4'        -1.1285    0.2356    2.5840 O.3       1 GTP        -0.3593
     17 C3'         1.0324    0.7610    1.7344 C.3       1 GTP         0.0907
     18 O3'         1.9175    0.2377    2.7247 O.3       1 GTP        -0.5209
     19 C2'         0.4468   -0.3802    0.9263 C.3       1 GTP         0.0305
     20 O2'         1.3993   -1.3703    0.5961 O.3       1 GTP        -0.5978
     21 C1'        -0.6159   -0.9100    1.8769 C.3       1 GTP         0.2339
     22 N9         -1.7127   -1.6108    1.2130 N.pl3     1 GTP        -0.1765
     23 C8         -2.5534   -1.0907    0.2607 C.ar      1 GTP         0.4947
     24 N7         -3.4469   -1.9695   -0.1508 N.2       1 GTP        -0.5802
     25 C5         -3.1705   -3.1041    0.5657 C.ar      1 GTP         0.2279
     26 C6         -3.8738   -4.3568    0.4777 C.ar      1 GTP         0.6513
     27 O6         -4.8240   -4.5720   -0.2607 O.2       1 GTP        -0.5111
     28 N1         -3.3198   -5.3462    1.3780 N.pl3     1 GTP        -0.4713
     29 C2         -2.2226   -5.1203    2.2413 C.ar      1 GTP         0.5256
     30 N2         -1.7649   -6.1367    3.0659 N.pl3     1 GTP        -0.8665
     31 N3         -1.5969   -3.8585    2.2574 N.pl3     1 GTP        -0.5398
     32 C4         -2.1068   -2.8965    1.4082 C.ar      1 GTP        -0.0275
     33 HOG3        1.9003    3.0603   -5.1908 H         1 GTP         0.4161
     34 H5'        -1.7771    2.7849    2.1387 H         1 GTP         0.0348
     35 H5''       -1.1654    2.0541    0.6320 H         1 GTP         0.0348
     36 H4'         0.0403    1.7078    3.4343 H         1 GTP         0.1215
     37 H3'         1.5907    1.4859    1.1353 H         1 GTP         0.0576
     38 HO3'        2.6839   -0.1150    2.2479 H         1 GTP         0.3842
     39 H2'        -0.0017    0.0018    0.0005 H         1 GTP         0.0252
     40 HO2'        2.0953   -0.9375    0.0709 H         1 GTP         0.4224
     41 H1'        -0.1998   -1.6319    2.6178 H         1 GTP         0.0745
     42 H8         -2.4657   -0.0713   -0.0897 H         1 GTP         0.1522
     43 HN1        -3.7505   -6.2699    1.3904 H         1 GTP         0.3518
     44 HN21       -1.0023   -5.9289    3.6451 H         1 GTP         0.4761
     45 HN22       -2.2347   -6.9951    3.0150 H         1 GTP         0.4761
     46 H46        -0.8062   -3.6900    2.8760 H         1 GTP         0.5030
@<TRIPOS>BOND
     1    1    2 2
     2    1    3 1
     3    1    4 1
     4    1    5 1
     5    4   33 1
     6    5    6 1
     7    6    7 2
     8    6    8 1
     9    6    9 1
    10    9   10 1
    11   10   11 2
    12   10   12 1
    13   10   13 1
    14   13   14 1
    15   14   15 1
    16   14   34 1
    17   14   35 1
    18   15   16 1
    19   15   17 1
    20   15   36 1
    21   16   21 1
    22   17   18 1
    23   17   19 1
    24   17   37 1
    25   18   38 1
    26   19   20 1
    27   19   21 1
    28   19   39 1
    29   20   40 1
    30   21   22 1
    31   21   41 1
    32   22   23 ar
    33   22   32 ar
    34   23   24 ar
    35   23   42 1
    36   24   25 ar
    37   25   26 ar
    38   25   32 ar
    39   26   27 2
    40   26   28 ar
    41   28   29 ar
    42   28   43 1
    43   29   30 1
    44   29   31 ar
    45   30   44 1
    46   30   45 1
    47   31   32 ar
    48   31   46 1
@<TRIPOS>SUBSTRUCTURE
     1 GTP         1 GROUP 0 A     ****
@<TRIPOS>MOLECULE
[[[5-(2-amino-6-oxo-1,3-dihydropurin-2-ylium-9-yl)-3,4-dihydroxy-tetrahydrofuran-2-yl]methoxy-oxido-phosphoryl]oxy-oxido-phosphoryl] hydrogen phosphate
   46    48     1     0     0
SMALL
USER_CHARGES

@<TRIPOS>ATOM
      1 PG         -3.7054    5.4481   -3.3489 P.3       1 GTP         1.5400
      2 O1G        -5.1896    5.7369   -3.3844 O.co2     1 GTP        -0.8909
      3 O2G        -2.6992    6.4970   -3.7674 O.co2     1 GTP        -0.8909
      4 O3G        -3.4213    4.0867   -4.2044 O.3       1 GTP        -0.7980
      5 O3B        -3.3072    4.8950   -1.8659 O.3       1 GTP        -0.7612
      6 PB         -3.3194    5.6630   -0.4251 P.3       1 GTP         1.5847
      7 O1B        -2.2797    6.7610   -0.4521 O.co2     1 GTP        -0.8859
      8 O2B        -4.7518    5.9385   -0.0252 O.co2     1 GTP        -0.8859
      9 O3A        -2.7994    4.4428    0.5264 O.3       1 GTP        -0.7486
     10 PA         -2.5400    4.4095    2.1393 P.3       1 GTP         1.5001
     11 O1A        -1.4132    5.3638    2.4707 O.co2     1 GTP        -0.8487
     12 O2A        -3.8748    4.4994    2.8464 O.co2     1 GTP        -0.8487
     13 O5'        -2.0401    2.8620    2.3128 O.3       1 GTP        -0.5474
     14 C5'        -0.8811    2.4285    1.6206 C.3       1 GTP         0.2547
     15 C4'        -0.1994    1.3333    2.4288 C.3       1 GTP         0.0926
     16 O4'        -1.1285    0.2356    2.5840 O.3       1 GTP        -0.3593
     17 C3'         1.0324    0.7610    1.7344 C.3       1 GTP         0.0907
     18 O3'         1.9175    0.2377    2.7247 O.3       1 GTP        -0.5209
     19 C2'         0.4468   -0.3802    0.9263 C.3       1 GTP         0.0305
     20 O2'         1.3993   -1.3703    0.5961 O.3       1 GTP        -0.5978
     21 C1'        -0.6159   -0.9100    1.8769 C.3       1 GTP         0.2339
     22 N9         -1.7127   -1.6108    1.2130 N.pl3     1 GTP        -0.1765
     23 C8         -1.6092   -2.7449    0.4467 C.ar      1 GTP         0.4947
     24 N7         -2.7778   -3.1416   -0.0191 N.2       1 GTP        -0.5802
     25 C5         -3.6725   -2.2253    0.4675 C.ar      1 GTP         0.2279
     26 C6         -5.0932   -2.2202    0.2371 C.ar      1 GTP         0.6513
     27 O6         -5.6933   -3.0474   -0.4337 O.2       1 GTP        -0.5111
     28 N1         -5.7390   -1.1061    0.8992 N.pl3     1 GTP        -0.4713
     29 C2         -5.0661   -0.1368    1.6789 C.ar      1 GTP         0.5256
     30 N2         -5.7774    0.8934    2.2749 N.pl3     1 GTP        -0.8665
     31 N3         -3.6705   -0.2251    1.8481 N.pl3     1 GTP        -0.5398
     32 C4         -3.0303   -1.2785    1.2262 C.ar      1 GTP        -0.0275
     33 HOG3       -2.4975    3.7647   -4.2762 H         1 GTP         0.4161
     34 H5'        -1.1767    2.0502    0.6368 H         1 GTP         0.0348
     35 H5''       -0.2080    3.2814    1.4876 H         1 GTP         0.0348
     36 H4'         0.0403    1.7078    3.4343 H         1 GTP         0.1215
     37 H3'         1.5907    1.4859    1.1353 H         1 GTP         0.0576
     38 HO3'        2.6839   -0.1150    2.2479 H         1 GTP         0.3842
     39 H2'        -0.0017    0.0018    0.0005 H         1 GTP         0.0252
     40 HO2'        2.0953   -0.9375    0.0709 H         1 GTP         0.4224
     41 H1'        -0.1998   -1.6319    2.6178 H         1 GTP         0.0745
     42 H8         -0.6610   -3.2324    0.2653 H         1 GTP         0.1522
     43 HN1        -6.7487   -1.0139    0.7961 H         1 GTP         0.3518
     44 HN21       -5.2644    1.5388    2.8044 H         1 GTP         0.4761
     45 HN22       -6.7459    0.9078    2.1265 H         1 GTP         0.4761
     46 H46        -3.1807    0.4690    2.4089 H         1 GTP         0.5030
@<TRIPOS>BOND
     1    1    2 2
     2    1    3 1
     3    1    4 1
     4    1    5 1
     5    4   33 1
     6    5    6 1
     7    6    7 2
     8    6    8 1
     9    6    9 1
    10    9   10 1
    11   10   11 2
    12   10   12 1
    13   10   13 1
    14   13   14 1
    15   14   15 1
    16   14   34 1
    17   14   35 1
    18   15   16 1
    19   15   17 1
    20   15   36 1
    21   16   21 1
    22   17   18 1
    23   17   19 1
    24   17   37 1
    25   18   38 1
    26   19   20 1
    27   19   21 1
    28   19   39 1
    29   20   40 1
    30   21   22 1
    31   21   41 1
    32   22   23 ar
    33   22   32 ar
    34   23   24 ar
    35   23   42 1
    36   24   25 ar
    37   25   26 ar
    38   25   32 ar
    39   26   27 2
    40   26   28 ar
    41   28   29 ar
    42   28   43 1
    43   29   30 1
    44   29   31 ar
    45   30   44 1
    46   30   45 1
    47   31   32 ar
    48   31   46 1
@<TRIPOS>SUBSTRUCTURE
     1 GTP         1 GROUP 0 A     ****
@<TRIPOS>MOLECULE
[[[5-(2-amino-6-oxo-1,3-dihydropurin-2-ylium-9-yl)-3,4-dihydroxy-tetrahydrofuran-2-yl]methoxy-oxido-phosphoryl]oxy-oxido-phosphoryl] hydrogen phosphate
   46    48     1     0     0
SMALL
USER_CHARGES

@<TRIPOS>ATOM
      1 PG          2.0732    5.3428   -1.5965 P.3       1 GTP         1.5400
      2 O1G         2.1930    4.1380   -0.6901 O.co2     1 GTP        -0.8909
      3 O2G         2.3847    5.2387   -3.0729 O.co2     1 GTP        -0.8909
      4 O3G         2.9611    6.5582   -0.9638 O.3       1 GTP        -0.7980
      5 O3B         0.5903    5.9996   -1.4138 O.3       1 GTP        -0.7612
      6 PB         -0.8755    5.3994   -1.8096 P.3       1 GTP         1.5847
      7 O1B        -1.9402    6.3468   -1.3031 O.co2     1 GTP        -0.8859
      8 O2B        -0.8469    4.9372   -3.2494 O.co2     1 GTP        -0.8859
      9 O3A        -0.8634    4.0508   -0.8898 O.3       1 GTP        -0.7486
     10 PA         -1.9976    2.8867   -0.7222 P.3       1 GTP         1.5001
     11 O1A        -3.2328    3.4974   -0.0965 O.co2     1 GTP        -0.8487
     12 O2A        -2.0811    2.1024   -2.0136 O.co2     1 GTP        -0.8487
     13 O5'        -1.2434    1.9104    0.3515 O.3       1 GTP        -0.5474
     14 C5'        -0.8811    2.4285    1.6206 C.3       1 GTP         0.2547
     15 C4'        -0.1994    1.3333    2.4288 C.3       1 GTP         0.0926
     16 O4'        -1.1285    0.2356    2.5840 O.3       1 GTP        -0.3593
     17 C3'         1.0324    0.7610    1.7344 C.3       1 GTP         0.0907
     18 O3'         1.9175    0.2377    2.7247 O.3       1 GTP        -0.5209
     19 C2'         0.4468   -0.3802    0.9263 C.3       1 GTP         0.0305
     20 O2'         1.3993   -1.3703    0.5961 O.3       1 GTP        -0.5978
     21 C1'        -0.6159   -0.9100    1.8769 C.3       1 GTP         0.2339
     22 N9         -1.7127   -1.6108    1.2130 N.pl3     1 GTP        -0.1765
     23 C8         -2.8692   -1.0463    0.7355 C.ar      1 GTP         0.4947
     24 N7         -3.6707   -1.9381    0.1856 N.2       1 GTP        -0.5802
     25 C5         -3.0027   -3.1275    0.3134 C.ar      1 GTP         0.2279
     26 C6         -3.4659   -4.4142   -0.1355 C.ar      1 GTP         0.6513
     27 O6         -4.5328   -4.6133   -0.6980 O.2       1 GTP        -0.5111
     28 N1         -2.5102   -5.4606    0.1612 N.pl3     1 GTP        -0.4713
     29 C2         -1.2711   -5.2547    0.8113 C.ar      1 GTP         0.5256
     30 N2         -0.4228   -6.3256    1.0482 N.pl3     1 GTP        -0.8665
     31 N3         -0.9033   -3.9563    1.2146 N.pl3     1 GTP        -0.5398
     32 C4         -1.7979   -2.9400    0.9438 C.ar      1 GTP        -0.0275
     33 HOG3        2.9857    7.4154   -1.4402 H         1 GTP         0.4161
     34 H5'        -0.2033    3.2760    1.4769 H         1 GTP         0.0348
     35 H5''       -1.7841    2.7762    2.1323 H         1 GTP         0.0348
     36 H4'         0.0403    1.7078    3.4343 H         1 GTP         0.1215
     37 H3'         1.5907    1.4859    1.1353 H         1 GTP         0.0576
     38 HO3'        2.6839   -0.1150    2.2479 H         1 GTP         0.3842
     39 H2'        -0.0017    0.0018    0.0005 H         1 GTP         0.0252
     40 HO2'        2.0953   -0.9375    0.0709 H         1 GTP         0.4224
     41 H1'        -0.1998   -1.6319    2.6178 H         1 GTP         0.0745
     42 H8         -3.0691    0.0134    0.8177 H         1 GTP         0.1522
     43 HN1        -2.7468   -6.4119   -0.1177 H         1 GTP         0.3518
     44 HN21        0.4233   -6.1297    1.5018 H         1 GTP         0.4761
     45 HN22       -0.7261   -7.2071    0.7466 H         1 GTP         0.4761
     46 H46        -0.0124   -3.8015    1.6821 H         1 GTP         0.5030
@<TRIPOS>BOND
     1    1    2 2
     2    1    3 1
     3    1    4 1
     4    1    5 1
     5    4   33 1
     6    5    6 1
     7    6    7 2
     8    6    8 1
     9    6    9 1
    10    9   10 1
    11   10   11 2
    12   10   12 1
    13   10   13 1
    14   13   14 1
    15   14   15 1
    16   14   34 1
    17   14   35 1
    18   15   16 1
    19   15   17 1
    20   15   36 1
    21   16   21 1
    22   17   18 1
    23   17   19 1
    24   17   37 1
    25   18   38 1
    26   19   20 1
    27   19   21 1
    28   19   39 1
    29   20   40 1
    30   21   22 1
    31   21   41 1
    32   22   23 ar
    33   22   32 ar
    34   23   24 ar
    35   23   42 1
    36   24   25 ar
    37   25   26 ar
    38   25   32 ar
    39   26   27 2
    40   26   28 ar
    41   28   29 ar
    42   28   43 1
    43   29   30 1
    44   29   31 ar
    45   30   44 1
    46   30   45 1
    47   31   32 ar
    48   31   46 1
@<TRIPOS>SUBSTRUCTURE
     1 GTP         1 GROUP 0 A     ****
@<TRIPOS>MOLECULE
[[[5-(2-amino-6-oxo-1,3-dihydropurin-2-ylium-9-yl)-3,4-dihydroxy-tetrahydrofuran-2-yl]methoxy-oxido-phosphoryl]oxy-oxido-phosphoryl] hydrogen phosphate
   46    48     1     0     0
SMALL
USER_CHARGES

@<TRIPOS>ATOM
      1 PG          0.5592    7.9659    5.7245 P.3       1 GTP         1.5400
      2 O1G        -0.5217    9.0003    5.5025 O.co2     1 GTP        -0.8909
      3 O2G         0.9133    7.4987    7.1188 O.co2     1 GTP        -0.8909
      4 O3G         1.9237    8.4748    4.9861 O.3       1 GTP        -0.7980
      5 O3B         0.2464    6.6625    4.7933 O.3       1 GTP        -0.7612
      6 PB         -0.9772    5.5850    4.8794 P.3       1 GTP         1.5847
      7 O1B        -0.8508    4.8101    6.1722 O.co2     1 GTP        -0.8859
      8 O2B        -2.2675    6.2717    4.4909 O.co2     1 GTP        -0.8859
      9 O3A        -0.5682    4.6235    3.6252 O.3       1 GTP        -0.7486
     10 PA         -0.3962    4.9846    2.0409 P.3       1 GTP         1.5001
     11 O1A        -1.7409    5.4059    1.4892 O.co2     1 GTP        -0.8487
     12 O2A         0.8270    5.8595    1.8736 O.co2     1 GTP        -0.8487
     13 O5'         0.0178    3.5131    1.4595 O.3       1 GTP        -0.5474
     14 C5'        -0.8811    2.4285    1.6206 C.3       1 GTP         0.2547
     15 C4'        -0.1994    1.3333    2.4288 C.3       1 GTP         0.0926
     16 O4'        -1.1285    0.2356    2.5840 O.3       1 GTP        -0.3593
     17 C3'         1.0324    0.7610    1.7344 C.3       1 GTP         0.0907
     18 O3'         1.9175    0.2377    2.7247 O.3       1 GTP        -0.5209
     19 C2'         0.4468   -0.3802    0.9263 C.3       1 GTP         0.0305
     20 O2'         1.3993   -1.3703    0.5961 O.3       1 GTP        -0.5978
     21 C1'        -0.6159   -0.9100    1.8769 C.3       1 GTP         0.2339
     22 N9         -1.7127   -1.6108    1.2130 N.pl3     1 GTP        -0.1765
     23 C8         -2.8692   -1.0463    0.7355 C.ar      1 GTP         0.4947
     24 N7         -3.6707   -1.9381    0.1856 N.2       1 GTP        -0.5802
     25 C5         -3.0027   -3.1275    0.3134 C.ar      1 GTP         0.2279
     26 C6         -3.4659   -4.4142   -0.1355 C.ar      1 GTP         0.6513
     27 O6         -4.5328   -4.6133   -0.6980 O.2       1 GTP        -0.5111
     28 N1         -2.5102   -5.4606    0.1612 N.pl3     1 GTP        -0.4713
     29 C2         -1.2711   -5.2547    0.8113 C.ar      1 GTP         0.5256
     30 N2         -0.4228   -6.3256    1.0482 N.pl3     1 GTP        -0.8665
     31 N3         -0.9033   -3.9563    1.2146 N.pl3     1 GTP        -0.5398
     32 C4         -1.7979   -2.9400    0.9438 C.ar      1 GTP        -0.0275
     33 HOG3        2.7225    7.9080    5.0393 H         1 GTP         0.4161
     34 H5'        -1.7771    2.7849    2.1387 H         1 GTP         0.0348
     35 H5''       -1.1654    2.0541    0.6320 H         1 GTP         0.0348
     36 H4'         0.0403    1.7078    3.4343 H         1 GTP         0.1215
     37 H3'         1.5907    1.4859    1.1353 H         1 GTP         0.0576
     38 HO3'        2.6839   -0.1150    2.2479 H         1 GTP         0.3842
     39 H2'        -0.0017    0.0018    0.0005 H         1 GTP         0.0252
     40 HO2'        2.0953   -0.9375    0.0709 H         1 GTP         0.4224
     41 H1'        -0.1998   -1.6319    2.6178 H         1 GTP         0.0745
     42 H8         -3.0691    0.0134    0.8177 H         1 GTP         0.1522
     43 HN1        -2.7468   -6.4119   -0.1177 H         1 GTP         0.3518
     44 HN21        0.4233   -6.1297    1.5018 H         1 GTP         0.4761
     45 HN22       -0.7261   -7.2071    0.7466 H         1 GTP         0.4761
     46 H46        -0.0124   -3.8015    1.6821 H         1 GTP         0.5030
@<TRIPOS>BOND
     1    1    2 2
     2    1    3 1
     3    1    4 1
     4    1    5 1
     5    4   33 1
     6    5    6 1
     7    6    7 2
     8    6    8 1
     9    6    9 1
    10    9   10 1
    11   10   11 2
    12   10   12 1
    13   10   13 1
    14   13   14 1
    15   14   15 1
    16   14   34 1
    17   14   35 1
    18   15   16 1
    19   15   17 1
    20   15   36 1
    21   16   21 1
    22   17   18 1
    23   17   19 1
    24   17   37 1
    25   18   38 1
    26   19   20 1
    27   19   21 1
    28   19   39 1
    29   20   40 1
    30   21   22 1
    31   21   41 1
    32   22   23 ar
    33   22   32 ar
    34   23   24 ar
    35   23   42 1
    36   24   25 ar
    37   25   26 ar
    38   25   32 ar
    39   26   27 2
    40   26   28 ar
    41   28   29 ar
    42   28   43 1
    43   29   30 1
    44   29   31 ar
    45   30   44 1
    46   30   45 1
    47   31   32 ar
    48   31   46 1
@<TRIPOS>SUBSTRUCTURE
     1 GTP         1 GROUP 0 A     ****
@<TRIPOS>MOLECULE
[[[5-(2-amino-6-oxo-1,3-dihydropurin-2-ylium-9-yl)-3,4-dihydroxy-tetrahydrofuran-2-yl]methoxy-oxido-phosphoryl]oxy-oxido-phosphoryl] hydrogen phosphate
   46    48     1     0     0
SMALL
USER_CHARGES

@<TRIPOS>ATOM
      1 PG         -6.4651    2.3631   -1.4325 P.3       1 GTP         1.5400
      2 O1G        -7.7150    2.9655   -0.8305 O.co2     1 GTP        -0.8909
      3 O2G        -6.1429    2.5457   -2.8990 O.co2     1 GTP        -0.8909
      4 O3G        -6.4429    0.7664   -1.0917 O.3       1 GTP        -0.7980
      5 O3B        -5.1740    2.8224   -0.5460 O.3       1 GTP        -0.7612
      6 PB         -4.5154    4.3030   -0.3467 P.3       1 GTP         1.5847
      7 O1B        -3.9508    4.7648   -1.6716 O.co2     1 GTP        -0.8859
      8 O2B        -5.4696    5.1640    0.4507 O.co2     1 GTP        -0.8859
      9 O3A        -3.2920    3.9119    0.6609 O.3       1 GTP        -0.7486
     10 PA         -3.3347    3.2338    2.1468 P.3       1 GTP         1.5001
     11 O1A        -4.0274    4.1866    3.0968 O.co2     1 GTP        -0.8487
     12 O2A        -3.7889    1.7968    2.0106 O.co2     1 GTP        -0.8487
     13 O5'        -1.7336    3.1724    2.4750 O.3       1 GTP        -0.5474
     14 C5'        -0.8811    2.4285    1.6206 C.3       1 GTP         0.2547
     15 C4'        -0.1994    1.3333    2.4288 C.3       1 GTP         0.0926
     16 O4'        -1.1285    0.2356    2.5840 O.3       1 GTP        -0.3593
     17 C3'         1.0324    0.7610    1.7344 C.3       1 GTP         0.0907
     18 O3'         1.9175    0.2377    2.7247 O.3       1 GTP        -0.5209
     19 C2'         0.4468   -0.3802    0.9263 C.3       1 GTP         0.0305
     20 O2'         1.3993   -1.3703    0.5961 O.3       1 GTP        -0.5978
     21 C1'        -0.6159   -0.9100    1.8769 C.3       1 GTP         0.2339
     22 N9         -1.7127   -1.6108    1.2130 N.pl3     1 GTP        -0.1765
     23 C8         -2.5534   -1.0907    0.2607 C.ar      1 GTP         0.4947
     24 N7         -3.4469   -1.9695   -0.1508 N.2       1 GTP        -0.5802
     25 C5         -3.1705   -3.1041    0.5657 C.ar      1 GTP         0.2279
     26 C6         -3.8738   -4.3568    0.4777 C.ar      1 GTP         0.6513
     27 O6         -4.8240   -4.5720   -0.2607 O.2       1 GTP        -0.5111
     28 N1         -3.3198   -5.3462    1.3780 N.pl3     1 GTP        -0.4713
     29 C2         -2.2226   -5.1203    2.2413 C.ar      1 GTP         0.5256
     30 N2         -1.7649   -6.1367    3.0659 N.pl3     1 GTP        -0.8665
     31 N3         -1.5969   -3.8585    2.2574 N.pl3     1 GTP        -0.5398
     32 C4         -2.1068   -2.8965    1.4082 C.ar      1 GTP        -0.0275
     33 HOG3       -5.6886    0.2301   -1.4168 H         1 GTP         0.4161
     34 H5'        -1.4800    1.9927    0.8146 H         1 GTP         0.0348
     35 H5''       -0.1367    3.1040    1.1872 H         1 GTP         0.0348
     36 H4'         0.0403    1.7078    3.4343 H         1 GTP         0.1215
     37 H3'         1.5907    1.4859    1.1353 H         1 GTP         0.0576
     38 HO3'        2.1521    0.9800    3.3017 H         1 GTP         0.3842
     39 H2'        -0.0017    0.0018    0.0005 H         1 GTP         0.0252
     40 HO2'        2.0953   -0.9375    0.0709 H         1 GTP         0.4224
     41 H1'        -0.1998   -1.6319    2.6178 H         1 GTP         0.0745
     42 H8         -2.4657   -0.0713   -0.0897 H         1 GTP         0.1522
     43 HN1        -3.7505   -6.2699    1.3904 H         1 GTP         0.3518
     44 HN21       -1.0023   -5.9289    3.6451 H         1 GTP         0.4761
     45 HN22       -2.2347   -6.9951    3.0150 H         1 GTP         0.4761
     46 H46        -0.8062   -3.6900    2.8760 H         1 GTP         0.5030
@<TRIPOS>BOND
     1    1    2 2
     2    1    3 1
     3    1    4 1
     4    1    5 1
     5    4   33 1
     6    5    6 1
     7    6    7 2
     8    6    8 1
     9    6    9 1
    10    9   10 1
    11   10   11 2
    12   10   12 1
    13   10   13 1
    14   13   14 1
    15   14   15 1
    16   14   34 1
    17   14   35 1
    18   15   16 1
    19   15   17 1
    20   15   36 1
    21   16   21 1
    22   17   18 1
    23   17   19 1
    24   17   37 1
    25   18   38 1
    26   19   20 1
    27   19   21 1
    28   19   39 1
    29   20   40 1
    30   21   22 1
    31   21   41 1
    32   22   23 ar
    33   22   32 ar
    34   23   24 ar
    35   23   42 1
    36   24   25 ar
    37   25   26 ar
    38   25   32 ar
    39   26   27 2
    40   26   28 ar
    41   28   29 ar
    42   28   43 1
    43   29   30 1
    44   29   31 ar
    45   30   44 1
    46   30   45 1
    47   31   32 ar
    48   31   46 1
@<TRIPOS>SUBSTRUCTURE
     1 GTP         1 GROUP 0 A     ****
@<TRIPOS>MOLECULE
[[[5-(2-amino-6-oxo-1,3-dihydropurin-2-ylium-9-yl)-3,4-dihydroxy-tetrahydrofuran-2-yl]methoxy-oxido-phosphoryl]oxy-oxido-phosphoryl] hydrogen phosphate
   46    48     1     0     0
SMALL
USER_CHARGES

@<TRIPOS>ATOM
      1 PG          0.1447    8.7818    1.0096 P.3       1 GTP         1.5400
      2 O1G        -0.7135    9.8427    1.6618 O.co2     1 GTP        -0.8909
      3 O2G         1.6323    8.7140    1.2748 O.co2     1 GTP        -0.8909
      4 O3G        -0.0917    8.8437   -0.6048 O.3       1 GTP        -0.7980
      5 O3B        -0.5115    7.3158    1.2989 O.3       1 GTP        -0.7612
      6 PB         -2.0305    6.7790    1.0340 P.3       1 GTP         1.5847
      7 O1B        -2.9776    7.5399    1.9348 O.co2     1 GTP        -0.8859
      8 O2B        -2.2651    6.6783   -0.4568 O.co2     1 GTP        -0.8859
      9 O3A        -1.8672    5.2499    1.5817 O.3       1 GTP        -0.7486
     10 PA         -2.9646    4.0418    1.6587 P.3       1 GTP         1.5001
     11 O1A        -4.0615    4.4416    2.6216 O.co2     1 GTP        -0.8487
     12 O2A        -3.2861    3.5890    0.2511 O.co2     1 GTP        -0.8487
     13 O5'        -2.0401    2.8620    2.3128 O.3       1 GTP        -0.5474
     14 C5'        -0.8811    2.4285    1.6206 C.3       1 GTP         0.2547
     15 C4'        -0.1994    1.3333    2.4288 C.3       1 GTP         0.0926
     16 O4'        -1.1285    0.2356    2.5840 O.3       1 GTP        -0.3593
     17 C3'         1.0324    0.7610    1.7344 C.3       1 GTP         0.0907
     18 O3'         1.9175    0.2377    2.7247 O.3       1 GTP        -0.5209
     19 C2'         0.4468   -0.3802    0.9263 C.3       1 GTP         0.0305
     20 O2'         1.3993   -1.3703    0.5961 O.3       1 GTP        -0.5978
     21 C1'        -0.6159   -0.9100    1.8769 C.3       1 GTP         0.2339
     22 N9         -1.7127   -1.6108    1.2130 N.pl3     1 GTP        -0.1765
     23 C8         -2.5534   -1.0907    0.2607 C.ar      1 GTP         0.4947
     24 N7         -3.4469   -1.9695   -0.1508 N.2       1 GTP        -0.5802
     25 C5         -3.1705   -3.1041    0.5657 C.ar      1 GTP         0.2279
     26 C6         -3.8738   -4.3568    0.4777 C.ar      1 GTP         0.6513
     27 O6         -4.8240   -4.5720   -0.2607 O.2       1 GTP        -0.5111
     28 N1         -3.3198   -5.3462    1.3780 N.pl3     1 GTP        -0.4713
     29 C2         -2.2226   -5.1203    2.2413 C.ar      1 GTP         0.5256
     30 N2         -1.7649   -6.1367    3.0659 N.pl3     1 GTP        -0.8665
     31 N3         -1.5969   -3.8585    2.2574 N.pl3     1 GTP        -0.5398
     32 C4         -2.1068   -2.8965    1.4082 C.ar      1 GTP        -0.0275
     33 HOG3        0.3988    8.2122   -1.1730 H         1 GTP         0.4161
     34 H5'        -1.1767    2.0502    0.6368 H         1 GTP         0.0348
     35 H5''       -0.2080    3.2814    1.4876 H         1 GTP         0.0348
     36 H4'         0.0403    1.7078    3.4343 H         1 GTP         0.1215
     37 H3'         1.5907    1.4859    1.1353 H         1 GTP         0.0576
     38 HO3'        2.6839   -0.1150    2.2479 H         1 GTP         0.3842
     39 H2'        -0.0017    0.0018    0.0005 H         1 GTP         0.0252
     40 HO2'        2.0953   -0.9375    0.0709 H         1 GTP         0.4224
     41 H1'        -0.1998   -1.6319    2.6178 H         1 GTP         0.0745
     42 H8         -2.4657   -0.0713   -0.0897 H         1 GTP         0.1522
     43 HN1        -3.7505   -6.2699    1.3904 H         1 GTP         0.3518
     44 HN21       -1.0023   -5.9289    3.6451 H         1 GTP         0.4761
     45 HN22       -2.2347   -6.9951    3.0150 H         1 GTP         0.4761
     46 H46        -0.8062   -3.6900    2.8760 H         1 GTP         0.5030
@<TRIPOS>BOND
     1    1    2 2
     2    1    3 1
     3    1    4 1
     4    1    5 1
     5    4   33 1
     6    5    6 1
     7    6    7 2
     8    6    8 1
     9    6    9 1
    10    9   10 1
    11   10   11 2
    12   10   12 1
    13   10   13 1
    14   13   14 1
    15   14   15 1
    16   14   34 1
    17   14   35 1
    18   15   16 1
    19   15   17 1
    20   15   36 1
    21   16   21 1
    22   17   18 1
    23   17   19 1
    24   17   37 1
    25   18   38 1
    26   19   20 1
    27   19   21 1
    28   19   39 1
    29   20   40 1
    30   21   22 1
    31   21   41 1
    32   22   23 ar
    33   22   32 ar
    34   23   24 ar
    35   23   42 1
    36   24   25 ar
    37   25   26 ar
    38   25   32 ar
    39   26   27 2
    40   26   28 ar
    41   28   29 ar
    42   28   43 1
    43   29   30 1
    44   29   31 ar
    45   30   44 1
    46   30   45 1
    47   31   32 ar
    48   31   46 1
@<TRIPOS>SUBSTRUCTURE
     1 GTP         1 GROUP 0 A     ****
@<TRIPOS>MOLECULE
[[[5-(2-amino-6-oxo-1,3-dihydropurin-2-ylium-9-yl)-3,4-dihydroxy-tetrahydrofuran-2-yl]methoxy-oxido-phosphoryl]oxy-oxido-phosphoryl] hydrogen phosphate
   46    48     1     0     0
SMALL
USER_CHARGES

@<TRIPOS>ATOM
      1 PG          0.1447    8.7818    1.0096 P.3       1 GTP         1.5400
      2 O1G         1.5410    8.8193    1.5896 O.co2     1 GTP        -0.8909
      3 O2G        -0.1074    9.1555   -0.4342 O.co2     1 GTP        -0.8909
      4 O3G        -0.8346    9.6818    1.9566 O.3       1 GTP        -0.7980
      5 O3B        -0.5115    7.3158    1.2989 O.3       1 GTP        -0.7612
      6 PB         -2.0305    6.7790    1.0340 P.3       1 GTP         1.5847
      7 O1B        -2.9776    7.5399    1.9348 O.co2     1 GTP        -0.8859
      8 O2B        -2.2651    6.6783   -0.4568 O.co2     1 GTP        -0.8859
      9 O3A        -1.8672    5.2499    1.5817 O.3       1 GTP        -0.7486
     10 PA         -2.9646    4.0418    1.6587 P.3       1 GTP         1.5001
     11 O1A        -4.0615    4.4416    2.6216 O.co2     1 GTP        -0.8487
     12 O2A        -3.2861    3.5890    0.2511 O.co2     1 GTP        -0.8487
     13 O5'        -2.0401    2.8620    2.3128 O.3       1 GTP        -0.5474
     14 C5'        -0.8811    2.4285    1.6206 C.3       1 GTP         0.2547
     15 C4'        -0.1994    1.3333    2.4288 C.3       1 GTP         0.0926
     16 O4'        -1.1285    0.2356    2.5840 O.3       1 GTP        -0.3593
     17 C3'         1.0324    0.7610    1.7344 C.3       1 GTP         0.0907
     18 O3'         1.9175    0.2377    2.7247 O.3       1 GTP        -0.5209
     19 C2'         0.4468   -0.3802    0.9263 C.3       1 GTP         0.0305
     20 O2'         1.3993   -1.3703    0.5961 O.3       1 GTP        -0.5978
     21 C1'        -0.6159   -0.9100    1.8769 C.3       1 GTP         0.2339
     22 N9         -1.7127   -1.6108    1.2130 N.pl3     1 GTP        -0.1765
     23 C8         -1.6092   -2.7449    0.4467 C.ar      1 GTP         0.4947
     24 N7         -2.7778   -3.1416   -0.0191 N.2       1 GTP        -0.5802
     25 C5         -3.6725   -2.2253    0.4675 C.ar      1 GTP         0.2279
     26 C6         -5.0932   -2.2202    0.2371 C.ar      1 GTP         0.6513
     27 O6         -5.6933   -3.0474   -0.4337 O.2       1 GTP        -0.5111
     28 N1         -5.7390   -1.1061    0.8992 N.pl3     1 GTP        -0.4713
     29 C2         -5.0661   -0.1368    1.6789 C.ar      1 GTP         0.5256
     30 N2         -5.7774    0.8934    2.2749 N.pl3     1 GTP        -0.8665
     31 N3         -3.6705   -0.2251    1.8481 N.pl3     1 GTP        -0.5398
     32 C4         -3.0303   -1.2785    1.2262 C.ar      1 GTP        -0.0275
     33 HOG3       -1.7813    9.7573    1.7109 H         1 GTP         0.4161
     34 H5'        -1.1767    2.0502    0.6368 H         1 GTP         0.0348
     35 H5''       -0.2080    3.2814    1.4876 H         1 GTP         0.0348
     36 H4'         0.0403    1.7078    3.4343 H         1 GTP         0.1215
     37 H3'         1.5907    1.4859    1.1353 H         1 GTP         0.0576
     38 HO3'        2.6839   -0.1150    2.2479 H         1 GTP         0.3842
     39 H2'        -0.0017    0.0018    0.0005 H         1 GTP         0.0252
     40 HO2'        2.0953   -0.9375    0.0709 H         1 GTP         0.4224
     41 H1'        -0.1998   -1.6319    2.6178 H         1 GTP         0.0745
     42 H8         -0.6610   -3.2324    0.2653 H         1 GTP         0.1522
     43 HN1        -6.7487   -1.0139    0.7961 H         1 GTP         0.3518
     44 HN21       -5.2644    1.5388    2.8044 H         1 GTP         0.4761
     45 HN22       -6.7459    0.9078    2.1265 H         1 GTP         0.4761
     46 H46        -3.1807    0.4690    2.4089 H         1 GTP         0.5030
@<TRIPOS>BOND
     1    1    2 2
     2    1    3 1
     3    1    4 1
     4    1    5 1
     5    4   33 1
     6    5    6 1
     7    6    7 2
     8    6    8 1
     9    6    9 1
    10    9   10 1
    11   10   11 2
    12   10   12 1
    13   10   13 1
    14   13   14 1
    15   14   15 1
    16   14   34 1
    17   14   35 1
    18   15   16 1
    19   15   17 1
    20   15   36 1
    21   16   21 1
    22   17   18 1
    23   17   19 1
    24   17   37 1
    25   18   38 1
    26   19   20 1
    27   19   21 1
    28   19   39 1
    29   20   40 1
    30   21   22 1
    31   21   41 1
    32   22   23 ar
    33   22   32 ar
    34   23   24 ar
    35   23   42 1
    36   24   25 ar
    37   25   26 ar
    38   25   32 ar
    39   26   27 2
    40   26   28 ar
    41   28   29 ar
    42   28   43 1
    43   29   30 1
    44   29   31 ar
    45   30   44 1
    46   30   45 1
    47   31   32 ar
    48   31   46 1
@<TRIPOS>SUBSTRUCTURE
     1 GTP         1 GROUP 0 A     ****
@<TRIPOS>MOLECULE
[[[5-(2-amino-6-oxo-1,3-dihydropurin-2-ylium-9-yl)-3,4-dihydroxy-tetrahydrofuran-2-yl]methoxy-oxido-phosphoryl]oxy-oxido-phosphoryl] hydrogen phosphate
   46    48     1     0     0
SMALL
USER_CHARGES

@<TRIPOS>ATOM
      1 PG         -1.7252    7.9643   -1.6093 P.3       1 GTP         1.5400
      2 O1G        -1.8839    7.5360   -3.0511 O.co2     1 GTP        -0.8909
      3 O2G        -2.5312    9.1140   -1.0469 O.co2     1 GTP        -0.8909
      4 O3G        -0.1434    8.2520   -1.3248 O.3       1 GTP        -0.7980
      5 O3B        -1.9166    6.6621   -0.6442 O.3       1 GTP        -0.7612
      6 PB         -3.2454    5.7571   -0.3601 P.3       1 GTP         1.5847
      7 O1B        -4.2720    6.6123    0.3485 O.co2     1 GTP        -0.8859
      8 O2B        -3.5897    4.9800   -1.6111 O.co2     1 GTP        -0.8859
      9 O3A        -2.6104    4.6829    0.6924 O.3       1 GTP        -0.7486
     10 PA         -3.3161    3.4234    1.4576 P.3       1 GTP         1.5001
     11 O1A        -4.3794    3.9564    2.3932 O.co2     1 GTP        -0.8487
     12 O2A        -3.6374    2.3544    0.4359 O.co2     1 GTP        -0.8487
     13 O5'        -2.0401    2.8620    2.3128 O.3       1 GTP        -0.5474
     14 C5'        -0.8811    2.4285    1.6206 C.3       1 GTP         0.2547
     15 C4'        -0.1994    1.3333    2.4288 C.3       1 GTP         0.0926
     16 O4'        -1.1285    0.2356    2.5840 O.3       1 GTP        -0.3593
     17 C3'         1.0324    0.7610    1.7344 C.3       1 GTP         0.0907
     18 O3'         1.9175    0.2377    2.7247 O.3       1 GTP        -0.5209
     19 C2'         0.4468   -0.3802    0.9263 C.3       1 GTP         0.0305
     20 O2'         1.3993   -1.3703    0.5961 O.3       1 GTP        -0.5978
     21 C1'        -0.6159   -0.9100    1.8769 C.3       1 GTP         0.2339
     22 N9         -1.7127   -1.6108    1.2130 N.pl3     1 GTP        -0.1765
     23 C8         -2.5534   -1.0907    0.2607 C.ar      1 GTP         0.4947
     24 N7         -3.4469   -1.9695   -0.1508 N.2       1 GTP        -0.5802
     25 C5         -3.1705   -3.1041    0.5657 C.ar      1 GTP         0.2279
     26 C6         -3.8738   -4.3568    0.4777 C.ar      1 GTP         0.6513
     27 O6         -4.8240   -4.5720   -0.2607 O.2       1 GTP        -0.5111
     28 N1         -3.3198   -5.3462    1.3780 N.pl3     1 GTP        -0.4713
     29 C2         -2.2226   -5.1203    2.2413 C.ar      1 GTP         0.5256
     30 N2         -1.7649   -6.1367    3.0659 N.pl3     1 GTP        -0.8665
     31 N3         -1.5969   -3.8585    2.2574 N.pl3     1 GTP        -0.5398
     32 C4         -2.1068   -2.8965    1.4082 C.ar      1 GTP        -0.0275
     33 HOG3        0.1244    8.5410   -0.4264 H         1 GTP         0.4161
     34 H5'        -1.1767    2.0502    0.6368 H         1 GTP         0.0348
     35 H5''       -0.2080    3.2814    1.4876 H         1 GTP         0.0348
     36 H4'         0.0403    1.7078    3.4343 H         1 GTP         0.1215
     37 H3'         1.5907    1.4859    1.1353 H         1 GTP         0.0576
     38 HO3'        2.6839   -0.1150    2.2479 H         1 GTP         0.3842
     39 H2'        -0.0017    0.0018    0.0005 H         1 GTP         0.0252
     40 HO2'        2.0953   -0.9375    0.0709 H         1 GTP         0.4224
     41 H1'        -0.1998   -1.6319    2.6178 H         1 GTP         0.0745
     42 H8         -2.4657   -0.0713   -0.0897 H         1 GTP         0.1522
     43 HN1        -3.7505   -6.2699    1.3904 H         1 GTP         0.3518
     44 HN21       -1.0023   -5.9289    3.6451 H         1 GTP         0.4761
     45 HN22       -2.2347   -6.9951    3.0150 H         1 GTP         0.4761
     46 H46        -0.8062   -3.6900    2.8760 H         1 GTP         0.5030
@<TRIPOS>BOND
     1    1    2 2
     2    1    3 1
     3    1    4 1
     4    1    5 1
     5    4   33 1
     6    5    6 1
     7    6    7 2
     8    6    8 1
     9    6    9 1
    10    9   10 1
    11   10   11 2
    12   10   12 1
    13   10   13 1
    14   13   14 1
    15   14   15 1
    16   14   34 1
    17   14   35 1
    18   15   16 1
    19   15   17 1
    20   15   36 1
    21   16   21 1
    22   17   18 1
    23   17   19 1
    24   17   37 1
    25   18   38 1
    26   19   20 1
    27   19   21 1
    28   19   39 1
    29   20   40 1
    30   21   22 1
    31   21   41 1
    32   22   23 ar
    33   22   32 ar
    34   23   24 ar
    35   23   42 1
    36   24   25 ar
    37   25   26 ar
    38   25   32 ar
    39   26   27 2
    40   26   28 ar
    41   28   29 ar
    42   28   43 1
    43   29   30 1
    44   29   31 ar
    45   30   44 1
    46   30   45 1
    47   31   32 ar
    48   31   46 1
@<TRIPOS>SUBSTRUCTURE
     1 GTP         1 GROUP 0 A     ****
@<TRIPOS>MOLECULE
[[[5-(2-amino-6-oxo-1,3-dihydropurin-2-ylium-9-yl)-3,4-dihydroxy-tetrahydrofuran-2-yl]methoxy-oxido-phosphoryl]oxy-oxido-phosphoryl] hydrogen phosphate
   46    48     1     0     0
SMALL
USER_CHARGES

@<TRIPOS>ATOM
      1 PG         -1.6279    7.5527   -2.2492 P.3       1 GTP         1.5400
      2 O1G        -0.1629    7.8623   -2.4620 O.co2     1 GTP        -0.8909
      3 O2G        -2.5102    7.1362   -3.4050 O.co2     1 GTP        -0.8909
      4 O3G        -2.3232    8.8251   -1.4985 O.3       1 GTP        -0.7980
      5 O3B        -1.7699    6.4524   -1.0521 O.3       1 GTP        -0.7612
      6 PB         -3.1074    5.8778   -0.3129 P.3       1 GTP         1.5847
      7 O1B        -3.7613    7.0067    0.4522 O.co2     1 GTP        -0.8859
      8 O2B        -3.8869    5.0298   -1.2931 O.co2     1 GTP        -0.8859
      9 O3A        -2.4032    4.8441    0.7361 O.3       1 GTP        -0.7486
     10 PA         -3.0798    3.8627    1.8536 P.3       1 GTP         1.5001
     11 O1A        -3.7618    4.7157    2.9012 O.co2     1 GTP        -0.8487
     12 O2A        -3.8250    2.7565    1.1390 O.co2     1 GTP        -0.8487
     13 O5'        -1.7336    3.1724    2.4750 O.3       1 GTP        -0.5474
     14 C5'        -0.8811    2.4285    1.6206 C.3       1 GTP         0.2547
     15 C4'        -0.1994    1.3333    2.4288 C.3       1 GTP         0.0926
     16 O4'        -1.1285    0.2356    2.5840 O.3       1 GTP        -0.3593
     17 C3'         1.0324    0.7610    1.7344 C.3       1 GTP         0.0907
     18 O3'         1.9175    0.2377    2.7247 O.3       1 GTP        -0.5209
     19 C2'         0.4468   -0.3802    0.9263 C.3       1 GTP         0.0305
     20 O2'         1.3993   -1.3703    0.5961 O.3       1 GTP        -0.5978
     21 C1'        -0.6159   -0.9100    1.8769 C.3       1 GTP         0.2339
     22 N9         -1.7127   -1.6108    1.2130 N.pl3     1 GTP        -0.1765
     23 C8         -2.8692   -1.0463    0.7355 C.ar      1 GTP         0.4947
     24 N7         -3.6707   -1.9381    0.1856 N.2       1 GTP        -0.5802
     25 C5         -3.0027   -3.1275    0.3134 C.ar      1 GTP         0.2279
     26 C6         -3.4659   -4.4142   -0.1355 C.ar      1 GTP         0.6513
     27 O6         -4.5328   -4.6133   -0.6980 O.2       1 GTP        -0.5111
     28 N1         -2.5102   -5.4606    0.1612 N.pl3     1 GTP        -0.4713
     29 C2         -1.2711   -5.2547    0.8113 C.ar      1 GTP         0.5256
     30 N2         -0.4228   -6.3256    1.0482 N.pl3     1 GTP        -0.8665
     31 N3         -0.9033   -3.9563    1.2146 N.pl3     1 GTP        -0.5398
     32 C4         -1.7979   -2.9400    0.9438 C.ar      1 GTP        -0.0275
     33 HOG3       -3.2803    8.7775   -1.2887 H         1 GTP         0.4161
     34 H5'        -1.4800    1.9927    0.8146 H         1 GTP         0.0348
     35 H5''       -0.1367    3.1040    1.1872 H         1 GTP         0.0348
     36 H4'         0.0403    1.7078    3.4343 H         1 GTP         0.1215
     37 H3'         1.5907    1.4859    1.1353 H         1 GTP         0.0576
     38 HO3'        2.6839   -0.1150    2.2479 H         1 GTP         0.3842
     39 H2'        -0.0017    0.0018    0.0005 H         1 GTP         0.0252
     40 HO2'        0.9369   -2.0558    0.0825 H         1 GTP         0.4224
     41 H1'        -0.1998   -1.6319    2.6178 H         1 GTP         0.0745
     42 H8         -3.0691    0.0134    0.8177 H         1 GTP         0.1522
     43 HN1        -2.7468   -6.4119   -0.1177 H         1 GTP         0.3518
     44 HN21        0.4233   -6.1297    1.5018 H         1 GTP         0.4761
     45 HN22       -0.7261   -7.2071    0.7466 H         1 GTP         0.4761
     46 H46        -0.0124   -3.8015    1.6821 H         1 GTP         0.5030
@<TRIPOS>BOND
     1    1    2 2
     2    1    3 1
     3    1    4 1
     4    1    5 1
     5    4   33 1
     6    5    6 1
     7    6    7 2
     8    6    8 1
     9    6    9 1
    10    9   10 1
    11   10   11 2
    12   10   12 1
    13   10   13 1
    14   13   14 1
    15   14   15 1
    16   14   34 1
    17   14   35 1
    18   15   16 1
    19   15   17 1
    20   15   36 1
    21   16   21 1
    22   17   18 1
    23   17   19 1
    24   17   37 1
    25   18   38 1
    26   19   20 1
    27   19   21 1
    28   19   39 1
    29   20   40 1
    30   21   22 1
    31   21   41 1
    32   22   23 ar
    33   22   32 ar
    34   23   24 ar
    35   23   42 1
    36   24   25 ar
    37   25   26 ar
    38   25   32 ar
    39   26   27 2
    40   26   28 ar
    41   28   29 ar
    42   28   43 1
    43   29   30 1
    44   29   31 ar
    45   30   44 1
    46   30   45 1
    47   31   32 ar
    48   31   46 1
@<TRIPOS>SUBSTRUCTURE
     1 GTP         1 GROUP 0 A     ****
@<TRIPOS>MOLECULE
[[[5-(2-amino-6-oxo-1,3-dihydropurin-2-ylium-9-yl)-3,4-dihydroxy-tetrahydrofuran-2-yl]methoxy-oxido-phosphoryl]oxy-oxido-phosphoryl] hydrogen phosphate
   46    48     1     0     0
SMALL
USER_CHARGES

@<TRIPOS>ATOM
      1 PG         -0.4687    6.2290   -1.2606 P.3       1 GTP         1.5400
      2 O1G         0.2262    5.3069   -0.2838 O.co2     1 GTP        -0.8909
      3 O2G        -0.6513    5.8323   -2.7087 O.co2     1 GTP        -0.8909
      4 O3G         0.2663    7.6862   -1.2111 O.3       1 GTP        -0.7980
      5 O3B        -1.9166    6.6621   -0.6442 O.3       1 GTP        -0.7612
      6 PB         -3.2454    5.7571   -0.3601 P.3       1 GTP         1.5847
      7 O1B        -4.2720    6.6123    0.3485 O.co2     1 GTP        -0.8859
      8 O2B        -3.5897    4.9800   -1.6111 O.co2     1 GTP        -0.8859
      9 O3A        -2.6104    4.6829    0.6924 O.3       1 GTP        -0.7486
     10 PA         -3.3161    3.4234    1.4576 P.3       1 GTP         1.5001
     11 O1A        -4.3794    3.9564    2.3932 O.co2     1 GTP        -0.8487
     12 O2A        -3.6374    2.3544    0.4359 O.co2     1 GTP        -0.8487
     13 O5'        -2.0401    2.8620    2.3128 O.3       1 GTP        -0.5474
     14 C5'        -0.8811    2.4285    1.6206 C.3       1 GTP         0.2547
     15 C4'        -0.1994    1.3333    2.4288 C.3       1 GTP         0.0926
     16 O4'        -1.1285    0.2356    2.5840 O.3       1 GTP        -0.3593
     17 C3'         1.0324    0.7610    1.7344 C.3       1 GTP         0.0907
     18 O3'         1.9175    0.2377    2.7247 O.3       1 GTP        -0.5209
     19 C2'         0.4468   -0.3802    0.9263 C.3       1 GTP         0.0305
     20 O2'         1.3993   -1.3703    0.5961 O.3       1 GTP        -0.5978
     21 C1'        -0.6159   -0.9100    1.8769 C.3       1 GTP         0.2339
     22 N9         -1.7127   -1.6108    1.2130 N.pl3     1 GTP        -0.1765
     23 C8         -1.6092   -2.7449    0.4467 C.ar      1 GTP         0.4947
     24 N7         -2.7778   -3.1416   -0.0191 N.2       1 GTP        -0.5802
     25 C5         -3.6725   -2.2253    0.4675 C.ar      1 GTP         0.2279
     26 C6         -5.0932   -2.2202    0.2371 C.ar      1 GTP         0.6513
     27 O6         -5.6933   -3.0474   -0.4337 O.2       1 GTP        -0.5111
     28 N1         -5.7390   -1.1061    0.8992 N.pl3     1 GTP        -0.4713
     29 C2         -5.0661   -0.1368    1.6789 C.ar      1 GTP         0.5256
     30 N2         -5.7774    0.8934    2.2749 N.pl3     1 GTP        -0.8665
     31 N3         -3.6705   -0.2251    1.8481 N.pl3     1 GTP        -0.5398
     32 C4         -3.0303   -1.2785    1.2262 C.ar      1 GTP        -0.0275
     33 HOG3       -0.0716    8.3996   -1.7933 H         1 GTP         0.4161
     34 H5'        -1.1767    2.0502    0.6368 H         1 GTP         0.0348
     35 H5''       -0.2080    3.2814    1.4876 H         1 GTP         0.0348
     36 H4'         0.0403    1.7078    3.4343 H         1 GTP         0.1215
     37 H3'         1.5907    1.4859    1.1353 H         1 GTP         0.0576
     38 HO3'        2.6839   -0.1150    2.2479 H         1 GTP         0.3842
     39 H2'        -0.0017    0.0018    0.0005 H         1 GTP         0.0252
     40 HO2'        2.0953   -0.9375    0.0709 H         1 GTP         0.4224
     41 H1'        -0.1998   -1.6319    2.6178 H         1 GTP         0.0745
     42 H8         -0.6610   -3.2324    0.2653 H         1 GTP         0.1522
     43 HN1        -6.7487   -1.0139    0.7961 H         1 GTP         0.3518
     44 HN21       -6.7460    0.9076    2.1270 H         1 GTP         0.4761
     45 HN22       -5.2643    1.5384    2.8048 H         1 GTP         0.4761
     46 H46        -3.1807    0.4690    2.4089 H         1 GTP         0.5030
@<TRIPOS>BOND
     1    1    2 2
     2    1    3 1
     3    1    4 1
     4    1    5 1
     5    4   33 1
     6    5    6 1
     7    6    7 2
     8    6    8 1
     9    6    9 1
    10    9   10 1
    11   10   11 2
    12   10   12 1
    13   10   13 1
    14   13   14 1
    15   14   15 1
    16   14   34 1
    17   14   35 1
    18   15   16 1
    19   15   17 1
    20   15   36 1
    21   16   21 1
    22   17   18 1
    23   17   19 1
    24   17   37 1
    25   18   38 1
    26   19   20 1
    27   19   21 1
    28   19   39 1
    29   20   40 1
    30   21   22 1
    31   21   41 1
    32   22   23 ar
    33   22   32 ar
    34   23   24 ar
    35   23   42 1
    36   24   25 ar
    37   25   26 ar
    38   25   32 ar
    39   26   27 2
    40   26   28 ar
    41   28   29 ar
    42   28   43 1
    43   29   30 1
    44   29   31 ar
    45   30   44 1
    46   30   45 1
    47   31   32 ar
    48   31   46 1
@<TRIPOS>SUBSTRUCTURE
     1 GTP         1 GROUP 0 A     ****
@<TRIPOS>MOLECULE
[[[5-(2-amino-6-oxo-1,3-dihydropurin-2-ylium-9-yl)-3,4-dihydroxy-tetrahydrofuran-2-yl]methoxy-oxido-phosphoryl]oxy-oxido-phosphoryl] hydrogen phosphate
   46    48     1     0     0
SMALL
USER_CHARGES

@<TRIPOS>ATOM
      1 PG         -4.6638    5.0101    3.0142 P.3       1 GTP         1.5400
      2 O1G        -5.7896    4.9037    2.0099 O.co2     1 GTP        -0.8909
      3 O2G        -3.7684    3.8266    3.3063 O.co2     1 GTP        -0.8909
      4 O3G        -5.2773    5.5567    4.4251 O.3       1 GTP        -0.7980
      5 O3B        -3.7335    6.2963    2.6350 O.3       1 GTP        -0.7612
      6 PB         -2.7700    6.5451    1.3406 P.3       1 GTP         1.5847
      7 O1B        -3.5862    6.3453    0.0831 O.co2     1 GTP        -0.8859
      8 O2B        -1.9562    7.8000    1.5654 O.co2     1 GTP        -0.8859
      9 O3A        -1.7457    5.2883    1.5313 O.3       1 GTP        -0.7486
     10 PA         -0.4665    4.8322    0.6228 P.3       1 GTP         1.5001
     11 O1A        -0.9631    4.4288   -0.7487 O.co2     1 GTP        -0.8487
     12 O2A         0.6338    5.8580    0.7859 O.co2     1 GTP        -0.8487
     13 O5'         0.0178    3.5131    1.4595 O.3       1 GTP        -0.5474
     14 C5'        -0.8811    2.4285    1.6206 C.3       1 GTP         0.2547
     15 C4'        -0.1994    1.3333    2.4288 C.3       1 GTP         0.0926
     16 O4'        -1.1285    0.2356    2.5840 O.3       1 GTP        -0.3593
     17 C3'         1.0324    0.7610    1.7344 C.3       1 GTP         0.0907
     18 O3'         1.9175    0.2377    2.7247 O.3       1 GTP        -0.5209
     19 C2'         0.4468   -0.3802    0.9263 C.3       1 GTP         0.0305
     20 O2'         1.3993   -1.3703    0.5961 O.3       1 GTP        -0.5978
     21 C1'        -0.6159   -0.9100    1.8769 C.3       1 GTP         0.2339
     22 N9         -1.7127   -1.6108    1.2130 N.pl3     1 GTP        -0.1765
     23 C8         -1.7789   -2.9564    0.9503 C.ar      1 GTP         0.4947
     24 N7         -2.8980   -3.2916    0.3377 N.2       1 GTP        -0.5802
     25 C5         -3.5824   -2.1127    0.2000 C.ar      1 GTP         0.2279
     26 C6         -4.8740   -1.9471   -0.4133 C.ar      1 GTP         0.6513
     27 O6         -5.5366   -2.8529   -0.8978 O.2       1 GTP        -0.5111
     28 N1         -5.3036   -0.5645   -0.3916 N.pl3     1 GTP        -0.4713
     29 C2         -4.5545    0.4997    0.1619 C.ar      1 GTP         0.5256
     30 N2         -5.0561    1.7921    0.1348 N.pl3     1 GTP        -0.8665
     31 N3         -3.2977    0.2393    0.7420 N.pl3     1 GTP        -0.5398
     32 C4         -2.8643   -1.0716    0.7336 C.ar      1 GTP        -0.0275
     33 HOG3       -4.6669    5.6802    5.1830 H         1 GTP         0.4161
     34 H5'        -1.7771    2.7849    2.1387 H         1 GTP         0.0348
     35 H5''       -1.1654    2.0541    0.6320 H         1 GTP         0.0348
     36 H4'         0.0403    1.7078    3.4343 H         1 GTP         0.1215
     37 H3'         1.5907    1.4859    1.1353 H         1 GTP         0.0576
     38 HO3'        2.6839   -0.1150    2.2479 H         1 GTP         0.3842
     39 H2'        -0.0017    0.0018    0.0005 H         1 GTP         0.0252
     40 HO2'        2.0953   -0.9375    0.0709 H         1 GTP         0.4224
     41 H1'        -0.1998   -1.6319    2.6178 H         1 GTP         0.0745
     42 H8         -0.9852   -3.6367    1.2276 H         1 GTP         0.1522
     43 HN1        -6.2089   -0.3428   -0.8039 H         1 GTP         0.3518
     44 HN21       -5.9354    1.9184   -0.2788 H         1 GTP         0.4761
     45 HN22       -4.4982    2.4931    0.5316 H         1 GTP         0.4761
     46 H46        -2.7541    1.0010    1.1428 H         1 GTP         0.5030
@<TRIPOS>BOND
     1    1    2 2
     2    1    3 1
     3    1    4 1
     4    1    5 1
     5    4   33 1
     6    5    6 1
     7    6    7 2
     8    6    8 1
     9    6    9 1
    10    9   10 1
    11   10   11 2
    12   10   12 1
    13   10   13 1
    14   13   14 1
    15   14   15 1
    16   14   34 1
    17   14   35 1
    18   15   16 1
    19   15   17 1
    20   15   36 1
    21   16   21 1
    22   17   18 1
    23   17   19 1
    24   17   37 1
    25   18   38 1
    26   19   20 1
    27   19   21 1
    28   19   39 1
    29   20   40 1
    30   21   22 1
    31   21   41 1
    32   22   23 ar
    33   22   32 ar
    34   23   24 ar
    35   23   42 1
    36   24   25 ar
    37   25   26 ar
    38   25   32 ar
    39   26   27 2
    40   26   28 ar
    41   28   29 ar
    42   28   43 1
    43   29   30 1
    44   29   31 ar
    45   30   44 1
    46   30   45 1
    47   31   32 ar
    48   31   46 1
@<TRIPOS>SUBSTRUCTURE
     1 GTP         1 GROUP 0 A     ****
@<TRIPOS>MOLECULE
[[[5-(2-amino-6-oxo-1,3-dihydropurin-2-ylium-9-yl)-3,4-dihydroxy-tetrahydrofuran-2-yl]methoxy-oxido-phosphoryl]oxy-oxido-phosphoryl] hydrogen phosphate
   46    48     1     0     0
SMALL
USER_CHARGES

@<TRIPOS>ATOM
      1 PG         -3.7054    5.4481   -3.3489 P.3       1 GTP         1.5400
      2 O1G        -2.9266    6.7143   -3.6275 O.co2     1 GTP        -0.8909
      3 O2G        -3.6853    4.2926   -4.3247 O.co2     1 GTP        -0.8909
      4 O3G        -5.2601    5.8499   -3.0531 O.3       1 GTP        -0.7980
      5 O3B        -3.3072    4.8950   -1.8659 O.3       1 GTP        -0.7612
      6 PB         -3.3194    5.6630   -0.4251 P.3       1 GTP         1.5847
      7 O1B        -2.2797    6.7610   -0.4521 O.co2     1 GTP        -0.8859
      8 O2B        -4.7518    5.9385   -0.0252 O.co2     1 GTP        -0.8859
      9 O3A        -2.7994    4.4428    0.5264 O.3       1 GTP        -0.7486
     10 PA         -2.5400    4.4095    2.1393 P.3       1 GTP         1.5001
     11 O1A        -1.4132    5.3638    2.4707 O.co2     1 GTP        -0.8487
     12 O2A        -3.8748    4.4994    2.8464 O.co2     1 GTP        -0.8487
     13 O5'        -2.0401    2.8620    2.3128 O.3       1 GTP        -0.5474
     14 C5'        -0.8811    2.4285    1.6206 C.3       1 GTP         0.2547
     15 C4'        -0.1994    1.3333    2.4288 C.3       1 GTP         0.0926
     16 O4'        -1.1285    0.2356    2.5840 O.3       1 GTP        -0.3593
     17 C3'         1.0324    0.7610    1.7344 C.3       1 GTP         0.0907
     18 O3'         1.9175    0.2377    2.7247 O.3       1 GTP        -0.5209
     19 C2'         0.4468   -0.3802    0.9263 C.3       1 GTP         0.0305
     20 O2'         1.3993   -1.3703    0.5961 O.3       1 GTP        -0.5978
     21 C1'        -0.6159   -0.9100    1.8769 C.3       1 GTP         0.2339
     22 N9         -1.7127   -1.6108    1.2130 N.pl3     1 GTP        -0.1765
     23 C8         -2.5534   -1.0907    0.2607 C.ar      1 GTP         0.4947
     24 N7         -3.4469   -1.9695   -0.1508 N.2       1 GTP        -0.5802
     25 C5         -3.1705   -3.1041    0.5657 C.ar      1 GTP         0.2279
     26 C6         -3.8738   -4.3568    0.4777 C.ar      1 GTP         0.6513
     27 O6         -4.8240   -4.5720   -0.2607 O.2       1 GTP        -0.5111
     28 N1         -3.3198   -5.3462    1.3780 N.pl3     1 GTP        -0.4713
     29 C2         -2.2226   -5.1203    2.2413 C.ar      1 GTP         0.5256
     30 N2         -1.7649   -6.1367    3.0659 N.pl3     1 GTP        -0.8665
     31 N3         -1.5969   -3.8585    2.2574 N.pl3     1 GTP        -0.5398
     32 C4         -2.1068   -2.8965    1.4082 C.ar      1 GTP        -0.0275
     33 HOG3       -5.8979    5.1319   -2.8533 H         1 GTP         0.4161
     34 H5'        -1.1767    2.0502    0.6368 H         1 GTP         0.0348
     35 H5''       -0.2080    3.2814    1.4876 H         1 GTP         0.0348
     36 H4'         0.0403    1.7078    3.4343 H         1 GTP         0.1215
     37 H3'         1.5907    1.4859    1.1353 H         1 GTP         0.0576
     38 HO3'        2.6839   -0.1150    2.2479 H         1 GTP         0.3842
     39 H2'        -0.0017    0.0018    0.0005 H         1 GTP         0.0252
     40 HO2'        0.9369   -2.0558    0.0825 H         1 GTP         0.4224
     41 H1'        -0.1998   -1.6319    2.6178 H         1 GTP         0.0745
     42 H8         -2.4657   -0.0713   -0.0897 H         1 GTP         0.1522
     43 HN1        -3.7505   -6.2699    1.3904 H         1 GTP         0.3518
     44 HN21       -1.0023   -5.9289    3.6451 H         1 GTP         0.4761
     45 HN22       -2.2347   -6.9951    3.0150 H         1 GTP         0.4761
     46 H46        -0.8062   -3.6900    2.8760 H         1 GTP         0.5030
@<TRIPOS>BOND
     1    1    2 2
     2    1    3 1
     3    1    4 1
     4    1    5 1
     5    4   33 1
     6    5    6 1
     7    6    7 2
     8    6    8 1
     9    6    9 1
    10    9   10 1
    11   10   11 2
    12   10   12 1
    13   10   13 1
    14   13   14 1
    15   14   15 1
    16   14   34 1
    17   14   35 1
    18   15   16 1
    19   15   17 1
    20   15   36 1
    21   16   21 1
    22   17   18 1
    23   17   19 1
    24   17   37 1
    25   18   38 1
    26   19   20 1
    27   19   21 1
    28   19   39 1
    29   20   40 1
    30   21   22 1
    31   21   41 1
    32   22   23 ar
    33   22   32 ar
    34   23   24 ar
    35   23   42 1
    36   24   25 ar
    37   25   26 ar
    38   25   32 ar
    39   26   27 2
    40   26   28 ar
    41   28   29 ar
    42   28   43 1
    43   29   30 1
    44   29   31 ar
    45   30   44 1
    46   30   45 1
    47   31   32 ar
    48   31   46 1
@<TRIPOS>SUBSTRUCTURE
     1 GTP         1 GROUP 0 A     ****
@<TRIPOS>MOLECULE
[[[5-(2-amino-6-oxo-1,3-dihydropurin-2-ylium-9-yl)-3,4-dihydroxy-tetrahydrofuran-2-yl]methoxy-oxido-phosphoryl]oxy-oxido-phosphoryl] hydrogen phosphate
   46    48     1     0     0
SMALL
USER_CHARGES

@<TRIPOS>ATOM
      1 PG         -3.7254    6.3170   -2.5383 P.3       1 GTP         1.5400
      2 O1G        -2.7193    7.4372   -2.3962 O.co2     1 GTP        -0.8909
      3 O2G        -3.9191    5.6093   -3.8609 O.co2     1 GTP        -0.8909
      4 O3G        -5.1775    6.8553   -2.0209 O.3       1 GTP        -0.7980
      5 O3B        -3.4477    5.2032   -1.3781 O.3       1 GTP        -0.7612
      6 PB         -4.3123    3.8795   -0.9705 P.3       1 GTP         1.5847
      7 O1B        -5.6509    4.3239   -0.4245 O.co2     1 GTP        -0.8859
      8 O2B        -4.2100    2.8614   -2.0843 O.co2     1 GTP        -0.8859
      9 O3A        -3.3820    3.3250    0.2509 O.3       1 GTP        -0.7486
     10 PA         -2.9646    4.0418    1.6587 P.3       1 GTP         1.5001
     11 O1A        -2.1198    5.2596    1.3528 O.co2     1 GTP        -0.8487
     12 O2A        -4.1947    4.1429    2.5341 O.co2     1 GTP        -0.8487
     13 O5'        -2.0401    2.8620    2.3128 O.3       1 GTP        -0.5474
     14 C5'        -0.8811    2.4285    1.6206 C.3       1 GTP         0.2547
     15 C4'        -0.1994    1.3333    2.4288 C.3       1 GTP         0.0926
     16 O4'        -1.1285    0.2356    2.5840 O.3       1 GTP        -0.3593
     17 C3'         1.0324    0.7610    1.7344 C.3       1 GTP         0.0907
     18 O3'         1.9175    0.2377    2.7247 O.3       1 GTP        -0.5209
     19 C2'         0.4468   -0.3802    0.9263 C.3       1 GTP         0.0305
     20 O2'         1.3993   -1.3703    0.5961 O.3       1 GTP        -0.5978
     21 C1'        -0.6159   -0.9100    1.8769 C.3       1 GTP         0.2339
     22 N9         -1.7127   -1.6108    1.2130 N.pl3     1 GTP        -0.1765
     23 C8         -3.0389   -1.2578    1.2391 C.ar      1 GTP         0.4947
     24 N7         -3.7909   -2.0880    0.5425 N.2       1 GTP        -0.5802
     25 C5         -2.9127   -3.0150    0.0458 C.ar      1 GTP         0.2279
     26 C6         -3.2467   -4.1411   -0.7860 C.ar      1 GTP         0.6513
     27 O6         -4.3761   -4.4189   -1.1621 O.2       1 GTP        -0.5111
     28 N1         -2.0748   -4.9191   -1.1296 N.pl3     1 GTP        -0.4713
     29 C2         -0.7595   -4.6181   -0.7058 C.ar      1 GTP         0.5256
     30 N2          0.2985   -5.4268   -1.0920 N.pl3     1 GTP        -0.8665
     31 N3         -0.5304   -3.4919    0.1084 N.pl3     1 GTP        -0.5398
     32 C4         -1.6318   -2.7332    0.4512 C.ar      1 GTP        -0.0275
     33 HOG3       -5.9410    6.2401   -2.0500 H         1 GTP         0.4161
     34 H5'        -1.1767    2.0502    0.6368 H         1 GTP         0.0348
     35 H5''       -0.2080    3.2814    1.4876 H         1 GTP         0.0348
     36 H4'         0.0403    1.7078    3.4343 H         1 GTP         0.1215
     37 H3'         1.5907    1.4859    1.1353 H         1 GTP         0.0576
     38 HO3'        2.6839   -0.1150    2.2479 H         1 GTP         0.3842
     39 H2'        -0.0017    0.0018    0.0005 H         1 GTP         0.0252
     40 HO2'        2.0953   -0.9375    0.0709 H         1 GTP         0.4224
     41 H1'        -0.1998   -1.6319    2.6178 H         1 GTP         0.0745
     42 H8         -3.3933   -0.3909    1.7800 H         1 GTP         0.1522
     43 HN1        -2.2071   -5.7408   -1.7178 H         1 GTP         0.3518
     44 HN21        1.1896   -5.1751   -0.7715 H         1 GTP         0.4761
     45 HN22        0.0846   -6.1966   -1.6593 H         1 GTP         0.4761
     46 H46         0.4142   -3.2695    0.4160 H         1 GTP         0.5030
@<TRIPOS>BOND
     1    1    2 2
     2    1    3 1
     3    1    4 1
     4    1    5 1
     5    4   33 1
     6    5    6 1
     7    6    7 2
     8    6    8 1
     9    6    9 1
    10    9   10 1
    11   10   11 2
    12   10   12 1
    13   10   13 1
    14   13   14 1
    15   14   15 1
    16   14   34 1
    17   14   35 1
    18   15   16 1
    19   15   17 1
    20   15   36 1
    21   16   21 1
    22   17   18 1
    23   17   19 1
    24   17   37 1
    25   18   38 1
    26   19   20 1
    27   19   21 1
    28   19   39 1
    29   20   40 1
    30   21   22 1
    31   21   41 1
    32   22   23 ar
    33   22   32 ar
    34   23   24 ar
    35   23   42 1
    36   24   25 ar
    37   25   26 ar
    38   25   32 ar
    39   26   27 2
    40   26   28 ar
    41   28   29 ar
    42   28   43 1
    43   29   30 1
    44   29   31 ar
    45   30   44 1
    46   30   45 1
    47   31   32 ar
    48   31   46 1
@<TRIPOS>SUBSTRUCTURE
     1 GTP         1 GROUP 0 A     ****
@<TRIPOS>MOLECULE
[[[5-(2-amino-6-oxo-1,3-dihydropurin-2-ylium-9-yl)-3,4-dihydroxy-tetrahydrofuran-2-yl]methoxy-oxido-phosphoryl]oxy-oxido-phosphoryl] hydrogen phosphate
   46    48     1     0     0
SMALL
USER_CHARGES

@<TRIPOS>ATOM
      1 PG         -0.1895    2.4675   -3.5843 P.3       1 GTP         1.5400
      2 O1G         0.7838    3.2007   -4.4801 O.co2     1 GTP        -0.8909
      3 O2G         0.2913    1.7245   -2.3577 O.co2     1 GTP        -0.8909
      4 O3G        -1.0664    1.4404   -4.5019 O.3       1 GTP        -0.7980
      5 O3B        -1.3844    3.4903   -3.1485 O.3       1 GTP        -0.7612
      6 PB         -1.3288    4.8235   -2.2077 P.3       1 GTP         1.5847
      7 O1B        -0.2754    5.7602   -2.7559 O.co2     1 GTP        -0.8859
      8 O2B        -2.7401    5.2929   -1.9334 O.co2     1 GTP        -0.8859
      9 O3A        -0.7889    4.1455   -0.8244 O.3       1 GTP        -0.7486
     10 PA         -0.4665    4.8322    0.6228 P.3       1 GTP         1.5001
     11 O1A         0.6860    5.7988    0.4566 O.co2     1 GTP        -0.8487
     12 O2A        -1.7709    5.2708    1.2521 O.co2     1 GTP        -0.8487
     13 O5'         0.0178    3.5131    1.4595 O.3       1 GTP        -0.5474
     14 C5'        -0.8811    2.4285    1.6206 C.3       1 GTP         0.2547
     15 C4'        -0.1994    1.3333    2.4288 C.3       1 GTP         0.0926
     16 O4'        -1.1285    0.2356    2.5840 O.3       1 GTP        -0.3593
     17 C3'         1.0324    0.7610    1.7344 C.3       1 GTP         0.0907
     18 O3'         1.9175    0.2377    2.7247 O.3       1 GTP        -0.5209
     19 C2'         0.4468   -0.3802    0.9263 C.3       1 GTP         0.0305
     20 O2'         1.3993   -1.3703    0.5961 O.3       1 GTP        -0.5978
     21 C1'        -0.6159   -0.9100    1.8769 C.3       1 GTP         0.2339
     22 N9         -1.7127   -1.6108    1.2130 N.pl3     1 GTP        -0.1765
     23 C8         -1.6092   -2.7449    0.4467 C.ar      1 GTP         0.4947
     24 N7         -2.7778   -3.1416   -0.0191 N.2       1 GTP        -0.5802
     25 C5         -3.6725   -2.2253    0.4675 C.ar      1 GTP         0.2279
     26 C6         -5.0932   -2.2202    0.2371 C.ar      1 GTP         0.6513
     27 O6         -5.6933   -3.0474   -0.4337 O.2       1 GTP        -0.5111
     28 N1         -5.7390   -1.1061    0.8992 N.pl3     1 GTP        -0.4713
     29 C2         -5.0661   -0.1368    1.6789 C.ar      1 GTP         0.5256
     30 N2         -5.7774    0.8934    2.2749 N.pl3     1 GTP        -0.8665
     31 N3         -3.6705   -0.2251    1.8481 N.pl3     1 GTP        -0.5398
     32 C4         -3.0303   -1.2785    1.2262 C.ar      1 GTP        -0.0275
     33 HOG3       -1.7474    0.8874   -4.0630 H         1 GTP         0.4161
     34 H5'        -1.7771    2.7849    2.1387 H         1 GTP         0.0348
     35 H5''       -1.1654    2.0541    0.6320 H         1 GTP         0.0348
     36 H4'         0.0403    1.7078    3.4343 H         1 GTP         0.1215
     37 H3'         1.5907    1.4859    1.1353 H         1 GTP         0.0576
     38 HO3'        2.6839   -0.1150    2.2479 H         1 GTP         0.3842
     39 H2'        -0.0017    0.0018    0.0005 H         1 GTP         0.0252
     40 HO2'        2.0953   -0.9375    0.0709 H         1 GTP         0.4224
     41 H1'        -0.1998   -1.6319    2.6178 H         1 GTP         0.0745
     42 H8         -0.6610   -3.2324    0.2653 H         1 GTP         0.1522
     43 HN1        -6.7487   -1.0139    0.7961 H         1 GTP         0.3518
     44 HN21       -5.2644    1.5388    2.8044 H         1 GTP         0.4761
     45 HN22       -6.7459    0.9078    2.1265 H         1 GTP         0.4761
     46 H46        -3.1807    0.4690    2.4089 H         1 GTP         0.5030
@<TRIPOS>BOND
     1    1    2 2
     2    1    3 1
     3    1    4 1
     4    1    5 1
     5    4   33 1
     6    5    6 1
     7    6    7 2
     8    6    8 1
     9    6    9 1
    10    9   10 1
    11   10   11 2
    12   10   12 1
    13   10   13 1
    14   13   14 1
    15   14   15 1
    16   14   34 1
    17   14   35 1
    18   15   16 1
    19   15   17 1
    20   15   36 1
    21   16   21 1
    22   17   18 1
    23   17   19 1
    24   17   37 1
    25   18   38 1
    26   19   20 1
    27   19   21 1
    28   19   39 1
    29   20   40 1
    30   21   22 1
    31   21   41 1
    32   22   23 ar
    33   22   32 ar
    34   23   24 ar
    35   23   42 1
    36   24   25 ar
    37   25   26 ar
    38   25   32 ar
    39   26   27 2
    40   26   28 ar
    41   28   29 ar
    42   28   43 1
    43   29   30 1
    44   29   31 ar
    45   30   44 1
    46   30   45 1
    47   31   32 ar
    48   31   46 1
@<TRIPOS>SUBSTRUCTURE
     1 GTP         1 GROUP 0 A     ****
@<TRIPOS>MOLECULE
[[[5-(2-amino-6-oxo-1,3-dihydropurin-2-ylium-9-yl)-3,4-dihydroxy-tetrahydrofuran-2-yl]methoxy-oxido-phosphoryl]oxy-oxido-phosphoryl] hydrogen phosphate
   46    48     1     0     0
SMALL
USER_CHARGES

@<TRIPOS>ATOM
      1 PG         -4.6308    7.5479    2.1084 P.3       1 GTP         1.5400
      2 O1G        -5.2977    7.3640    0.7634 O.co2     1 GTP        -0.8909
      3 O2G        -5.4330    7.4829    3.3890 O.co2     1 GTP        -0.8909
      4 O3G        -3.8003    8.9535    2.0877 O.3       1 GTP        -0.7980
      5 O3B        -3.3698    6.5180    2.2213 O.3       1 GTP        -0.7612
      6 PB         -2.2216    6.3929    3.3753 P.3       1 GTP         1.5847
      7 O1B        -1.3794    7.6490    3.3596 O.co2     1 GTP        -0.8859
      8 O2B        -2.8564    5.8812    4.6492 O.co2     1 GTP        -0.8859
      9 O3A        -1.3614    5.1517    2.7554 O.3       1 GTP        -0.7486
     10 PA         -0.5790    5.0299    1.3261 P.3       1 GTP         1.5001
     11 O1A        -1.5962    5.0956    0.2075 O.co2     1 GTP        -0.8487
     12 O2A         0.6189    5.9541    1.3494 O.co2     1 GTP        -0.8487
     13 O5'         0.0178    3.5131    1.4595 O.3       1 GTP        -0.5474
     14 C5'        -0.8811    2.4285    1.6206 C.3       1 GTP         0.2547
     15 C4'        -0.1994    1.3333    2.4288 C.3       1 GTP         0.0926
     16 O4'        -1.1285    0.2356    2.5840 O.3       1 GTP        -0.3593
     17 C3'         1.0324    0.7610    1.7344 C.3       1 GTP         0.0907
     18 O3'         1.9175    0.2377    2.7247 O.3       1 GTP        -0.5209
     19 C2'         0.4468   -0.3802    0.9263 C.3       1 GTP         0.0305
     20 O2'         1.3993   -1.3703    0.5961 O.3       1 GTP        -0.5978
     21 C1'        -0.6159   -0.9100    1.8769 C.3       1 GTP         0.2339
     22 N9         -1.7127   -1.6108    1.2130 N.pl3     1 GTP        -0.1765
     23 C8         -2.8692   -1.0463    0.7355 C.ar      1 GTP         0.4947
     24 N7         -3.6707   -1.9381    0.1856 N.2       1 GTP        -0.5802
     25 C5         -3.0027   -3.1275    0.3134 C.ar      1 GTP         0.2279
     26 C6         -3.4659   -4.4142   -0.1355 C.ar      1 GTP         0.6513
     27 O6         -4.5328   -4.6133   -0.6980 O.2       1 GTP        -0.5111
     28 N1         -2.5102   -5.4606    0.1612 N.pl3     1 GTP        -0.4713
     29 C2         -1.2711   -5.2547    0.8113 C.ar      1 GTP         0.5256
     30 N2         -0.4228   -6.3256    1.0482 N.pl3     1 GTP        -0.8665
     31 N3         -0.9033   -3.9563    1.2146 N.pl3     1 GTP        -0.5398
     32 C4         -1.7979   -2.9400    0.9438 C.ar      1 GTP        -0.0275
     33 HOG3       -3.3087    9.2173    2.8946 H         1 GTP         0.4161
     34 H5'        -1.7771    2.7849    2.1387 H         1 GTP         0.0348
     35 H5''       -1.1654    2.0541    0.6320 H         1 GTP         0.0348
     36 H4'         0.0403    1.7078    3.4343 H         1 GTP         0.1215
     37 H3'         1.5907    1.4859    1.1353 H         1 GTP         0.0576
     38 HO3'        2.6839   -0.1150    2.2479 H         1 GTP         0.3842
     39 H2'        -0.0017    0.0018    0.0005 H         1 GTP         0.0252
     40 HO2'        0.9369   -2.0558    0.0825 H         1 GTP         0.4224
     41 H1'        -0.1998   -1.6319    2.6178 H         1 GTP         0.0745
     42 H8         -3.0691    0.0134    0.8177 H         1 GTP         0.1522
     43 HN1        -2.7468   -6.4119   -0.1177 H         1 GTP         0.3518
     44 HN21        0.4233   -6.1297    1.5018 H         1 GTP         0.4761
     45 HN22       -0.7261   -7.2071    0.7466 H         1 GTP         0.4761
     46 H46        -0.0124   -3.8015    1.6821 H         1 GTP         0.5030
@<TRIPOS>BOND
     1    1    2 2
     2    1    3 1
     3    1    4 1
     4    1    5 1
     5    4   33 1
     6    5    6 1
     7    6    7 2
     8    6    8 1
     9    6    9 1
    10    9   10 1
    11   10   11 2
    12   10   12 1
    13   10   13 1
    14   13   14 1
    15   14   15 1
    16   14   34 1
    17   14   35 1
    18   15   16 1
    19   15   17 1
    20   15   36 1
    21   16   21 1
    22   17   18 1
    23   17   19 1
    24   17   37 1
    25   18   38 1
    26   19   20 1
    27   19   21 1
    28   19   39 1
    29   20   40 1
    30   21   22 1
    31   21   41 1
    32   22   23 ar
    33   22   32 ar
    34   23   24 ar
    35   23   42 1
    36   24   25 ar
    37   25   26 ar
    38   25   32 ar
    39   26   27 2
    40   26   28 ar
    41   28   29 ar
    42   28   43 1
    43   29   30 1
    44   29   31 ar
    45   30   44 1
    46   30   45 1
    47   31   32 ar
    48   31   46 1
@<TRIPOS>SUBSTRUCTURE
     1 GTP         1 GROUP 0 A     ****
@<TRIPOS>MOLECULE
[[[5-(2-amino-6-oxo-1,3-dihydropurin-2-ylium-9-yl)-3,4-dihydroxy-tetrahydrofuran-2-yl]methoxy-oxido-phosphoryl]oxy-oxido-phosphoryl] hydrogen phosphate
   46    48     1     0     0
SMALL
USER_CHARGES

@<TRIPOS>ATOM
      1 PG         -1.2185    4.6612    7.6780 P.3       1 GTP         1.5400
      2 O1G        -2.5735    5.3075    7.8610 O.co2     1 GTP        -0.8909
      3 O2G        -0.8701    3.3718    8.3878 O.co2     1 GTP        -0.8909
      4 O3G        -0.0662    5.7673    8.0170 O.3       1 GTP        -0.7980
      5 O3B        -0.9265    4.4821    6.0822 O.3       1 GTP        -0.7612
      6 PB         -0.9772    5.5850    4.8794 P.3       1 GTP         1.5847
      7 O1B        -2.4052    6.0541    4.7117 O.co2     1 GTP        -0.8859
      8 O2B         0.1618    6.5637    5.0593 O.co2     1 GTP        -0.8859
      9 O3A        -0.5682    4.6235    3.6252 O.3       1 GTP        -0.7486
     10 PA         -0.3962    4.9846    2.0409 P.3       1 GTP         1.5001
     11 O1A        -1.7409    5.4059    1.4892 O.co2     1 GTP        -0.8487
     12 O2A         0.8270    5.8595    1.8736 O.co2     1 GTP        -0.8487
     13 O5'         0.0178    3.5131    1.4595 O.3       1 GTP        -0.5474
     14 C5'        -0.8811    2.4285    1.6206 C.3       1 GTP         0.2547
     15 C4'        -0.1994    1.3333    2.4288 C.3       1 GTP         0.0926
     16 O4'        -1.1285    0.2356    2.5840 O.3       1 GTP        -0.3593
     17 C3'         1.0324    0.7610    1.7344 C.3       1 GTP         0.0907
     18 O3'         1.9175    0.2377    2.7247 O.3       1 GTP        -0.5209
     19 C2'         0.4468   -0.3802    0.9263 C.3       1 GTP         0.0305
     20 O2'         1.3993   -1.3703    0.5961 O.3       1 GTP        -0.5978
     21 C1'        -0.6159   -0.9100    1.8769 C.3       1 GTP         0.2339
     22 N9         -1.7127   -1.6108    1.2130 N.pl3     1 GTP        -0.1765
     23 C8         -2.8692   -1.0463    0.7355 C.ar      1 GTP         0.4947
     24 N7         -3.6707   -1.9381    0.1856 N.2       1 GTP        -0.5802
     25 C5         -3.0027   -3.1275    0.3134 C.ar      1 GTP         0.2279
     26 C6         -3.4659   -4.4142   -0.1355 C.ar      1 GTP         0.6513
     27 O6         -4.5328   -4.6133   -0.6980 O.2       1 GTP        -0.5111
     28 N1         -2.5102   -5.4606    0.1612 N.pl3     1 GTP        -0.4713
     29 C2         -1.2711   -5.2547    0.8113 C.ar      1 GTP         0.5256
     30 N2         -0.4228   -6.3256    1.0482 N.pl3     1 GTP        -0.8665
     31 N3         -0.9033   -3.9563    1.2146 N.pl3     1 GTP        -0.5398
     32 C4         -1.7979   -2.9400    0.9438 C.ar      1 GTP        -0.0275
     33 HOG3        0.8745    5.4990    7.9439 H         1 GTP         0.4161
     34 H5'        -1.7771    2.7849    2.1387 H         1 GTP         0.0348
     35 H5''       -1.1654    2.0541    0.6320 H         1 GTP         0.0348
     36 H4'         0.0403    1.7078    3.4343 H         1 GTP         0.1215
     37 H3'         1.5907    1.4859    1.1353 H         1 GTP         0.0576
     38 HO3'        2.6839   -0.1150    2.2479 H         1 GTP         0.3842
     39 H2'        -0.0017    0.0018    0.0005 H         1 GTP         0.0252
     40 HO2'        0.9369   -2.0558    0.0825 H         1 GTP         0.4224
     41 H1'        -0.1998   -1.6319    2.6178 H         1 GTP         0.0745
     42 H8         -3.0691    0.0134    0.8177 H         1 GTP         0.1522
     43 HN1        -2.7468   -6.4119   -0.1177 H         1 GTP         0.3518
     44 HN21        0.4233   -6.1297    1.5018 H         1 GTP         0.4761
     45 HN22       -0.7261   -7.2071    0.7466 H         1 GTP         0.4761
     46 H46        -0.0124   -3.8015    1.6821 H         1 GTP         0.5030
@<TRIPOS>BOND
     1    1    2 2
     2    1    3 1
     3    1    4 1
     4    1    5 1
     5    4   33 1
     6    5    6 1
     7    6    7 2
     8    6    8 1
     9    6    9 1
    10    9   10 1
    11   10   11 2
    12   10   12 1
    13   10   13 1
    14   13   14 1
    15   14   15 1
    16   14   34 1
    17   14   35 1
    18   15   16 1
    19   15   17 1
    20   15   36 1
    21   16   21 1
    22   17   18 1
    23   17   19 1
    24   17   37 1
    25   18   38 1
    26   19   20 1
    27   19   21 1
    28   19   39 1
    29   20   40 1
    30   21   22 1
    31   21   41 1
    32   22   23 ar
    33   22   32 ar
    34   23   24 ar
    35   23   42 1
    36   24   25 ar
    37   25   26 ar
    38   25   32 ar
    39   26   27 2
    40   26   28 ar
    41   28   29 ar
    42   28   43 1
    43   29   30 1
    44   29   31 ar
    45   30   44 1
    46   30   45 1
    47   31   32 ar
    48   31   46 1
@<TRIPOS>SUBSTRUCTURE
     1 GTP         1 GROUP 0 A     ****
@<TRIPOS>MOLECULE
[[[5-(2-amino-6-oxo-1,3-dihydropurin-2-ylium-9-yl)-3,4-dihydroxy-tetrahydrofuran-2-yl]methoxy-oxido-phosphoryl]oxy-oxido-phosphoryl] hydrogen phosphate
   46    48     1     0     0
SMALL
USER_CHARGES

@<TRIPOS>ATOM
      1 PG         -2.0597    4.2371   -2.6677 P.3       1 GTP         1.5400
      2 O1G        -1.0959    5.1351   -1.9246 O.co2     1 GTP        -0.8909
      3 O2G        -1.6673    2.8292   -3.0571 O.co2     1 GTP        -0.8909
      4 O3G        -2.5729    5.0209   -4.0049 O.3       1 GTP        -0.7980
      5 O3B        -3.4734    4.1862   -1.8538 O.3       1 GTP        -0.7612
      6 PB         -3.8148    3.5508   -0.3891 P.3       1 GTP         1.5847
      7 O1B        -5.2453    3.8908   -0.0346 O.co2     1 GTP        -0.8859
      8 O2B        -3.3028    2.1287   -0.3369 O.co2     1 GTP        -0.8859
      9 O3A        -2.7994    4.4428    0.5264 O.3       1 GTP        -0.7486
     10 PA         -2.5400    4.4095    2.1393 P.3       1 GTP         1.5001
     11 O1A        -1.4132    5.3638    2.4707 O.co2     1 GTP        -0.8487
     12 O2A        -3.8748    4.4994    2.8464 O.co2     1 GTP        -0.8487
     13 O5'        -2.0401    2.8620    2.3128 O.3       1 GTP        -0.5474
     14 C5'        -0.8811    2.4285    1.6206 C.3       1 GTP         0.2547
     15 C4'        -0.1994    1.3333    2.4288 C.3       1 GTP         0.0926
     16 O4'        -1.1285    0.2356    2.5840 O.3       1 GTP        -0.3593
     17 C3'         1.0324    0.7610    1.7344 C.3       1 GTP         0.0907
     18 O3'         1.9175    0.2377    2.7247 O.3       1 GTP        -0.5209
     19 C2'         0.4468   -0.3802    0.9263 C.3       1 GTP         0.0305
     20 O2'         1.3993   -1.3703    0.5961 O.3       1 GTP        -0.5978
     21 C1'        -0.6159   -0.9100    1.8769 C.3       1 GTP         0.2339
     22 N9         -1.7127   -1.6108    1.2130 N.pl3     1 GTP        -0.1765
     23 C8         -1.6092   -2.7449    0.4467 C.ar      1 GTP         0.4947
     24 N7         -2.7778   -3.1416   -0.0191 N.2       1 GTP        -0.5802
     25 C5         -3.6725   -2.2253    0.4675 C.ar      1 GTP         0.2279
     26 C6         -5.0932   -2.2202    0.2371 C.ar      1 GTP         0.6513
     27 O6         -5.6933   -3.0474   -0.4337 O.2       1 GTP        -0.5111
     28 N1         -5.7390   -1.1061    0.8992 N.pl3     1 GTP        -0.4713
     29 C2         -5.0661   -0.1368    1.6789 C.ar      1 GTP         0.5256
     30 N2         -5.7774    0.8934    2.2749 N.pl3     1 GTP        -0.8665
     31 N3         -3.6705   -0.2251    1.8481 N.pl3     1 GTP        -0.5398
     32 C4         -3.0303   -1.2785    1.2262 C.ar      1 GTP        -0.0275
     33 HOG3       -3.2086    4.5660   -4.5976 H         1 GTP         0.4161
     34 H5'        -1.1767    2.0502    0.6368 H         1 GTP         0.0348
     35 H5''       -0.2080    3.2814    1.4876 H         1 GTP         0.0348
     36 H4'         0.0403    1.7078    3.4343 H         1 GTP         0.1215
     37 H3'         1.5907    1.4859    1.1353 H         1 GTP         0.0576
     38 HO3'        2.6839   -0.1150    2.2479 H         1 GTP         0.3842
     39 H2'        -0.0017    0.0018    0.0005 H         1 GTP         0.0252
     40 HO2'        2.0953   -0.9375    0.0709 H         1 GTP         0.4224
     41 H1'        -0.1998   -1.6319    2.6178 H         1 GTP         0.0745
     42 H8         -0.6610   -3.2324    0.2653 H         1 GTP         0.1522
     43 HN1        -6.7487   -1.0139    0.7961 H         1 GTP         0.3518
     44 HN21       -5.2644    1.5388    2.8044 H         1 GTP         0.4761
     45 HN22       -6.7459    0.9078    2.1265 H         1 GTP         0.4761
     46 H46        -3.1807    0.4690    2.4089 H         1 GTP         0.5030
@<TRIPOS>BOND
     1    1    2 2
     2    1    3 1
     3    1    4 1
     4    1    5 1
     5    4   33 1
     6    5    6 1
     7    6    7 2
     8    6    8 1
     9    6    9 1
    10    9   10 1
    11   10   11 2
    12   10   12 1
    13   10   13 1
    14   13   14 1
    15   14   15 1
    16   14   34 1
    17   14   35 1
    18   15   16 1
    19   15   17 1
    20   15   36 1
    21   16   21 1
    22   17   18 1
    23   17   19 1
    24   17   37 1
    25   18   38 1
    26   19   20 1
    27   19   21 1
    28   19   39 1
    29   20   40 1
    30   21   22 1
    31   21   41 1
    32   22   23 ar
    33   22   32 ar
    34   23   24 ar
    35   23   42 1
    36   24   25 ar
    37   25   26 ar
    38   25   32 ar
    39   26   27 2
    40   26   28 ar
    41   28   29 ar
    42   28   43 1
    43   29   30 1
    44   29   31 ar
    45   30   44 1
    46   30   45 1
    47   31   32 ar
    48   31   46 1
@<TRIPOS>SUBSTRUCTURE
     1 GTP         1 GROUP 0 A     ****
@<TRIPOS>MOLECULE
[[[5-(2-amino-6-oxo-1,3-dihydropurin-2-ylium-9-yl)-3,4-dihydroxy-tetrahydrofuran-2-yl]methoxy-oxido-phosphoryl]oxy-oxido-phosphoryl] hydrogen phosphate
   46    48     1     0     0
SMALL
USER_CHARGES

@<TRIPOS>ATOM
      1 PG         -4.4799    6.9557   -1.0365 P.3       1 GTP         1.5400
      2 O1G        -4.0528    8.3977   -1.1965 O.co2     1 GTP        -0.8909
      3 O2G        -4.8171    6.1066   -2.2420 O.co2     1 GTP        -0.8909
      4 O3G        -5.7361    6.8993    0.0050 O.3       1 GTP        -0.7980
      5 O3B        -3.3726    6.1711   -0.1300 O.3       1 GTP        -0.7612
      6 PB         -2.7700    6.5451    1.3406 P.3       1 GTP         1.5847
      7 O1B        -1.9788    7.8291    1.2282 O.co2     1 GTP        -0.8859
      8 O2B        -3.8576    6.3734    2.3776 O.co2     1 GTP        -0.8859
      9 O3A        -1.7457    5.2883    1.5313 O.3       1 GTP        -0.7486
     10 PA         -0.4665    4.8322    0.6228 P.3       1 GTP         1.5001
     11 O1A        -0.9631    4.4288   -0.7487 O.co2     1 GTP        -0.8487
     12 O2A         0.6338    5.8580    0.7859 O.co2     1 GTP        -0.8487
     13 O5'         0.0178    3.5131    1.4595 O.3       1 GTP        -0.5474
     14 C5'        -0.8811    2.4285    1.6206 C.3       1 GTP         0.2547
     15 C4'        -0.1994    1.3333    2.4288 C.3       1 GTP         0.0926
     16 O4'        -1.1285    0.2356    2.5840 O.3       1 GTP        -0.3593
     17 C3'         1.0324    0.7610    1.7344 C.3       1 GTP         0.0907
     18 O3'         1.9175    0.2377    2.7247 O.3       1 GTP        -0.5209
     19 C2'         0.4468   -0.3802    0.9263 C.3       1 GTP         0.0305
     20 O2'         1.3993   -1.3703    0.5961 O.3       1 GTP        -0.5978
     21 C1'        -0.6159   -0.9100    1.8769 C.3       1 GTP         0.2339
     22 N9         -1.7127   -1.6108    1.2130 N.pl3     1 GTP        -0.1765
     23 C8         -2.5534   -1.0907    0.2607 C.ar      1 GTP         0.4947
     24 N7         -3.4469   -1.9695   -0.1508 N.2       1 GTP        -0.5802
     25 C5         -3.1705   -3.1041    0.5657 C.ar      1 GTP         0.2279
     26 C6         -3.8738   -4.3568    0.4777 C.ar      1 GTP         0.6513
     27 O6         -4.8240   -4.5720   -0.2607 O.2       1 GTP        -0.5111
     28 N1         -3.3198   -5.3462    1.3780 N.pl3     1 GTP        -0.4713
     29 C2         -2.2226   -5.1203    2.2413 C.ar      1 GTP         0.5256
     30 N2         -1.7649   -6.1367    3.0659 N.pl3     1 GTP        -0.8665
     31 N3         -1.5969   -3.8585    2.2574 N.pl3     1 GTP        -0.5398
     32 C4         -2.1068   -2.8965    1.4082 C.ar      1 GTP        -0.0275
     33 HOG3       -6.1299    6.0257    0.2147 H         1 GTP         0.4161
     34 H5'        -1.7771    2.7849    2.1387 H         1 GTP         0.0348
     35 H5''       -1.1654    2.0541    0.6320 H         1 GTP         0.0348
     36 H4'         0.0403    1.7078    3.4343 H         1 GTP         0.1215
     37 H3'         1.5907    1.4859    1.1353 H         1 GTP         0.0576
     38 HO3'        2.6839   -0.1150    2.2479 H         1 GTP         0.3842
     39 H2'        -0.0017    0.0018    0.0005 H         1 GTP         0.0252
     40 HO2'        2.0953   -0.9375    0.0709 H         1 GTP         0.4224
     41 H1'        -0.1998   -1.6319    2.6178 H         1 GTP         0.0745
     42 H8         -2.4657   -0.0713   -0.0897 H         1 GTP         0.1522
     43 HN1        -3.7505   -6.2699    1.3904 H         1 GTP         0.3518
     44 HN21       -1.0023   -5.9289    3.6451 H         1 GTP         0.4761
     45 HN22       -2.2347   -6.9951    3.0150 H         1 GTP         0.4761
     46 H46        -0.8062   -3.6900    2.8760 H         1 GTP         0.5030
@<TRIPOS>BOND
     1    1    2 2
     2    1    3 1
     3    1    4 1
     4    1    5 1
     5    4   33 1
     6    5    6 1
     7    6    7 2
     8    6    8 1
     9    6    9 1
    10    9   10 1
    11   10   11 2
    12   10   12 1
    13   10   13 1
    14   13   14 1
    15   14   15 1
    16   14   34 1
    17   14   35 1
    18   15   16 1
    19   15   17 1
    20   15   36 1
    21   16   21 1
    22   17   18 1
    23   17   19 1
    24   17   37 1
    25   18   38 1
    26   19   20 1
    27   19   21 1
    28   19   39 1
    29   20   40 1
    30   21   22 1
    31   21   41 1
    32   22   23 ar
    33   22   32 ar
    34   23   24 ar
    35   23   42 1
    36   24   25 ar
    37   25   26 ar
    38   25   32 ar
    39   26   27 2
    40   26   28 ar
    41   28   29 ar
    42   28   43 1
    43   29   30 1
    44   29   31 ar
    45   30   44 1
    46   30   45 1
    47   31   32 ar
    48   31   46 1
@<TRIPOS>SUBSTRUCTURE
     1 GTP         1 GROUP 0 A     ****
@<TRIPOS>MOLECULE
[[[5-(2-amino-6-oxo-1,3-dihydropurin-2-ylium-9-yl)-3,4-dihydroxy-tetrahydrofuran-2-yl]methoxy-oxido-phosphoryl]oxy-oxido-phosphoryl] hydrogen phosphate
   46    48     1     0     0
SMALL
USER_CHARGES

@<TRIPOS>ATOM
      1 PG         -6.1189    2.7508    1.8005 P.3       1 GTP         1.5400
      2 O1G        -7.2076    2.2015    0.9059 O.co2     1 GTP        -0.8909
      3 O2G        -4.9956    1.8649    2.2916 O.co2     1 GTP        -0.8909
      4 O3G        -6.8191    3.4638    3.0918 O.3       1 GTP        -0.7980
      5 O3B        -5.4779    4.0797    1.1026 O.3       1 GTP        -0.7612
      6 PB         -4.5985    4.2215   -0.2657 P.3       1 GTP         1.5847
      7 O1B        -5.3674    3.5885   -1.4040 O.co2     1 GTP        -0.8859
      8 O2B        -4.0596    5.6314   -0.3618 O.co2     1 GTP        -0.8859
      9 O3A        -3.3350    3.2688    0.1351 O.3       1 GTP        -0.7486
     10 PA         -1.9976    2.8867   -0.7222 P.3       1 GTP         1.5001
     11 O1A        -2.4126    2.0977   -1.9452 O.co2     1 GTP        -0.8487
     12 O2A        -1.1315    4.1214   -0.8447 O.co2     1 GTP        -0.8487
     13 O5'        -1.2434    1.9104    0.3515 O.3       1 GTP        -0.5474
     14 C5'        -0.8811    2.4285    1.6206 C.3       1 GTP         0.2547
     15 C4'        -0.1994    1.3333    2.4288 C.3       1 GTP         0.0926
     16 O4'        -1.1285    0.2356    2.5840 O.3       1 GTP        -0.3593
     17 C3'         1.0324    0.7610    1.7344 C.3       1 GTP         0.0907
     18 O3'         1.9175    0.2377    2.7247 O.3       1 GTP        -0.5209
     19 C2'         0.4468   -0.3802    0.9263 C.3       1 GTP         0.0305
     20 O2'         1.3993   -1.3703    0.5961 O.3       1 GTP        -0.5978
     21 C1'        -0.6159   -0.9100    1.8769 C.3       1 GTP         0.2339
     22 N9         -1.7127   -1.6108    1.2130 N.pl3     1 GTP        -0.1765
     23 C8         -2.8692   -1.0463    0.7355 C.ar      1 GTP         0.4947
     24 N7         -3.6707   -1.9381    0.1856 N.2       1 GTP        -0.5802
     25 C5         -3.0027   -3.1275    0.3134 C.ar      1 GTP         0.2279
     26 C6         -3.4659   -4.4142   -0.1355 C.ar      1 GTP         0.6513
     27 O6         -4.5328   -4.6133   -0.6980 O.2       1 GTP        -0.5111
     28 N1         -2.5102   -5.4606    0.1612 N.pl3     1 GTP        -0.4713
     29 C2         -1.2711   -5.2547    0.8113 C.ar      1 GTP         0.5256
     30 N2         -0.4228   -6.3256    1.0482 N.pl3     1 GTP        -0.8665
     31 N3         -0.9033   -3.9563    1.2146 N.pl3     1 GTP        -0.5398
     32 C4         -1.7979   -2.9400    0.9438 C.ar      1 GTP        -0.0275
     33 HOG3       -6.2404    3.8719    3.7706 H         1 GTP         0.4161
     34 H5'        -0.2033    3.2760    1.4769 H         1 GTP         0.0348
     35 H5''       -1.7841    2.7762    2.1323 H         1 GTP         0.0348
     36 H4'         0.0403    1.7078    3.4343 H         1 GTP         0.1215
     37 H3'         1.5907    1.4859    1.1353 H         1 GTP         0.0576
     38 HO3'        2.1521    0.9800    3.3017 H         1 GTP         0.3842
     39 H2'        -0.0017    0.0018    0.0005 H         1 GTP         0.0252
     40 HO2'        0.9369   -2.0558    0.0825 H         1 GTP         0.4224
     41 H1'        -0.1998   -1.6319    2.6178 H         1 GTP         0.0745
     42 H8         -3.0691    0.0134    0.8177 H         1 GTP         0.1522
     43 HN1        -2.7468   -6.4119   -0.1177 H         1 GTP         0.3518
     44 HN21        0.4233   -6.1297    1.5018 H         1 GTP         0.4761
     45 HN22       -0.7261   -7.2071    0.7466 H         1 GTP         0.4761
     46 H46        -0.0124   -3.8015    1.6821 H         1 GTP         0.5030
@<TRIPOS>BOND
     1    1    2 2
     2    1    3 1
     3    1    4 1
     4    1    5 1
     5    4   33 1
     6    5    6 1
     7    6    7 2
     8    6    8 1
     9    6    9 1
    10    9   10 1
    11   10   11 2
    12   10   12 1
    13   10   13 1
    14   13   14 1
    15   14   15 1
    16   14   34 1
    17   14   35 1
    18   15   16 1
    19   15   17 1
    20   15   36 1
    21   16   21 1
    22   17   18 1
    23   17   19 1
    24   17   37 1
    25   18   38 1
    26   19   20 1
    27   19   21 1
    28   19   39 1
    29   20   40 1
    30   21   22 1
    31   21   41 1
    32   22   23 ar
    33   22   32 ar
    34   23   24 ar
    35   23   42 1
    36   24   25 ar
    37   25   26 ar
    38   25   32 ar
    39   26   27 2
    40   26   28 ar
    41   28   29 ar
    42   28   43 1
    43   29   30 1
    44   29   31 ar
    45   30   44 1
    46   30   45 1
    47   31   32 ar
    48   31   46 1
@<TRIPOS>SUBSTRUCTURE
     1 GTP         1 GROUP 0 A     ****
@<TRIPOS>MOLECULE
[[[5-(2-amino-6-oxo-1,3-dihydropurin-2-ylium-9-yl)-3,4-dihydroxy-tetrahydrofuran-2-yl]methoxy-oxido-phosphoryl]oxy-oxido-phosphoryl] hydrogen phosphate
   46    48     1     0     0
SMALL
USER_CHARGES

@<TRIPOS>ATOM
      1 PG         -5.4089    4.9636   -2.7617 P.3       1 GTP         1.5400
      2 O1G        -6.8181    5.3268   -2.3496 O.co2     1 GTP        -0.8909
      3 O2G        -4.5742    5.9106   -3.5949 O.co2     1 GTP        -0.8909
      4 O3G        -5.4445    3.5112   -3.5070 O.3       1 GTP        -0.7980
      5 O3B        -4.5601    4.5387   -1.4340 O.3       1 GTP        -0.7612
      6 PB         -4.0881    5.4443   -0.1602 P.3       1 GTP         1.5847
      7 O1B        -3.0933    6.4769   -0.6415 O.co2     1 GTP        -0.8859
      8 O2B        -5.3068    5.8345    0.6462 O.co2     1 GTP        -0.8859
      9 O3A        -3.3097    4.2976    0.7023 O.3       1 GTP        -0.7486
     10 PA         -2.5400    4.4095    2.1393 P.3       1 GTP         1.5001
     11 O1A        -1.3489    5.3298    1.9829 O.co2     1 GTP        -0.8487
     12 O2A        -3.5699    4.6402    3.2237 O.co2     1 GTP        -0.8487
     13 O5'        -2.0401    2.8620    2.3128 O.3       1 GTP        -0.5474
     14 C5'        -0.8811    2.4285    1.6206 C.3       1 GTP         0.2547
     15 C4'        -0.1994    1.3333    2.4288 C.3       1 GTP         0.0926
     16 O4'        -1.1285    0.2356    2.5840 O.3       1 GTP        -0.3593
     17 C3'         1.0324    0.7610    1.7344 C.3       1 GTP         0.0907
     18 O3'         1.9175    0.2377    2.7247 O.3       1 GTP        -0.5209
     19 C2'         0.4468   -0.3802    0.9263 C.3       1 GTP         0.0305
     20 O2'         1.3993   -1.3703    0.5961 O.3       1 GTP        -0.5978
     21 C1'        -0.6159   -0.9100    1.8769 C.3       1 GTP         0.2339
     22 N9         -1.7127   -1.6108    1.2130 N.pl3     1 GTP        -0.1765
     23 C8         -1.7789   -2.9564    0.9503 C.ar      1 GTP         0.4947
     24 N7         -2.8980   -3.2916    0.3377 N.2       1 GTP        -0.5802
     25 C5         -3.5824   -2.1127    0.2000 C.ar      1 GTP         0.2279
     26 C6         -4.8740   -1.9471   -0.4133 C.ar      1 GTP         0.6513
     27 O6         -5.5366   -2.8529   -0.8978 O.2       1 GTP        -0.5111
     28 N1         -5.3036   -0.5645   -0.3916 N.pl3     1 GTP        -0.4713
     29 C2         -4.5545    0.4997    0.1619 C.ar      1 GTP         0.5256
     30 N2         -5.0561    1.7921    0.1348 N.pl3     1 GTP        -0.8665
     31 N3         -3.2977    0.2393    0.7420 N.pl3     1 GTP        -0.5398
     32 C4         -2.8643   -1.0716    0.7336 C.ar      1 GTP        -0.0275
     33 HOG3       -4.6007    3.1345   -3.8360 H         1 GTP         0.4161
     34 H5'        -1.1767    2.0502    0.6368 H         1 GTP         0.0348
     35 H5''       -0.2080    3.2814    1.4876 H         1 GTP         0.0348
     36 H4'         0.0403    1.7078    3.4343 H         1 GTP         0.1215
     37 H3'         1.5907    1.4859    1.1353 H         1 GTP         0.0576
     38 HO3'        2.6839   -0.1150    2.2479 H         1 GTP         0.3842
     39 H2'        -0.0017    0.0018    0.0005 H         1 GTP         0.0252
     40 HO2'        0.9369   -2.0558    0.0825 H         1 GTP         0.4224
     41 H1'        -0.1998   -1.6319    2.6178 H         1 GTP         0.0745
     42 H8         -0.9852   -3.6367    1.2276 H         1 GTP         0.1522
     43 HN1        -6.2089   -0.3428   -0.8039 H         1 GTP         0.3518
     44 HN21       -5.9354    1.9184   -0.2788 H         1 GTP         0.4761
     45 HN22       -4.4982    2.4931    0.5316 H         1 GTP         0.4761
     46 H46        -2.7541    1.0010    1.1428 H         1 GTP         0.5030
@<TRIPOS>BOND
     1    1    2 2
     2    1    3 1
     3    1    4 1
     4    1    5 1
     5    4   33 1
     6    5    6 1
     7    6    7 2
     8    6    8 1
     9    6    9 1
    10    9   10 1
    11   10   11 2
    12   10   12 1
    13   10   13 1
    14   13   14 1
    15   14   15 1
    16   14   34 1
    17   14   35 1
    18   15   16 1
    19   15   17 1
    20   15   36 1
    21   16   21 1
    22   17   18 1
    23   17   19 1
    24   17   37 1
    25   18   38 1
    26   19   20 1
    27   19   21 1
    28   19   39 1
    29   20   40 1
    30   21   22 1
    31   21   41 1
    32   22   23 ar
    33   22   32 ar
    34   23   24 ar
    35   23   42 1
    36   24   25 ar
    37   25   26 ar
    38   25   32 ar
    39   26   27 2
    40   26   28 ar
    41   28   29 ar
    42   28   43 1
    43   29   30 1
    44   29   31 ar
    45   30   44 1
    46   30   45 1
    47   31   32 ar
    48   31   46 1
@<TRIPOS>SUBSTRUCTURE
     1 GTP         1 GROUP 0 A     ****
@<TRIPOS>MOLECULE
[[[5-(2-amino-6-oxo-1,3-dihydropurin-2-ylium-9-yl)-3,4-dihydroxy-tetrahydrofuran-2-yl]methoxy-oxido-phosphoryl]oxy-oxido-phosphoryl] hydrogen phosphate
   46    48     1     0     0
SMALL
USER_CHARGES

@<TRIPOS>ATOM
      1 PG         -2.2681    2.1420   -2.9667 P.3       1 GTP         1.5400
      2 O1G        -1.9531    0.6909   -2.6794 O.co2     1 GTP        -0.8909
      3 O2G        -3.2677    2.9020   -2.1237 O.co2     1 GTP        -0.8909
      4 O3G        -2.7029    2.2776   -4.5347 O.3       1 GTP        -0.7980
      5 O3B        -0.8731    2.9872   -3.0237 O.3       1 GTP        -0.7612
      6 PB          0.1949    3.3242   -1.8356 P.3       1 GTP         1.5847
      7 O1B         0.6205    2.0274   -1.1840 O.co2     1 GTP        -0.8859
      8 O2B         1.2086    4.3210   -2.3518 O.co2     1 GTP        -0.8859
      9 O3A        -0.7889    4.1455   -0.8244 O.3       1 GTP        -0.7486
     10 PA         -0.4665    4.8322    0.6228 P.3       1 GTP         1.5001
     11 O1A         0.6860    5.7988    0.4566 O.co2     1 GTP        -0.8487
     12 O2A        -1.7709    5.2708    1.2521 O.co2     1 GTP        -0.8487
     13 O5'         0.0178    3.5131    1.4595 O.3       1 GTP        -0.5474
     14 C5'        -0.8811    2.4285    1.6206 C.3       1 GTP         0.2547
     15 C4'        -0.1994    1.3333    2.4288 C.3       1 GTP         0.0926
     16 O4'        -1.1285    0.2356    2.5840 O.3       1 GTP        -0.3593
     17 C3'         1.0324    0.7610    1.7344 C.3       1 GTP         0.0907
     18 O3'         1.9175    0.2377    2.7247 O.3       1 GTP        -0.5209
     19 C2'         0.4468   -0.3802    0.9263 C.3       1 GTP         0.0305
     20 O2'         1.3993   -1.3703    0.5961 O.3       1 GTP        -0.5978
     21 C1'        -0.6159   -0.9100    1.8769 C.3       1 GTP         0.2339
     22 N9         -1.7127   -1.6108    1.2130 N.pl3     1 GTP        -0.1765
     23 C8         -2.8692   -1.0463    0.7355 C.ar      1 GTP         0.4947
     24 N7         -3.6707   -1.9381    0.1856 N.2       1 GTP        -0.5802
     25 C5         -3.0027   -3.1275    0.3134 C.ar      1 GTP         0.2279
     26 C6         -3.4659   -4.4142   -0.1355 C.ar      1 GTP         0.6513
     27 O6         -4.5328   -4.6133   -0.6980 O.2       1 GTP        -0.5111
     28 N1         -2.5102   -5.4606    0.1612 N.pl3     1 GTP        -0.4713
     29 C2         -1.2711   -5.2547    0.8113 C.ar      1 GTP         0.5256
     30 N2         -0.4228   -6.3256    1.0482 N.pl3     1 GTP        -0.8665
     31 N3         -0.9033   -3.9563    1.2146 N.pl3     1 GTP        -0.5398
     32 C4         -1.7979   -2.9400    0.9438 C.ar      1 GTP        -0.0275
     33 HOG3       -2.9398    3.1654   -4.8784 H         1 GTP         0.4161
     34 H5'        -1.7771    2.7849    2.1387 H         1 GTP         0.0348
     35 H5''       -1.1654    2.0541    0.6320 H         1 GTP         0.0348
     36 H4'         0.0403    1.7078    3.4343 H         1 GTP         0.1215
     37 H3'         1.5907    1.4859    1.1353 H         1 GTP         0.0576
     38 HO3'        2.6839   -0.1150    2.2479 H         1 GTP         0.3842
     39 H2'        -0.0017    0.0018    0.0005 H         1 GTP         0.0252
     40 HO2'        2.0953   -0.9375    0.0709 H         1 GTP         0.4224
     41 H1'        -0.1998   -1.6319    2.6178 H         1 GTP         0.0745
     42 H8         -3.0691    0.0134    0.8177 H         1 GTP         0.1522
     43 HN1        -2.7468   -6.4119   -0.1177 H         1 GTP         0.3518
     44 HN21        0.4233   -6.1297    1.5018 H         1 GTP         0.4761
     45 HN22       -0.7261   -7.2071    0.7466 H         1 GTP         0.4761
     46 H46        -0.0124   -3.8015    1.6821 H         1 GTP         0.5030
@<TRIPOS>BOND
     1    1    2 2
     2    1    3 1
     3    1    4 1
     4    1    5 1
     5    4   33 1
     6    5    6 1
     7    6    7 2
     8    6    8 1
     9    6    9 1
    10    9   10 1
    11   10   11 2
    12   10   12 1
    13   10   13 1
    14   13   14 1
    15   14   15 1
    16   14   34 1
    17   14   35 1
    18   15   16 1
    19   15   17 1
    20   15   36 1
    21   16   21 1
    22   17   18 1
    23   17   19 1
    24   17   37 1
    25   18   38 1
    26   19   20 1
    27   19   21 1
    28   19   39 1
    29   20   40 1
    30   21   22 1
    31   21   41 1
    32   22   23 ar
    33   22   32 ar
    34   23   24 ar
    35   23   42 1
    36   24   25 ar
    37   25   26 ar
    38   25   32 ar
    39   26   27 2
    40   26   28 ar
    41   28   29 ar
    42   28   43 1
    43   29   30 1
    44   29   31 ar
    45   30   44 1
    46   30   45 1
    47   31   32 ar
    48   31   46 1
@<TRIPOS>SUBSTRUCTURE
     1 GTP         1 GROUP 0 A     ****
@<TRIPOS>MOLECULE
[[[5-(2-amino-6-oxo-1,3-dihydropurin-2-ylium-9-yl)-3,4-dihydroxy-tetrahydrofuran-2-yl]methoxy-oxido-phosphoryl]oxy-oxido-phosphoryl] hydrogen phosphate
   46    48     1     0     0
SMALL
USER_CHARGES

@<TRIPOS>ATOM
      1 PG         -0.7600    5.9768   -1.5904 P.3       1 GTP         1.5400
      2 O1G         0.4874    6.8153   -1.4218 O.co2     1 GTP        -0.8909
      3 O2G        -0.7287    4.4820   -1.3615 O.co2     1 GTP        -0.8909
      4 O3G        -1.3794    6.2611   -3.0741 O.3       1 GTP        -0.7980
      5 O3B        -1.9604    6.6242   -0.6939 O.3       1 GTP        -0.7612
      6 PB         -2.1077    6.7422    0.9279 P.3       1 GTP         1.5847
      7 O1B        -0.8773    7.4287    1.4777 O.co2     1 GTP        -0.8859
      8 O2B        -3.5008    7.2265    1.2627 O.co2     1 GTP        -0.8859
      9 O3A        -2.0640    5.1559    1.3109 O.3       1 GTP        -0.7486
     10 PA         -2.1561    4.4278    2.7707 P.3       1 GTP         1.5001
     11 O1A        -0.9467    4.8245    3.5894 O.co2     1 GTP        -0.8487
     12 O2A        -3.5584    4.6024    3.3116 O.co2     1 GTP        -0.8487
     13 O5'        -2.0401    2.8620    2.3128 O.3       1 GTP        -0.5474
     14 C5'        -0.8811    2.4285    1.6206 C.3       1 GTP         0.2547
     15 C4'        -0.1994    1.3333    2.4288 C.3       1 GTP         0.0926
     16 O4'        -1.1285    0.2356    2.5840 O.3       1 GTP        -0.3593
     17 C3'         1.0324    0.7610    1.7344 C.3       1 GTP         0.0907
     18 O3'         1.9175    0.2377    2.7247 O.3       1 GTP        -0.5209
     19 C2'         0.4468   -0.3802    0.9263 C.3       1 GTP         0.0305
     20 O2'         1.3993   -1.3703    0.5961 O.3       1 GTP        -0.5978
     21 C1'        -0.6159   -0.9100    1.8769 C.3       1 GTP         0.2339
     22 N9         -1.7127   -1.6108    1.2130 N.pl3     1 GTP        -0.1765
     23 C8         -1.6092   -2.7449    0.4467 C.ar      1 GTP         0.4947
     24 N7         -2.7778   -3.1416   -0.0191 N.2       1 GTP        -0.5802
     25 C5         -3.6725   -2.2253    0.4675 C.ar      1 GTP         0.2279
     26 C6         -5.0932   -2.2202    0.2371 C.ar      1 GTP         0.6513
     27 O6         -5.6933   -3.0474   -0.4337 O.2       1 GTP        -0.5111
     28 N1         -5.7390   -1.1061    0.8992 N.pl3     1 GTP        -0.4713
     29 C2         -5.0661   -0.1368    1.6789 C.ar      1 GTP         0.5256
     30 N2         -5.7774    0.8934    2.2749 N.pl3     1 GTP        -0.8665
     31 N3         -3.6705   -0.2251    1.8481 N.pl3     1 GTP        -0.5398
     32 C4         -3.0303   -1.2785    1.2262 C.ar      1 GTP        -0.0275
     33 HOG3       -2.1973    5.7877   -3.3372 H         1 GTP         0.4161
     34 H5'        -1.1767    2.0502    0.6368 H         1 GTP         0.0348
     35 H5''       -0.2080    3.2814    1.4876 H         1 GTP         0.0348
     36 H4'         0.0403    1.7078    3.4343 H         1 GTP         0.1215
     37 H3'         1.5907    1.4859    1.1353 H         1 GTP         0.0576
     38 HO3'        2.6839   -0.1150    2.2479 H         1 GTP         0.3842
     39 H2'        -0.0017    0.0018    0.0005 H         1 GTP         0.0252
     40 HO2'        2.0953   -0.9375    0.0709 H         1 GTP         0.4224
     41 H1'        -0.1998   -1.6319    2.6178 H         1 GTP         0.0745
     42 H8         -0.6610   -3.2324    0.2653 H         1 GTP         0.1522
     43 HN1        -6.7487   -1.0139    0.7961 H         1 GTP         0.3518
     44 HN21       -5.2644    1.5388    2.8044 H         1 GTP         0.4761
     45 HN22       -6.7459    0.9078    2.1265 H         1 GTP         0.4761
     46 H46        -3.1807    0.4690    2.4089 H         1 GTP         0.5030
@<TRIPOS>BOND
     1    1    2 2
     2    1    3 1
     3    1    4 1
     4    1    5 1
     5    4   33 1
     6    5    6 1
     7    6    7 2
     8    6    8 1
     9    6    9 1
    10    9   10 1
    11   10   11 2
    12   10   12 1
    13   10   13 1
    14   13   14 1
    15   14   15 1
    16   14   34 1
    17   14   35 1
    18   15   16 1
    19   15   17 1
    20   15   36 1
    21   16   21 1
    22   17   18 1
    23   17   19 1
    24   17   37 1
    25   18   38 1
    26   19   20 1
    27   19   21 1
    28   19   39 1
    29   20   40 1
    30   21   22 1
    31   21   41 1
    32   22   23 ar
    33   22   32 ar
    34   23   24 ar
    35   23   42 1
    36   24   25 ar
    37   25   26 ar
    38   25   32 ar
    39   26   27 2
    40   26   28 ar
    41   28   29 ar
    42   28   43 1
    43   29   30 1
    44   29   31 ar
    45   30   44 1
    46   30   45 1
    47   31   32 ar
    48   31   46 1
@<TRIPOS>SUBSTRUCTURE
     1 GTP         1 GROUP 0 A     ****
@<TRIPOS>MOLECULE
[[[5-(2-amino-6-oxo-1,3-dihydropurin-2-ylium-9-yl)-3,4-dihydroxy-tetrahydrofuran-2-yl]methoxy-oxido-phosphoryl]oxy-oxido-phosphoryl] hydrogen phosphate
   46    48     1     0     0
SMALL
USER_CHARGES

@<TRIPOS>ATOM
      1 PG          5.8728    3.1871   -4.5672 P.3       1 GTP         1.5400
      2 O1G         4.5779    3.1656   -3.7861 O.co2     1 GTP        -0.8909
      3 O2G         6.3962    4.4721   -5.1693 O.co2     1 GTP        -0.8909
      4 O3G         5.7865    2.0600   -5.7455 O.3       1 GTP        -0.7980
      5 O3B         7.0500    2.5087   -3.6629 O.3       1 GTP        -0.7612
      6 PB          7.7333    3.0291   -2.2744 P.3       1 GTP         1.5847
      7 O1B         8.6802    1.9627   -1.7706 O.co2     1 GTP        -0.8859
      8 O2B         8.1782    4.4638   -2.4509 O.co2     1 GTP        -0.8859
      9 O3A         6.4041    3.0694   -1.3275 O.3       1 GTP        -0.7486
     10 PA          6.2486    3.4952    0.2423 P.3       1 GTP         1.5001
     11 O1A         7.0221    2.5106    1.0923 O.co2     1 GTP        -0.8487
     12 O2A         6.4800    4.9855    0.3652 O.co2     1 GTP        -0.8487
     13 O5'         4.6405    3.2699    0.4378 O.3       1 GTP        -0.5474
     14 C5'         4.0922    1.9801    0.2227 C.3       1 GTP         0.2547
     15 C4'         2.5944    2.0310    0.4653 C.3       1 GTP         0.0926
     16 O4'         1.9327    2.5740   -0.6889 O.3       1 GTP        -0.3593
     17 C3'         1.9685    0.6634    0.6767 C.3       1 GTP         0.0907
     18 O3'         2.1425    0.1975    1.9977 O.3       1 GTP        -0.5209
     19 C2'         0.5176    0.9128    0.3099 C.3       1 GTP         0.0305
     20 O2'        -0.2103    1.4454    1.4152 O.3       1 GTP        -0.5978
     21 C1'         0.6219    1.9765   -0.7844 C.3       1 GTP         0.2339
     22 N9          0.4237    1.4496   -2.1357 N.pl3     1 GTP        -0.1765
     23 C8          1.3988    0.9691   -2.9736 C.ar      1 GTP         0.4947
     24 N7          0.9092    0.5634   -4.1293 N.2       1 GTP        -0.5802
     25 C5         -0.4383    0.7914   -4.0325 C.ar      1 GTP         0.2279
     26 C6         -1.4217    0.5138   -5.0461 C.ar      1 GTP         0.6513
     27 O6         -1.1759    0.0306   -6.1417 O.2       1 GTP        -0.5111
     28 N1         -2.7543    0.8794   -4.6134 N.pl3     1 GTP        -0.4713
     29 C2         -3.0626    1.4402   -3.3523 C.ar      1 GTP         0.5256
     30 N2         -4.3747    1.7544   -3.0321 N.pl3     1 GTP        -0.8665
     31 N3         -2.0304    1.6759   -2.4233 N.pl3     1 GTP        -0.5398
     32 C4         -0.7497    1.3366   -2.8118 C.ar      1 GTP        -0.0275
     33 HOG3        6.5561    1.9501   -6.3438 H         1 GTP         0.4161
     34 H5'         4.3028    1.6728   -0.8066 H         1 GTP         0.0348
     35 H5''        4.5677    1.2738    0.9106 H         1 GTP         0.0348
     36 H4'         2.3752    2.7029    1.3156 H         1 GTP         0.1215
     37 H3'         2.4336   -0.1217   -0.0015 H         1 GTP         0.0576
     38 HO3'        1.7160   -0.6716    2.0397 H         1 GTP         0.3842
     39 H2'         0.0316    0.0155   -0.0339 H         1 GTP         0.0252
     40 HO2'       -0.1608    0.7921    2.1351 H         1 GTP         0.4224
     41 H1'        -0.1474    2.7798   -0.6651 H         1 GTP         0.0745
     42 H8          2.4413    0.9409   -2.6872 H         1 GTP         0.1522
     43 HN1        -3.5236    0.7214   -5.2629 H         1 GTP         0.3518
     44 HN21       -4.5350    2.1409   -2.1461 H         1 GTP         0.4761
     45 HN22       -5.0542    1.5695   -3.7134 H         1 GTP         0.4761
     46 H46        -2.2462    2.0786   -1.5136 H         1 GTP         0.5030
@<TRIPOS>BOND
     1    1    2 2
     2    1    3 1
     3    1    4 1
     4    1    5 1
     5    4   33 1
     6    5    6 1
     7    6    7 2
     8    6    8 1
     9    6    9 1
    10    9   10 1
    11   10   11 2
    12   10   12 1
    13   10   13 1
    14   13   14 1
    15   14   15 1
    16   14   34 1
    17   14   35 1
    18   15   16 1
    19   15   17 1
    20   15   36 1
    21   16   21 1
    22   17   18 1
    23   17   19 1
    24   17   37 1
    25   18   38 1
    26   19   20 1
    27   19   21 1
    28   19   39 1
    29   20   40 1
    30   21   22 1
    31   21   41 1
    32   22   23 ar
    33   22   32 ar
    34   23   24 ar
    35   23   42 1
    36   24   25 ar
    37   25   26 ar
    38   25   32 ar
    39   26   27 2
    40   26   28 ar
    41   28   29 ar
    42   28   43 1
    43   29   30 1
    44   29   31 ar
    45   30   44 1
    46   30   45 1
    47   31   32 ar
    48   31   46 1
@<TRIPOS>SUBSTRUCTURE
     1 GTP         1 GROUP 0 A     ****
@<TRIPOS>MOLECULE
[[[5-(2-amino-6-oxo-1,3-dihydropurin-2-ylium-9-yl)-3,4-dihydroxy-tetrahydrofuran-2-yl]methoxy-oxido-phosphoryl]oxy-oxido-phosphoryl] hydrogen phosphate
   46    48     1     0     0
SMALL
USER_CHARGES

@<TRIPOS>ATOM
      1 PG         -1.9184    7.7971   -1.8280 P.3       1 GTP         1.5400
      2 O1G        -3.2685    8.4766   -1.8837 O.co2     1 GTP        -0.8909
      3 O2G        -0.6497    8.6019   -1.6541 O.co2     1 GTP        -0.8909
      4 O3G        -1.7572    6.8547   -3.1516 O.3       1 GTP        -0.7980
      5 O3B        -1.9604    6.6242   -0.6939 O.3       1 GTP        -0.7612
      6 PB         -2.1077    6.7422    0.9279 P.3       1 GTP         1.5847
      7 O1B        -0.8773    7.4287    1.4777 O.co2     1 GTP        -0.8859
      8 O2B        -3.5008    7.2265    1.2627 O.co2     1 GTP        -0.8859
      9 O3A        -2.0640    5.1559    1.3109 O.3       1 GTP        -0.7486
     10 PA         -2.1561    4.4278    2.7707 P.3       1 GTP         1.5001
     11 O1A        -0.9467    4.8245    3.5894 O.co2     1 GTP        -0.8487
     12 O2A        -3.5584    4.6024    3.3116 O.co2     1 GTP        -0.8487
     13 O5'        -2.0401    2.8620    2.3128 O.3       1 GTP        -0.5474
     14 C5'        -0.8811    2.4285    1.6206 C.3       1 GTP         0.2547
     15 C4'        -0.1994    1.3333    2.4288 C.3       1 GTP         0.0926
     16 O4'        -1.1285    0.2356    2.5840 O.3       1 GTP        -0.3593
     17 C3'         1.0324    0.7610    1.7344 C.3       1 GTP         0.0907
     18 O3'         1.9175    0.2377    2.7247 O.3       1 GTP        -0.5209
     19 C2'         0.4468   -0.3802    0.9263 C.3       1 GTP         0.0305
     20 O2'         1.3993   -1.3703    0.5961 O.3       1 GTP        -0.5978
     21 C1'        -0.6159   -0.9100    1.8769 C.3       1 GTP         0.2339
     22 N9         -1.7127   -1.6108    1.2130 N.pl3     1 GTP        -0.1765
     23 C8         -2.5534   -1.0907    0.2607 C.ar      1 GTP         0.4947
     24 N7         -3.4469   -1.9695   -0.1508 N.2       1 GTP        -0.5802
     25 C5         -3.1705   -3.1041    0.5657 C.ar      1 GTP         0.2279
     26 C6         -3.8738   -4.3568    0.4777 C.ar      1 GTP         0.6513
     27 O6         -4.8240   -4.5720   -0.2607 O.2       1 GTP        -0.5111
     28 N1         -3.3198   -5.3462    1.3780 N.pl3     1 GTP        -0.4713
     29 C2         -2.2226   -5.1203    2.2413 C.ar      1 GTP         0.5256
     30 N2         -1.7649   -6.1367    3.0659 N.pl3     1 GTP        -0.8665
     31 N3         -1.5969   -3.8585    2.2574 N.pl3     1 GTP        -0.5398
     32 C4         -2.1068   -2.8965    1.4082 C.ar      1 GTP        -0.0275
     33 HOG3       -0.9274    6.3432   -3.2624 H         1 GTP         0.4161
     34 H5'        -1.1767    2.0502    0.6368 H         1 GTP         0.0348
     35 H5''       -0.2080    3.2814    1.4876 H         1 GTP         0.0348
     36 H4'         0.0403    1.7078    3.4343 H         1 GTP         0.1215
     37 H3'         1.5907    1.4859    1.1353 H         1 GTP         0.0576
     38 HO3'        2.6839   -0.1150    2.2479 H         1 GTP         0.3842
     39 H2'        -0.0017    0.0018    0.0005 H         1 GTP         0.0252
     40 HO2'        0.9369   -2.0558    0.0825 H         1 GTP         0.4224
     41 H1'        -0.1998   -1.6319    2.6178 H         1 GTP         0.0745
     42 H8         -2.4657   -0.0713   -0.0897 H         1 GTP         0.1522
     43 HN1        -3.7505   -6.2699    1.3904 H         1 GTP         0.3518
     44 HN21       -1.0023   -5.9289    3.6451 H         1 GTP         0.4761
     45 HN22       -2.2347   -6.9951    3.0150 H         1 GTP         0.4761
     46 H46        -0.8062   -3.6900    2.8760 H         1 GTP         0.5030
@<TRIPOS>BOND
     1    1    2 2
     2    1    3 1
     3    1    4 1
     4    1    5 1
     5    4   33 1
     6    5    6 1
     7    6    7 2
     8    6    8 1
     9    6    9 1
    10    9   10 1
    11   10   11 2
    12   10   12 1
    13   10   13 1
    14   13   14 1
    15   14   15 1
    16   14   34 1
    17   14   35 1
    18   15   16 1
    19   15   17 1
    20   15   36 1
    21   16   21 1
    22   17   18 1
    23   17   19 1
    24   17   37 1
    25   18   38 1
    26   19   20 1
    27   19   21 1
    28   19   39 1
    29   20   40 1
    30   21   22 1
    31   21   41 1
    32   22   23 ar
    33   22   32 ar
    34   23   24 ar
    35   23   42 1
    36   24   25 ar
    37   25   26 ar
    38   25   32 ar
    39   26   27 2
    40   26   28 ar
    41   28   29 ar
    42   28   43 1
    43   29   30 1
    44   29   31 ar
    45   30   44 1
    46   30   45 1
    47   31   32 ar
    48   31   46 1
@<TRIPOS>SUBSTRUCTURE
     1 GTP         1 GROUP 0 A     ****
@<TRIPOS>MOLECULE
[[[5-(2-amino-6-oxo-1,3-dihydropurin-2-ylium-9-yl)-3,4-dihydroxy-tetrahydrofuran-2-yl]methoxy-oxido-phosphoryl]oxy-oxido-phosphoryl] hydrogen phosphate
   46    48     1     0     0
SMALL
USER_CHARGES

@<TRIPOS>ATOM
      1 PG         -3.1127    5.4544   -3.5147 P.3       1 GTP         1.5400
      2 O1G        -2.6671    4.4014   -4.5046 O.co2     1 GTP        -0.8909
      3 O2G        -4.5789    5.7769   -3.3301 O.co2     1 GTP        -0.8909
      4 O3G        -2.3136    6.8411   -3.8377 O.3       1 GTP        -0.7980
      5 O3B        -2.4559    5.1251   -2.0573 O.3       1 GTP        -0.7612
      6 PB         -2.4753    6.0007   -0.6794 P.3       1 GTP         1.5847
      7 O1B        -1.6929    7.2755   -0.9040 O.co2     1 GTP        -0.8859
      8 O2B        -3.8838    6.0228   -0.1287 O.co2     1 GTP        -0.8859
      9 O3A        -1.6181    4.9968    0.2809 O.3       1 GTP        -0.7486
     10 PA         -0.0889    4.4444    0.1193 P.3       1 GTP         1.5001
     11 O1A        -0.0111    3.5842   -1.1233 O.co2     1 GTP        -0.8487
     12 O2A         0.8677    5.5971    0.3340 O.co2     1 GTP        -0.8487
     13 O5'         0.0178    3.5131    1.4595 O.3       1 GTP        -0.5474
     14 C5'        -0.8811    2.4285    1.6206 C.3       1 GTP         0.2547
     15 C4'        -0.1994    1.3333    2.4288 C.3       1 GTP         0.0926
     16 O4'        -1.1285    0.2356    2.5840 O.3       1 GTP        -0.3593
     17 C3'         1.0324    0.7610    1.7344 C.3       1 GTP         0.0907
     18 O3'         1.9175    0.2377    2.7247 O.3       1 GTP        -0.5209
     19 C2'         0.4468   -0.3802    0.9263 C.3       1 GTP         0.0305
     20 O2'         1.3993   -1.3703    0.5961 O.3       1 GTP        -0.5978
     21 C1'        -0.6159   -0.9100    1.8769 C.3       1 GTP         0.2339
     22 N9         -1.7127   -1.6108    1.2130 N.pl3     1 GTP        -0.1765
     23 C8         -2.5534   -1.0907    0.2607 C.ar      1 GTP         0.4947
     24 N7         -3.4469   -1.9695   -0.1508 N.2       1 GTP        -0.5802
     25 C5         -3.1705   -3.1041    0.5657 C.ar      1 GTP         0.2279
     26 C6         -3.8738   -4.3568    0.4777 C.ar      1 GTP         0.6513
     27 O6         -4.8240   -4.5720   -0.2607 O.2       1 GTP        -0.5111
     28 N1         -3.3198   -5.3462    1.3780 N.pl3     1 GTP        -0.4713
     29 C2         -2.2226   -5.1203    2.2413 C.ar      1 GTP         0.5256
     30 N2         -1.7649   -6.1367    3.0659 N.pl3     1 GTP        -0.8665
     31 N3         -1.5969   -3.8585    2.2574 N.pl3     1 GTP        -0.5398
     32 C4         -2.1068   -2.8965    1.4082 C.ar      1 GTP        -0.0275
     33 HOG3       -2.4946    7.6257   -3.2774 H         1 GTP         0.4161
     34 H5'        -1.7771    2.7849    2.1387 H         1 GTP         0.0348
     35 H5''       -1.1654    2.0541    0.6320 H         1 GTP         0.0348
     36 H4'         0.0403    1.7078    3.4343 H         1 GTP         0.1215
     37 H3'         1.5907    1.4859    1.1353 H         1 GTP         0.0576
     38 HO3'        2.6839   -0.1150    2.2479 H         1 GTP         0.3842
     39 H2'        -0.0017    0.0018    0.0005 H         1 GTP         0.0252
     40 HO2'        0.9369   -2.0558    0.0825 H         1 GTP         0.4224
     41 H1'        -0.1998   -1.6319    2.6178 H         1 GTP         0.0745
     42 H8         -2.4657   -0.0713   -0.0897 H         1 GTP         0.1522
     43 HN1        -3.7505   -6.2699    1.3904 H         1 GTP         0.3518
     44 HN21       -1.0023   -5.9289    3.6451 H         1 GTP         0.4761
     45 HN22       -2.2347   -6.9951    3.0150 H         1 GTP         0.4761
     46 H46        -0.8062   -3.6900    2.8760 H         1 GTP         0.5030
@<TRIPOS>BOND
     1    1    2 2
     2    1    3 1
     3    1    4 1
     4    1    5 1
     5    4   33 1
     6    5    6 1
     7    6    7 2
     8    6    8 1
     9    6    9 1
    10    9   10 1
    11   10   11 2
    12   10   12 1
    13   10   13 1
    14   13   14 1
    15   14   15 1
    16   14   34 1
    17   14   35 1
    18   15   16 1
    19   15   17 1
    20   15   36 1
    21   16   21 1
    22   17   18 1
    23   17   19 1
    24   17   37 1
    25   18   38 1
    26   19   20 1
    27   19   21 1
    28   19   39 1
    29   20   40 1
    30   21   22 1
    31   21   41 1
    32   22   23 ar
    33   22   32 ar
    34   23   24 ar
    35   23   42 1
    36   24   25 ar
    37   25   26 ar
    38   25   32 ar
    39   26   27 2
    40   26   28 ar
    41   28   29 ar
    42   28   43 1
    43   29   30 1
    44   29   31 ar
    45   30   44 1
    46   30   45 1
    47   31   32 ar
    48   31   46 1
@<TRIPOS>SUBSTRUCTURE
     1 GTP         1 GROUP 0 A     ****
@<TRIPOS>MOLECULE
[[[5-(2-amino-6-oxo-1,3-dihydropurin-2-ylium-9-yl)-3,4-dihydroxy-tetrahydrofuran-2-yl]methoxy-oxido-phosphoryl]oxy-oxido-phosphoryl] hydrogen phosphate
   46    48     1     0     0
SMALL
USER_CHARGES

@<TRIPOS>ATOM
      1 PG          2.4600    3.9794    5.3626 P.3       1 GTP         1.5400
      2 O1G         2.2524    4.6312    6.7115 O.co2     1 GTP        -0.8909
      3 O2G         1.6603    2.7615    4.9564 O.co2     1 GTP        -0.8909
      4 O3G         4.0474    3.6383    5.1902 O.3       1 GTP        -0.7980
      5 O3B         2.3238    5.1143    4.1976 O.3       1 GTP        -0.7612
      6 PB          1.0195    5.9733    3.7217 P.3       1 GTP         1.5847
      7 O1B         0.4284    6.6664    4.9291 O.co2     1 GTP        -0.8859
      8 O2B         1.3636    6.7350    2.4612 O.co2     1 GTP        -0.8859
      9 O3A         0.0468    4.7431    3.2686 O.3       1 GTP        -0.7486
     10 PA         -1.4709    4.7755    2.6641 P.3       1 GTP         1.5001
     11 O1A        -2.4018    5.3379    3.7164 O.co2     1 GTP        -0.8487
     12 O2A        -1.4241    5.3590    1.2687 O.co2     1 GTP        -0.8487
     13 O5'        -1.7336    3.1724    2.4750 O.3       1 GTP        -0.5474
     14 C5'        -0.8811    2.4285    1.6206 C.3       1 GTP         0.2547
     15 C4'        -0.1994    1.3333    2.4288 C.3       1 GTP         0.0926
     16 O4'        -1.1285    0.2356    2.5840 O.3       1 GTP        -0.3593
     17 C3'         1.0324    0.7610    1.7344 C.3       1 GTP         0.0907
     18 O3'         1.9175    0.2377    2.7247 O.3       1 GTP        -0.5209
     19 C2'         0.4468   -0.3802    0.9263 C.3       1 GTP         0.0305
     20 O2'         1.3993   -1.3703    0.5961 O.3       1 GTP        -0.5978
     21 C1'        -0.6159   -0.9100    1.8769 C.3       1 GTP         0.2339
     22 N9         -1.7127   -1.6108    1.2130 N.pl3     1 GTP        -0.1765
     23 C8         -2.8692   -1.0463    0.7355 C.ar      1 GTP         0.4947
     24 N7         -3.6707   -1.9381    0.1856 N.2       1 GTP        -0.5802
     25 C5         -3.0027   -3.1275    0.3134 C.ar      1 GTP         0.2279
     26 C6         -3.4659   -4.4142   -0.1355 C.ar      1 GTP         0.6513
     27 O6         -4.5328   -4.6133   -0.6980 O.2       1 GTP        -0.5111
     28 N1         -2.5102   -5.4606    0.1612 N.pl3     1 GTP        -0.4713
     29 C2         -1.2711   -5.2547    0.8113 C.ar      1 GTP         0.5256
     30 N2         -0.4228   -6.3256    1.0482 N.pl3     1 GTP        -0.8665
     31 N3         -0.9033   -3.9563    1.2146 N.pl3     1 GTP        -0.5398
     32 C4         -1.7979   -2.9400    0.9438 C.ar      1 GTP        -0.0275
     33 HOG3        4.3453    3.2090    4.3600 H         1 GTP         0.4161
     34 H5'        -1.4800    1.9927    0.8146 H         1 GTP         0.0348
     35 H5''       -0.1367    3.1040    1.1872 H         1 GTP         0.0348
     36 H4'         0.0403    1.7078    3.4343 H         1 GTP         0.1215
     37 H3'         1.5907    1.4859    1.1353 H         1 GTP         0.0576
     38 HO3'        2.1521    0.9800    3.3017 H         1 GTP         0.3842
     39 H2'        -0.0017    0.0018    0.0005 H         1 GTP         0.0252
     40 HO2'        2.0953   -0.9375    0.0709 H         1 GTP         0.4224
     41 H1'        -0.1998   -1.6319    2.6178 H         1 GTP         0.0745
     42 H8         -3.0691    0.0134    0.8177 H         1 GTP         0.1522
     43 HN1        -2.7468   -6.4119   -0.1177 H         1 GTP         0.3518
     44 HN21        0.4233   -6.1297    1.5018 H         1 GTP         0.4761
     45 HN22       -0.7261   -7.2071    0.7466 H         1 GTP         0.4761
     46 H46        -0.0124   -3.8015    1.6821 H         1 GTP         0.5030
@<TRIPOS>BOND
     1    1    2 2
     2    1    3 1
     3    1    4 1
     4    1    5 1
     5    4   33 1
     6    5    6 1
     7    6    7 2
     8    6    8 1
     9    6    9 1
    10    9   10 1
    11   10   11 2
    12   10   12 1
    13   10   13 1
    14   13   14 1
    15   14   15 1
    16   14   34 1
    17   14   35 1
    18   15   16 1
    19   15   17 1
    20   15   36 1
    21   16   21 1
    22   17   18 1
    23   17   19 1
    24   17   37 1
    25   18   38 1
    26   19   20 1
    27   19   21 1
    28   19   39 1
    29   20   40 1
    30   21   22 1
    31   21   41 1
    32   22   23 ar
    33   22   32 ar
    34   23   24 ar
    35   23   42 1
    36   24   25 ar
    37   25   26 ar
    38   25   32 ar
    39   26   27 2
    40   26   28 ar
    41   28   29 ar
    42   28   43 1
    43   29   30 1
    44   29   31 ar
    45   30   44 1
    46   30   45 1
    47   31   32 ar
    48   31   46 1
@<TRIPOS>SUBSTRUCTURE
     1 GTP         1 GROUP 0 A     ****
@<TRIPOS>MOLECULE
[[[5-(2-amino-6-oxo-1,3-dihydropurin-2-ylium-9-yl)-3,4-dihydroxy-tetrahydrofuran-2-yl]methoxy-oxido-phosphoryl]oxy-oxido-phosphoryl] hydrogen phosphate
   46    48     1     0     0
SMALL
USER_CHARGES

@<TRIPOS>ATOM
      1 PG         -6.6763    6.2093    0.3167 P.3       1 GTP         1.5400
      2 O1G        -6.4020    7.2218   -0.7728 O.co2     1 GTP        -0.8909
      3 O2G        -7.8393    5.2481    0.2097 O.co2     1 GTP        -0.8909
      4 O3G        -6.7851    6.9979    1.7423 O.3       1 GTP        -0.7980
      5 O3B        -5.3134    5.3600    0.6081 O.3       1 GTP        -0.7612
      6 PB         -4.5154    4.3030   -0.3467 P.3       1 GTP         1.5847
      7 O1B        -5.3937    3.0919   -0.5689 O.co2     1 GTP        -0.8859
      8 O2B        -3.8952    5.0542   -1.5036 O.co2     1 GTP        -0.8859
      9 O3A        -3.2920    3.9119    0.6609 O.3       1 GTP        -0.7486
     10 PA         -3.3347    3.2338    2.1468 P.3       1 GTP         1.5001
     11 O1A        -4.0274    4.1866    3.0968 O.co2     1 GTP        -0.8487
     12 O2A        -3.7889    1.7968    2.0106 O.co2     1 GTP        -0.8487
     13 O5'        -1.7336    3.1724    2.4750 O.3       1 GTP        -0.5474
     14 C5'        -0.8811    2.4285    1.6206 C.3       1 GTP         0.2547
     15 C4'        -0.1994    1.3333    2.4288 C.3       1 GTP         0.0926
     16 O4'        -1.1285    0.2356    2.5840 O.3       1 GTP        -0.3593
     17 C3'         1.0324    0.7610    1.7344 C.3       1 GTP         0.0907
     18 O3'         1.9175    0.2377    2.7247 O.3       1 GTP        -0.5209
     19 C2'         0.4468   -0.3802    0.9263 C.3       1 GTP         0.0305
     20 O2'         1.3993   -1.3703    0.5961 O.3       1 GTP        -0.5978
     21 C1'        -0.6159   -0.9100    1.8769 C.3       1 GTP         0.2339
     22 N9         -1.7127   -1.6108    1.2130 N.pl3     1 GTP        -0.1765
     23 C8         -2.5534   -1.0907    0.2607 C.ar      1 GTP         0.4947
     24 N7         -3.4469   -1.9695   -0.1508 N.2       1 GTP        -0.5802
     25 C5         -3.1705   -3.1041    0.5657 C.ar      1 GTP         0.2279
     26 C6         -3.8738   -4.3568    0.4777 C.ar      1 GTP         0.6513
     27 O6         -4.8240   -4.5720   -0.2607 O.2       1 GTP        -0.5111
     28 N1         -3.3198   -5.3462    1.3780 N.pl3     1 GTP        -0.4713
     29 C2         -2.2226   -5.1203    2.2413 C.ar      1 GTP         0.5256
     30 N2         -1.7649   -6.1367    3.0659 N.pl3     1 GTP        -0.8665
     31 N3         -1.5969   -3.8585    2.2574 N.pl3     1 GTP        -0.5398
     32 C4         -2.1068   -2.8965    1.4082 C.ar      1 GTP        -0.0275
     33 HOG3       -6.9620    6.4747    2.5530 H         1 GTP         0.4161
     34 H5'        -1.4800    1.9927    0.8146 H         1 GTP         0.0348
     35 H5''       -0.1367    3.1040    1.1872 H         1 GTP         0.0348
     36 H4'         0.0403    1.7078    3.4343 H         1 GTP         0.1215
     37 H3'         1.5907    1.4859    1.1353 H         1 GTP         0.0576
     38 HO3'        2.6839   -0.1150    2.2479 H         1 GTP         0.3842
     39 H2'        -0.0017    0.0018    0.0005 H         1 GTP         0.0252
     40 HO2'        2.0953   -0.9375    0.0709 H         1 GTP         0.4224
     41 H1'        -0.1998   -1.6319    2.6178 H         1 GTP         0.0745
     42 H8         -2.4657   -0.0713   -0.0897 H         1 GTP         0.1522
     43 HN1        -3.7505   -6.2699    1.3904 H         1 GTP         0.3518
     44 HN21       -1.0023   -5.9289    3.6451 H         1 GTP         0.4761
     45 HN22       -2.2347   -6.9951    3.0150 H         1 GTP         0.4761
     46 H46        -0.8062   -3.6900    2.8760 H         1 GTP         0.5030
@<TRIPOS>BOND
     1    1    2 2
     2    1    3 1
     3    1    4 1
     4    1    5 1
     5    4   33 1
     6    5    6 1
     7    6    7 2
     8    6    8 1
     9    6    9 1
    10    9   10 1
    11   10   11 2
    12   10   12 1
    13   10   13 1
    14   13   14 1
    15   14   15 1
    16   14   34 1
    17   14   35 1
    18   15   16 1
    19   15   17 1
    20   15   36 1
    21   16   21 1
    22   17   18 1
    23   17   19 1
    24   17   37 1
    25   18   38 1
    26   19   20 1
    27   19   21 1
    28   19   39 1
    29   20   40 1
    30   21   22 1
    31   21   41 1
    32   22   23 ar
    33   22   32 ar
    34   23   24 ar
    35   23   42 1
    36   24   25 ar
    37   25   26 ar
    38   25   32 ar
    39   26   27 2
    40   26   28 ar
    41   28   29 ar
    42   28   43 1
    43   29   30 1
    44   29   31 ar
    45   30   44 1
    46   30   45 1
    47   31   32 ar
    48   31   46 1
@<TRIPOS>SUBSTRUCTURE
     1 GTP         1 GROUP 0 A     ****
@<TRIPOS>MOLECULE
[[[5-(2-amino-6-oxo-1,3-dihydropurin-2-ylium-9-yl)-3,4-dihydroxy-tetrahydrofuran-2-yl]methoxy-oxido-phosphoryl]oxy-oxido-phosphoryl] hydrogen phosphate
   46    48     1     0     0
SMALL
USER_CHARGES

@<TRIPOS>ATOM
      1 PG         -5.2577    6.8467   -0.1445 P.3       1 GTP         1.5400
      2 O1G        -5.0036    8.3327   -0.0238 O.co2     1 GTP        -0.8909
      3 O2G        -5.8927    6.2652   -1.3881 O.co2     1 GTP        -0.8909
      4 O3G        -6.1205    6.3609    1.1538 O.3       1 GTP        -0.7980
      5 O3B        -3.8712    6.0437    0.1663 O.3       1 GTP        -0.7612
      6 PB         -2.4753    6.0007   -0.6794 P.3       1 GTP         1.5847
      7 O1B        -2.7346    5.3287   -2.0093 O.co2     1 GTP        -0.8859
      8 O2B        -1.8046    7.3536   -0.5934 O.co2     1 GTP        -0.8859
      9 O3A        -1.6181    4.9968    0.2809 O.3       1 GTP        -0.7486
     10 PA         -0.0889    4.4444    0.1193 P.3       1 GTP         1.5001
     11 O1A        -0.0111    3.5842   -1.1233 O.co2     1 GTP        -0.8487
     12 O2A         0.8677    5.5971    0.3340 O.co2     1 GTP        -0.8487
     13 O5'         0.0178    3.5131    1.4595 O.3       1 GTP        -0.5474
     14 C5'        -0.8811    2.4285    1.6206 C.3       1 GTP         0.2547
     15 C4'        -0.1994    1.3333    2.4288 C.3       1 GTP         0.0926
     16 O4'        -1.1285    0.2356    2.5840 O.3       1 GTP        -0.3593
     17 C3'         1.0324    0.7610    1.7344 C.3       1 GTP         0.0907
     18 O3'         1.9175    0.2377    2.7247 O.3       1 GTP        -0.5209
     19 C2'         0.4468   -0.3802    0.9263 C.3       1 GTP         0.0305
     20 O2'         1.3993   -1.3703    0.5961 O.3       1 GTP        -0.5978
     21 C1'        -0.6159   -0.9100    1.8769 C.3       1 GTP         0.2339
     22 N9         -1.7127   -1.6108    1.2130 N.pl3     1 GTP        -0.1765
     23 C8         -1.7789   -2.9564    0.9503 C.ar      1 GTP         0.4947
     24 N7         -2.8980   -3.2916    0.3377 N.2       1 GTP        -0.5802
     25 C5         -3.5824   -2.1127    0.2000 C.ar      1 GTP         0.2279
     26 C6         -4.8740   -1.9471   -0.4133 C.ar      1 GTP         0.6513
     27 O6         -5.5366   -2.8529   -0.8978 O.2       1 GTP        -0.5111
     28 N1         -5.3036   -0.5645   -0.3916 N.pl3     1 GTP        -0.4713
     29 C2         -4.5545    0.4997    0.1619 C.ar      1 GTP         0.5256
     30 N2         -5.0561    1.7921    0.1348 N.pl3     1 GTP        -0.8665
     31 N3         -3.2977    0.2393    0.7420 N.pl3     1 GTP        -0.5398
     32 C4         -2.8643   -1.0716    0.7336 C.ar      1 GTP        -0.0275
     33 HOG3       -6.3673    5.4140    1.2226 H         1 GTP         0.4161
     34 H5'        -1.7771    2.7849    2.1387 H         1 GTP         0.0348
     35 H5''       -1.1654    2.0541    0.6320 H         1 GTP         0.0348
     36 H4'         0.0403    1.7078    3.4343 H         1 GTP         0.1215
     37 H3'         1.5907    1.4859    1.1353 H         1 GTP         0.0576
     38 HO3'        2.6839   -0.1150    2.2479 H         1 GTP         0.3842
     39 H2'        -0.0017    0.0018    0.0005 H         1 GTP         0.0252
     40 HO2'        2.0953   -0.9375    0.0709 H         1 GTP         0.4224
     41 H1'        -0.1998   -1.6319    2.6178 H         1 GTP         0.0745
     42 H8         -0.9852   -3.6367    1.2276 H         1 GTP         0.1522
     43 HN1        -6.2089   -0.3428   -0.8039 H         1 GTP         0.3518
     44 HN21       -4.4981    2.4933    0.5311 H         1 GTP         0.4761
     45 HN22       -5.9352    1.9183   -0.2793 H         1 GTP         0.4761
     46 H46        -2.7541    1.0010    1.1428 H         1 GTP         0.5030
@<TRIPOS>BOND
     1    1    2 2
     2    1    3 1
     3    1    4 1
     4    1    5 1
     5    4   33 1
     6    5    6 1
     7    6    7 2
     8    6    8 1
     9    6    9 1
    10    9   10 1
    11   10   11 2
    12   10   12 1
    13   10   13 1
    14   13   14 1
    15   14   15 1
    16   14   34 1
    17   14   35 1
    18   15   16 1
    19   15   17 1
    20   15   36 1
    21   16   21 1
    22   17   18 1
    23   17   19 1
    24   17   37 1
    25   18   38 1
    26   19   20 1
    27   19   21 1
    28   19   39 1
    29   20   40 1
    30   21   22 1
    31   21   41 1
    32   22   23 ar
    33   22   32 ar
    34   23   24 ar
    35   23   42 1
    36   24   25 ar
    37   25   26 ar
    38   25   32 ar
    39   26   27 2
    40   26   28 ar
    41   28   29 ar
    42   28   43 1
    43   29   30 1
    44   29   31 ar
    45   30   44 1
    46   30   45 1
    47   31   32 ar
    48   31   46 1
@<TRIPOS>SUBSTRUCTURE
     1 GTP         1 GROUP 0 A     ****
@<TRIPOS>MOLECULE
[[[5-(2-amino-6-oxo-1,3-dihydropurin-2-ylium-9-yl)-3,4-dihydroxy-tetrahydrofuran-2-yl]methoxy-oxido-phosphoryl]oxy-oxido-phosphoryl] hydrogen phosphate
   46    48     1     0     0
SMALL
USER_CHARGES

@<TRIPOS>ATOM
      1 PG         -1.4121    8.4548   -1.9824 P.3       1 GTP         1.5400
      2 O1G        -1.7833    8.1694   -3.4205 O.co2     1 GTP        -0.8909
      3 O2G        -2.2226    9.4210   -1.1475 O.co2     1 GTP        -0.8909
      4 O3G         0.1540    8.9137   -1.9323 O.3       1 GTP        -0.7980
      5 O3B        -1.2808    7.0412   -1.1772 O.3       1 GTP        -0.7612
      6 PB         -2.4285    5.9448   -0.7946 P.3       1 GTP         1.5847
      7 O1B        -3.3958    6.5762    0.1817 O.co2     1 GTP        -0.8859
      8 O2B        -2.9083    5.2708   -2.0607 O.co2     1 GTP        -0.8859
      9 O3A        -1.4987    4.8543   -0.0129 O.3       1 GTP        -0.7486
     10 PA         -0.5790    5.0299    1.3261 P.3       1 GTP         1.5001
     11 O1A         0.5370    6.0068    1.0251 O.co2     1 GTP        -0.8487
     12 O2A        -1.4908    5.2267    2.5176 O.co2     1 GTP        -0.8487
     13 O5'         0.0178    3.5131    1.4595 O.3       1 GTP        -0.5474
     14 C5'        -0.8811    2.4285    1.6206 C.3       1 GTP         0.2547
     15 C4'        -0.1994    1.3333    2.4288 C.3       1 GTP         0.0926
     16 O4'        -1.1285    0.2356    2.5840 O.3       1 GTP        -0.3593
     17 C3'         1.0324    0.7610    1.7344 C.3       1 GTP         0.0907
     18 O3'         1.9175    0.2377    2.7247 O.3       1 GTP        -0.5209
     19 C2'         0.4468   -0.3802    0.9263 C.3       1 GTP         0.0305
     20 O2'         1.3993   -1.3703    0.5961 O.3       1 GTP        -0.5978
     21 C1'        -0.6159   -0.9100    1.8769 C.3       1 GTP         0.2339
     22 N9         -1.7127   -1.6108    1.2130 N.pl3     1 GTP        -0.1765
     23 C8         -2.8692   -1.0463    0.7355 C.ar      1 GTP         0.4947
     24 N7         -3.6707   -1.9381    0.1856 N.2       1 GTP        -0.5802
     25 C5         -3.0027   -3.1275    0.3134 C.ar      1 GTP         0.2279
     26 C6         -3.4659   -4.4142   -0.1355 C.ar      1 GTP         0.6513
     27 O6         -4.5328   -4.6133   -0.6980 O.2       1 GTP        -0.5111
     28 N1         -2.5102   -5.4606    0.1612 N.pl3     1 GTP        -0.4713
     29 C2         -1.2711   -5.2547    0.8113 C.ar      1 GTP         0.5256
     30 N2         -0.4228   -6.3256    1.0482 N.pl3     1 GTP        -0.8665
     31 N3         -0.9033   -3.9563    1.2146 N.pl3     1 GTP        -0.5398
     32 C4         -1.7979   -2.9400    0.9438 C.ar      1 GTP        -0.0275
     33 HOG3        0.5480    9.1353   -1.0616 H         1 GTP         0.4161
     34 H5'        -1.7771    2.7849    2.1387 H         1 GTP         0.0348
     35 H5''       -1.1654    2.0541    0.6320 H         1 GTP         0.0348
     36 H4'         0.0403    1.7078    3.4343 H         1 GTP         0.1215
     37 H3'         1.5907    1.4859    1.1353 H         1 GTP         0.0576
     38 HO3'        2.6839   -0.1150    2.2479 H         1 GTP         0.3842
     39 H2'        -0.0017    0.0018    0.0005 H         1 GTP         0.0252
     40 HO2'        0.9369   -2.0558    0.0825 H         1 GTP         0.4224
     41 H1'        -0.1998   -1.6319    2.6178 H         1 GTP         0.0745
     42 H8         -3.0691    0.0134    0.8177 H         1 GTP         0.1522
     43 HN1        -2.7468   -6.4119   -0.1177 H         1 GTP         0.3518
     44 HN21        0.4233   -6.1297    1.5018 H         1 GTP         0.4761
     45 HN22       -0.7261   -7.2071    0.7466 H         1 GTP         0.4761
     46 H46        -0.0124   -3.8015    1.6821 H         1 GTP         0.5030
@<TRIPOS>BOND
     1    1    2 2
     2    1    3 1
     3    1    4 1
     4    1    5 1
     5    4   33 1
     6    5    6 1
     7    6    7 2
     8    6    8 1
     9    6    9 1
    10    9   10 1
    11   10   11 2
    12   10   12 1
    13   10   13 1
    14   13   14 1
    15   14   15 1
    16   14   34 1
    17   14   35 1
    18   15   16 1
    19   15   17 1
    20   15   36 1
    21   16   21 1
    22   17   18 1
    23   17   19 1
    24   17   37 1
    25   18   38 1
    26   19   20 1
    27   19   21 1
    28   19   39 1
    29   20   40 1
    30   21   22 1
    31   21   41 1
    32   22   23 ar
    33   22   32 ar
    34   23   24 ar
    35   23   42 1
    36   24   25 ar
    37   25   26 ar
    38   25   32 ar
    39   26   27 2
    40   26   28 ar
    41   28   29 ar
    42   28   43 1
    43   29   30 1
    44   29   31 ar
    45   30   44 1
    46   30   45 1
    47   31   32 ar
    48   31   46 1
@<TRIPOS>SUBSTRUCTURE
     1 GTP         1 GROUP 0 A     ****
@<TRIPOS>MOLECULE
[[[5-(2-amino-6-oxo-1,3-dihydropurin-2-ylium-9-yl)-3,4-dihydroxy-tetrahydrofuran-2-yl]methoxy-oxido-phosphoryl]oxy-oxido-phosphoryl] hydrogen phosphate
   46    48     1     0     0
SMALL
USER_CHARGES

@<TRIPOS>ATOM
      1 PG         -5.9343    3.6728   -2.0432 P.3       1 GTP         1.5400
      2 O1G        -7.2380    4.2425   -1.5299 O.co2     1 GTP        -0.8909
      3 O2G        -5.1157    4.4139   -3.0769 O.co2     1 GTP        -0.8909
      4 O3G        -6.2089    2.1583   -2.5879 O.3       1 GTP        -0.7980
      5 O3B        -4.9771    3.3082   -0.7726 O.3       1 GTP        -0.7612
      6 PB         -5.2892    2.3938    0.5436 P.3       1 GTP         1.5847
      7 O1B        -6.3622    3.0747    1.3637 O.co2     1 GTP        -0.8859
      8 O2B        -5.4144    0.9471    0.1207 O.co2     1 GTP        -0.8859
      9 O3A        -3.8516    2.5312    1.3047 O.3       1 GTP        -0.7486
     10 PA         -3.0798    3.8627    1.8536 P.3       1 GTP         1.5001
     11 O1A        -2.7213    4.7387    0.6727 O.co2     1 GTP        -0.8487
     12 O2A        -3.8485    4.4163    3.0335 O.co2     1 GTP        -0.8487
     13 O5'        -1.7336    3.1724    2.4750 O.3       1 GTP        -0.5474
     14 C5'        -0.8811    2.4285    1.6206 C.3       1 GTP         0.2547
     15 C4'        -0.1994    1.3333    2.4288 C.3       1 GTP         0.0926
     16 O4'        -1.1285    0.2356    2.5840 O.3       1 GTP        -0.3593
     17 C3'         1.0324    0.7610    1.7344 C.3       1 GTP         0.0907
     18 O3'         1.9175    0.2377    2.7247 O.3       1 GTP        -0.5209
     19 C2'         0.4468   -0.3802    0.9263 C.3       1 GTP         0.0305
     20 O2'         1.3993   -1.3703    0.5961 O.3       1 GTP        -0.5978
     21 C1'        -0.6159   -0.9100    1.8769 C.3       1 GTP         0.2339
     22 N9         -1.7127   -1.6108    1.2130 N.pl3     1 GTP        -0.1765
     23 C8         -3.0389   -1.2578    1.2391 C.ar      1 GTP         0.4947
     24 N7         -3.7909   -2.0880    0.5425 N.2       1 GTP        -0.5802
     25 C5         -2.9127   -3.0150    0.0458 C.ar      1 GTP         0.2279
     26 C6         -3.2467   -4.1411   -0.7860 C.ar      1 GTP         0.6513
     27 O6         -4.3761   -4.4189   -1.1621 O.2       1 GTP        -0.5111
     28 N1         -2.0748   -4.9191   -1.1296 N.pl3     1 GTP        -0.4713
     29 C2         -0.7595   -4.6181   -0.7058 C.ar      1 GTP         0.5256
     30 N2          0.2985   -5.4268   -1.0920 N.pl3     1 GTP        -0.8665
     31 N3         -0.5304   -3.4919    0.1084 N.pl3     1 GTP        -0.5398
     32 C4         -1.6318   -2.7332    0.4512 C.ar      1 GTP        -0.0275
     33 HOG3       -5.4546    1.6506   -2.9560 H         1 GTP         0.4161
     34 H5'        -1.4800    1.9927    0.8146 H         1 GTP         0.0348
     35 H5''       -0.1367    3.1040    1.1872 H         1 GTP         0.0348
     36 H4'         0.0403    1.7078    3.4343 H         1 GTP         0.1215
     37 H3'         1.5907    1.4859    1.1353 H         1 GTP         0.0576
     38 HO3'        2.1521    0.9800    3.3017 H         1 GTP         0.3842
     39 H2'        -0.0017    0.0018    0.0005 H         1 GTP         0.0252
     40 HO2'        2.0953   -0.9375    0.0709 H         1 GTP         0.4224
     41 H1'        -0.1998   -1.6319    2.6178 H         1 GTP         0.0745
     42 H8         -3.3933   -0.3909    1.7800 H         1 GTP         0.1522
     43 HN1        -2.2071   -5.7408   -1.7178 H         1 GTP         0.3518
     44 HN21        1.1896   -5.1751   -0.7715 H         1 GTP         0.4761
     45 HN22        0.0846   -6.1966   -1.6593 H         1 GTP         0.4761
     46 H46         0.4142   -3.2695    0.4160 H         1 GTP         0.5030
@<TRIPOS>BOND
     1    1    2 2
     2    1    3 1
     3    1    4 1
     4    1    5 1
     5    4   33 1
     6    5    6 1
     7    6    7 2
     8    6    8 1
     9    6    9 1
    10    9   10 1
    11   10   11 2
    12   10   12 1
    13   10   13 1
    14   13   14 1
    15   14   15 1
    16   14   34 1
    17   14   35 1
    18   15   16 1
    19   15   17 1
    20   15   36 1
    21   16   21 1
    22   17   18 1
    23   17   19 1
    24   17   37 1
    25   18   38 1
    26   19   20 1
    27   19   21 1
    28   19   39 1
    29   20   40 1
    30   21   22 1
    31   21   41 1
    32   22   23 ar
    33   22   32 ar
    34   23   24 ar
    35   23   42 1
    36   24   25 ar
    37   25   26 ar
    38   25   32 ar
    39   26   27 2
    40   26   28 ar
    41   28   29 ar
    42   28   43 1
    43   29   30 1
    44   29   31 ar
    45   30   44 1
    46   30   45 1
    47   31   32 ar
    48   31   46 1
@<TRIPOS>SUBSTRUCTURE
     1 GTP         1 GROUP 0 A     ****
@<TRIPOS>MOLECULE
[[[5-(2-amino-6-oxo-1,3-dihydropurin-2-ylium-9-yl)-3,4-dihydroxy-tetrahydrofuran-2-yl]methoxy-oxido-phosphoryl]oxy-oxido-phosphoryl] hydrogen phosphate
   46    48     1     0     0
SMALL
USER_CHARGES

@<TRIPOS>ATOM
      1 PG         -3.3608    6.2556    4.2235 P.3       1 GTP         1.5400
      2 O1G        -2.4900    5.0489    4.4940 O.co2     1 GTP        -0.8909
      3 O2G        -2.9313    7.6380    4.6618 O.co2     1 GTP        -0.8909
      4 O3G        -4.8524    5.9628    4.8194 O.3       1 GTP        -0.7980
      5 O3B        -3.7335    6.2963    2.6350 O.3       1 GTP        -0.7612
      6 PB         -2.7700    6.5451    1.3406 P.3       1 GTP         1.5847
      7 O1B        -3.5862    6.3453    0.0831 O.co2     1 GTP        -0.8859
      8 O2B        -1.9562    7.8000    1.5654 O.co2     1 GTP        -0.8859
      9 O3A        -1.7457    5.2883    1.5313 O.3       1 GTP        -0.7486
     10 PA         -0.4665    4.8322    0.6228 P.3       1 GTP         1.5001
     11 O1A        -0.9631    4.4288   -0.7487 O.co2     1 GTP        -0.8487
     12 O2A         0.6338    5.8580    0.7859 O.co2     1 GTP        -0.8487
     13 O5'         0.0178    3.5131    1.4595 O.3       1 GTP        -0.5474
     14 C5'        -0.8811    2.4285    1.6206 C.3       1 GTP         0.2547
     15 C4'        -0.1994    1.3333    2.4288 C.3       1 GTP         0.0926
     16 O4'        -1.1285    0.2356    2.5840 O.3       1 GTP        -0.3593
     17 C3'         1.0324    0.7610    1.7344 C.3       1 GTP         0.0907
     18 O3'         1.9175    0.2377    2.7247 O.3       1 GTP        -0.5209
     19 C2'         0.4468   -0.3802    0.9263 C.3       1 GTP         0.0305
     20 O2'         1.3993   -1.3703    0.5961 O.3       1 GTP        -0.5978
     21 C1'        -0.6159   -0.9100    1.8769 C.3       1 GTP         0.2339
     22 N9         -1.7127   -1.6108    1.2130 N.pl3     1 GTP        -0.1765
     23 C8         -1.6092   -2.7449    0.4467 C.ar      1 GTP         0.4947
     24 N7         -2.7778   -3.1416   -0.0191 N.2       1 GTP        -0.5802
     25 C5         -3.6725   -2.2253    0.4675 C.ar      1 GTP         0.2279
     26 C6         -5.0932   -2.2202    0.2371 C.ar      1 GTP         0.6513
     27 O6         -5.6933   -3.0474   -0.4337 O.2       1 GTP        -0.5111
     28 N1         -5.7390   -1.1061    0.8992 N.pl3     1 GTP        -0.4713
     29 C2         -5.0661   -0.1368    1.6789 C.ar      1 GTP         0.5256
     30 N2         -5.7774    0.8934    2.2749 N.pl3     1 GTP        -0.8665
     31 N3         -3.6705   -0.2251    1.8481 N.pl3     1 GTP        -0.5398
     32 C4         -3.0303   -1.2785    1.2262 C.ar      1 GTP        -0.0275
     33 HOG3       -5.5388    6.6568    4.7217 H         1 GTP         0.4161
     34 H5'        -1.7771    2.7849    2.1387 H         1 GTP         0.0348
     35 H5''       -1.1654    2.0541    0.6320 H         1 GTP         0.0348
     36 H4'         0.0403    1.7078    3.4343 H         1 GTP         0.1215
     37 H3'         1.5907    1.4859    1.1353 H         1 GTP         0.0576
     38 HO3'        2.6839   -0.1150    2.2479 H         1 GTP         0.3842
     39 H2'        -0.0017    0.0018    0.0005 H         1 GTP         0.0252
     40 HO2'        2.0953   -0.9375    0.0709 H         1 GTP         0.4224
     41 H1'        -0.1998   -1.6319    2.6178 H         1 GTP         0.0745
     42 H8         -0.6610   -3.2324    0.2653 H         1 GTP         0.1522
     43 HN1        -6.7487   -1.0139    0.7961 H         1 GTP         0.3518
     44 HN21       -5.2644    1.5388    2.8044 H         1 GTP         0.4761
     45 HN22       -6.7459    0.9078    2.1265 H         1 GTP         0.4761
     46 H46        -3.1807    0.4690    2.4089 H         1 GTP         0.5030
@<TRIPOS>BOND
     1    1    2 2
     2    1    3 1
     3    1    4 1
     4    1    5 1
     5    4   33 1
     6    5    6 1
     7    6    7 2
     8    6    8 1
     9    6    9 1
    10    9   10 1
    11   10   11 2
    12   10   12 1
    13   10   13 1
    14   13   14 1
    15   14   15 1
    16   14   34 1
    17   14   35 1
    18   15   16 1
    19   15   17 1
    20   15   36 1
    21   16   21 1
    22   17   18 1
    23   17   19 1
    24   17   37 1
    25   18   38 1
    26   19   20 1
    27   19   21 1
    28   19   39 1
    29   20   40 1
    30   21   22 1
    31   21   41 1
    32   22   23 ar
    33   22   32 ar
    34   23   24 ar
    35   23   42 1
    36   24   25 ar
    37   25   26 ar
    38   25   32 ar
    39   26   27 2
    40   26   28 ar
    41   28   29 ar
    42   28   43 1
    43   29   30 1
    44   29   31 ar
    45   30   44 1
    46   30   45 1
    47   31   32 ar
    48   31   46 1
@<TRIPOS>SUBSTRUCTURE
     1 GTP         1 GROUP 0 A     ****
@<TRIPOS>MOLECULE
[[[5-(2-amino-6-oxo-1,3-dihydropurin-2-ylium-9-yl)-3,4-dihydroxy-tetrahydrofuran-2-yl]methoxy-oxido-phosphoryl]oxy-oxido-phosphoryl] hydrogen phosphate
   46    48     1     0     0
SMALL
USER_CHARGES

@<TRIPOS>ATOM
      1 PG         -1.0028    7.5319    0.3914 P.3       1 GTP         1.5400
      2 O1G        -1.8214    8.6901    0.9167 O.co2     1 GTP        -0.8909
      3 O2G        -0.2988    6.5852    1.3378 O.co2     1 GTP        -0.8909
      4 O3G         0.0922    8.1110   -0.6724 O.3       1 GTP        -0.7980
      5 O3B        -1.9166    6.6621   -0.6442 O.3       1 GTP        -0.7612
      6 PB         -3.2454    5.7571   -0.3601 P.3       1 GTP         1.5847
      7 O1B        -4.2720    6.6123    0.3485 O.co2     1 GTP        -0.8859
      8 O2B        -3.5897    4.9800   -1.6111 O.co2     1 GTP        -0.8859
      9 O3A        -2.6104    4.6829    0.6924 O.3       1 GTP        -0.7486
     10 PA         -3.3161    3.4234    1.4576 P.3       1 GTP         1.5001
     11 O1A        -4.3794    3.9564    2.3932 O.co2     1 GTP        -0.8487
     12 O2A        -3.6374    2.3544    0.4359 O.co2     1 GTP        -0.8487
     13 O5'        -2.0401    2.8620    2.3128 O.3       1 GTP        -0.5474
     14 C5'        -0.8811    2.4285    1.6206 C.3       1 GTP         0.2547
     15 C4'        -0.1994    1.3333    2.4288 C.3       1 GTP         0.0926
     16 O4'        -1.1285    0.2356    2.5840 O.3       1 GTP        -0.3593
     17 C3'         1.0324    0.7610    1.7344 C.3       1 GTP         0.0907
     18 O3'         1.9175    0.2377    2.7247 O.3       1 GTP        -0.5209
     19 C2'         0.4468   -0.3802    0.9263 C.3       1 GTP         0.0305
     20 O2'         1.3993   -1.3703    0.5961 O.3       1 GTP        -0.5978
     21 C1'        -0.6159   -0.9100    1.8769 C.3       1 GTP         0.2339
     22 N9         -1.7127   -1.6108    1.2130 N.pl3     1 GTP        -0.1765
     23 C8         -3.0389   -1.2578    1.2391 C.ar      1 GTP         0.4947
     24 N7         -3.7909   -2.0880    0.5425 N.2       1 GTP        -0.5802
     25 C5         -2.9127   -3.0150    0.0458 C.ar      1 GTP         0.2279
     26 C6         -3.2467   -4.1411   -0.7860 C.ar      1 GTP         0.6513
     27 O6         -4.3761   -4.4189   -1.1621 O.2       1 GTP        -0.5111
     28 N1         -2.0748   -4.9191   -1.1296 N.pl3     1 GTP        -0.4713
     29 C2         -0.7595   -4.6181   -0.7058 C.ar      1 GTP         0.5256
     30 N2          0.2985   -5.4268   -1.0920 N.pl3     1 GTP        -0.8665
     31 N3         -0.5304   -3.4919    0.1084 N.pl3     1 GTP        -0.5398
     32 C4         -1.6318   -2.7332    0.4512 C.ar      1 GTP        -0.0275
     33 HOG3        0.7039    7.4773   -1.1043 H         1 GTP         0.4161
     34 H5'        -1.1767    2.0502    0.6368 H         1 GTP         0.0348
     35 H5''       -0.2080    3.2814    1.4876 H         1 GTP         0.0348
     36 H4'         0.0403    1.7078    3.4343 H         1 GTP         0.1215
     37 H3'         1.5907    1.4859    1.1353 H         1 GTP         0.0576
     38 HO3'        2.6839   -0.1150    2.2479 H         1 GTP         0.3842
     39 H2'        -0.0017    0.0018    0.0005 H         1 GTP         0.0252
     40 HO2'        2.0953   -0.9375    0.0709 H         1 GTP         0.4224
     41 H1'        -0.1998   -1.6319    2.6178 H         1 GTP         0.0745
     42 H8         -3.3933   -0.3909    1.7800 H         1 GTP         0.1522
     43 HN1        -2.2071   -5.7408   -1.7178 H         1 GTP         0.3518
     44 HN21        1.1896   -5.1751   -0.7715 H         1 GTP         0.4761
     45 HN22        0.0846   -6.1966   -1.6593 H         1 GTP         0.4761
     46 H46         0.4142   -3.2695    0.4160 H         1 GTP         0.5030
@<TRIPOS>BOND
     1    1    2 2
     2    1    3 1
     3    1    4 1
     4    1    5 1
     5    4   33 1
     6    5    6 1
     7    6    7 2
     8    6    8 1
     9    6    9 1
    10    9   10 1
    11   10   11 2
    12   10   12 1
    13   10   13 1
    14   13   14 1
    15   14   15 1
    16   14   34 1
    17   14   35 1
    18   15   16 1
    19   15   17 1
    20   15   36 1
    21   16   21 1
    22   17   18 1
    23   17   19 1
    24   17   37 1
    25   18   38 1
    26   19   20 1
    27   19   21 1
    28   19   39 1
    29   20   40 1
    30   21   22 1
    31   21   41 1
    32   22   23 ar
    33   22   32 ar
    34   23   24 ar
    35   23   42 1
    36   24   25 ar
    37   25   26 ar
    38   25   32 ar
    39   26   27 2
    40   26   28 ar
    41   28   29 ar
    42   28   43 1
    43   29   30 1
    44   29   31 ar
    45   30   44 1
    46   30   45 1
    47   31   32 ar
    48   31   46 1
@<TRIPOS>SUBSTRUCTURE
     1 GTP         1 GROUP 0 A     ****
@<TRIPOS>MOLECULE
[[[5-(2-amino-6-oxo-1,3-dihydropurin-2-ylium-9-yl)-3,4-dihydroxy-tetrahydrofuran-2-yl]methoxy-oxido-phosphoryl]oxy-oxido-phosphoryl] hydrogen phosphate
   46    48     1     0     0
SMALL
USER_CHARGES

@<TRIPOS>ATOM
      1 PG         -2.5446    4.1848   -2.5264 P.3       1 GTP         1.5400
      2 O1G        -1.0546    4.3368   -2.7368 O.co2     1 GTP        -0.8909
      3 O2G        -3.1505    2.8372   -2.2033 O.co2     1 GTP        -0.8909
      4 O3G        -3.3175    4.8028   -3.8251 O.3       1 GTP        -0.7980
      5 O3B        -3.0364    5.2676   -1.4085 O.3       1 GTP        -0.7612
      6 PB         -2.6935    5.3543    0.1854 P.3       1 GTP         1.5847
      7 O1B        -1.1911    5.3598    0.3585 O.co2     1 GTP        -0.8859
      8 O2B        -3.5676    6.4123    0.8211 O.co2     1 GTP        -0.8859
      9 O3A        -3.2920    3.9119    0.6609 O.3       1 GTP        -0.7486
     10 PA         -3.3347    3.2338    2.1468 P.3       1 GTP         1.5001
     11 O1A        -4.0274    4.1866    3.0968 O.co2     1 GTP        -0.8487
     12 O2A        -3.7889    1.7968    2.0106 O.co2     1 GTP        -0.8487
     13 O5'        -1.7336    3.1724    2.4750 O.3       1 GTP        -0.5474
     14 C5'        -0.8811    2.4285    1.6206 C.3       1 GTP         0.2547
     15 C4'        -0.1994    1.3333    2.4288 C.3       1 GTP         0.0926
     16 O4'        -1.1285    0.2356    2.5840 O.3       1 GTP        -0.3593
     17 C3'         1.0324    0.7610    1.7344 C.3       1 GTP         0.0907
     18 O3'         1.9175    0.2377    2.7247 O.3       1 GTP        -0.5209
     19 C2'         0.4468   -0.3802    0.9263 C.3       1 GTP         0.0305
     20 O2'         1.3993   -1.3703    0.5961 O.3       1 GTP        -0.5978
     21 C1'        -0.6159   -0.9100    1.8769 C.3       1 GTP         0.2339
     22 N9         -1.7127   -1.6108    1.2130 N.pl3     1 GTP        -0.1765
     23 C8         -2.5534   -1.0907    0.2607 C.ar      1 GTP         0.4947
     24 N7         -3.4469   -1.9695   -0.1508 N.2       1 GTP        -0.5802
     25 C5         -3.1705   -3.1041    0.5657 C.ar      1 GTP         0.2279
     26 C6         -3.8738   -4.3568    0.4777 C.ar      1 GTP         0.6513
     27 O6         -4.8240   -4.5720   -0.2607 O.2       1 GTP        -0.5111
     28 N1         -3.3198   -5.3462    1.3780 N.pl3     1 GTP        -0.4713
     29 C2         -2.2226   -5.1203    2.2413 C.ar      1 GTP         0.5256
     30 N2         -1.7649   -6.1367    3.0659 N.pl3     1 GTP        -0.8665
     31 N3         -1.5969   -3.8585    2.2574 N.pl3     1 GTP        -0.5398
     32 C4         -2.1068   -2.8965    1.4082 C.ar      1 GTP        -0.0275
     33 HOG3       -4.2980    4.7787   -3.8401 H         1 GTP         0.4161
     34 H5'        -1.4800    1.9927    0.8146 H         1 GTP         0.0348
     35 H5''       -0.1367    3.1040    1.1872 H         1 GTP         0.0348
     36 H4'         0.0403    1.7078    3.4343 H         1 GTP         0.1215
     37 H3'         1.5907    1.4859    1.1353 H         1 GTP         0.0576
     38 HO3'        2.6839   -0.1150    2.2479 H         1 GTP         0.3842
     39 H2'        -0.0017    0.0018    0.0005 H         1 GTP         0.0252
     40 HO2'        2.0953   -0.9375    0.0709 H         1 GTP         0.4224
     41 H1'        -0.1998   -1.6319    2.6178 H         1 GTP         0.0745
     42 H8         -2.4657   -0.0713   -0.0897 H         1 GTP         0.1522
     43 HN1        -3.7505   -6.2699    1.3904 H         1 GTP         0.3518
     44 HN21       -1.0023   -5.9289    3.6451 H         1 GTP         0.4761
     45 HN22       -2.2347   -6.9951    3.0150 H         1 GTP         0.4761
     46 H46        -0.8062   -3.6900    2.8760 H         1 GTP         0.5030
@<TRIPOS>BOND
     1    1    2 2
     2    1    3 1
     3    1    4 1
     4    1    5 1
     5    4   33 1
     6    5    6 1
     7    6    7 2
     8    6    8 1
     9    6    9 1
    10    9   10 1
    11   10   11 2
    12   10   12 1
    13   10   13 1
    14   13   14 1
    15   14   15 1
    16   14   34 1
    17   14   35 1
    18   15   16 1
    19   15   17 1
    20   15   36 1
    21   16   21 1
    22   17   18 1
    23   17   19 1
    24   17   37 1
    25   18   38 1
    26   19   20 1
    27   19   21 1
    28   19   39 1
    29   20   40 1
    30   21   22 1
    31   21   41 1
    32   22   23 ar
    33   22   32 ar
    34   23   24 ar
    35   23   42 1
    36   24   25 ar
    37   25   26 ar
    38   25   32 ar
    39   26   27 2
    40   26   28 ar
    41   28   29 ar
    42   28   43 1
    43   29   30 1
    44   29   31 ar
    45   30   44 1
    46   30   45 1
    47   31   32 ar
    48   31   46 1
@<TRIPOS>SUBSTRUCTURE
     1 GTP         1 GROUP 0 A     ****
@<TRIPOS>MOLECULE
[[[5-(2-amino-6-oxo-1,3-dihydropurin-2-ylium-9-yl)-3,4-dihydroxy-tetrahydrofuran-2-yl]methoxy-oxido-phosphoryl]oxy-oxido-phosphoryl] hydrogen phosphate
   46    48     1     0     0
SMALL
USER_CHARGES

@<TRIPOS>ATOM
      1 PG         -3.1127    5.4544   -3.5147 P.3       1 GTP         1.5400
      2 O1G        -4.6199    5.4404   -3.3899 O.co2     1 GTP        -0.8909
      3 O2G        -2.3939    6.6397   -4.1197 O.co2     1 GTP        -0.8909
      4 O3G        -2.6452    4.1052   -4.3065 O.3       1 GTP        -0.7980
      5 O3B        -2.4559    5.1251   -2.0573 O.3       1 GTP        -0.7612
      6 PB         -2.4753    6.0007   -0.6794 P.3       1 GTP         1.5847
      7 O1B        -1.6929    7.2755   -0.9040 O.co2     1 GTP        -0.8859
      8 O2B        -3.8838    6.0228   -0.1287 O.co2     1 GTP        -0.8859
      9 O3A        -1.6181    4.9968    0.2809 O.3       1 GTP        -0.7486
     10 PA         -0.0889    4.4444    0.1193 P.3       1 GTP         1.5001
     11 O1A        -0.0111    3.5842   -1.1233 O.co2     1 GTP        -0.8487
     12 O2A         0.8677    5.5971    0.3340 O.co2     1 GTP        -0.8487
     13 O5'         0.0178    3.5131    1.4595 O.3       1 GTP        -0.5474
     14 C5'        -0.8811    2.4285    1.6206 C.3       1 GTP         0.2547
     15 C4'        -0.1994    1.3333    2.4288 C.3       1 GTP         0.0926
     16 O4'        -1.1285    0.2356    2.5840 O.3       1 GTP        -0.3593
     17 C3'         1.0324    0.7610    1.7344 C.3       1 GTP         0.0907
     18 O3'         1.9175    0.2377    2.7247 O.3       1 GTP        -0.5209
     19 C2'         0.4468   -0.3802    0.9263 C.3       1 GTP         0.0305
     20 O2'         1.3993   -1.3703    0.5961 O.3       1 GTP        -0.5978
     21 C1'        -0.6159   -0.9100    1.8769 C.3       1 GTP         0.2339
     22 N9         -1.7127   -1.6108    1.2130 N.pl3     1 GTP        -0.1765
     23 C8         -1.7789   -2.9564    0.9503 C.ar      1 GTP         0.4947
     24 N7         -2.8980   -3.2916    0.3377 N.2       1 GTP        -0.5802
     25 C5         -3.5824   -2.1127    0.2000 C.ar      1 GTP         0.2279
     26 C6         -4.8740   -1.9471   -0.4133 C.ar      1 GTP         0.6513
     27 O6         -5.5366   -2.8529   -0.8978 O.2       1 GTP        -0.5111
     28 N1         -5.3036   -0.5645   -0.3916 N.pl3     1 GTP        -0.4713
     29 C2         -4.5545    0.4997    0.1619 C.ar      1 GTP         0.5256
     30 N2         -5.0561    1.7921    0.1348 N.pl3     1 GTP        -0.8665
     31 N3         -3.2977    0.2393    0.7420 N.pl3     1 GTP        -0.5398
     32 C4         -2.8643   -1.0716    0.7336 C.ar      1 GTP        -0.0275
     33 HOG3       -1.6876    3.9666   -4.4678 H         1 GTP         0.4161
     34 H5'        -1.7771    2.7849    2.1387 H         1 GTP         0.0348
     35 H5''       -1.1654    2.0541    0.6320 H         1 GTP         0.0348
     36 H4'         0.0403    1.7078    3.4343 H         1 GTP         0.1215
     37 H3'         1.5907    1.4859    1.1353 H         1 GTP         0.0576
     38 HO3'        2.6839   -0.1150    2.2479 H         1 GTP         0.3842
     39 H2'        -0.0017    0.0018    0.0005 H         1 GTP         0.0252
     40 HO2'        2.0953   -0.9375    0.0709 H         1 GTP         0.4224
     41 H1'        -0.1998   -1.6319    2.6178 H         1 GTP         0.0745
     42 H8         -0.9852   -3.6367    1.2276 H         1 GTP         0.1522
     43 HN1        -6.2089   -0.3428   -0.8039 H         1 GTP         0.3518
     44 HN21       -4.4981    2.4933    0.5311 H         1 GTP         0.4761
     45 HN22       -5.9352    1.9183   -0.2793 H         1 GTP         0.4761
     46 H46        -2.7541    1.0010    1.1428 H         1 GTP         0.5030
@<TRIPOS>BOND
     1    1    2 2
     2    1    3 1
     3    1    4 1
     4    1    5 1
     5    4   33 1
     6    5    6 1
     7    6    7 2
     8    6    8 1
     9    6    9 1
    10    9   10 1
    11   10   11 2
    12   10   12 1
    13   10   13 1
    14   13   14 1
    15   14   15 1
    16   14   34 1
    17   14   35 1
    18   15   16 1
    19   15   17 1
    20   15   36 1
    21   16   21 1
    22   17   18 1
    23   17   19 1
    24   17   37 1
    25   18   38 1
    26   19   20 1
    27   19   21 1
    28   19   39 1
    29   20   40 1
    30   21   22 1
    31   21   41 1
    32   22   23 ar
    33   22   32 ar
    34   23   24 ar
    35   23   42 1
    36   24   25 ar
    37   25   26 ar
    38   25   32 ar
    39   26   27 2
    40   26   28 ar
    41   28   29 ar
    42   28   43 1
    43   29   30 1
    44   29   31 ar
    45   30   44 1
    46   30   45 1
    47   31   32 ar
    48   31   46 1
@<TRIPOS>SUBSTRUCTURE
     1 GTP         1 GROUP 0 A     ****
@<TRIPOS>MOLECULE
[[[5-(2-amino-6-oxo-1,3-dihydropurin-2-ylium-9-yl)-3,4-dihydroxy-tetrahydrofuran-2-yl]methoxy-oxido-phosphoryl]oxy-oxido-phosphoryl] hydrogen phosphate
   46    48     1     0     0
SMALL
USER_CHARGES

@<TRIPOS>ATOM
      1 PG         -4.3739    8.5418    1.5355 P.3       1 GTP         1.5400
      2 O1G        -3.6360    9.5091    2.4340 O.co2     1 GTP        -0.8909
      3 O2G        -4.7266    8.9166    0.1133 O.co2     1 GTP        -0.8909
      4 O3G        -5.7354    8.0613    2.2979 O.3       1 GTP        -0.7980
      5 O3B        -3.5805    7.1155    1.5253 O.3       1 GTP        -0.7612
      6 PB         -2.1077    6.7422    0.9279 P.3       1 GTP         1.5847
      7 O1B        -2.1409    6.8980   -0.5762 O.co2     1 GTP        -0.8859
      8 O2B        -1.0481    7.4165    1.7705 O.co2     1 GTP        -0.8859
      9 O3A        -2.0640    5.1559    1.3109 O.3       1 GTP        -0.7486
     10 PA         -2.1561    4.4278    2.7707 P.3       1 GTP         1.5001
     11 O1A        -0.9467    4.8245    3.5894 O.co2     1 GTP        -0.8487
     12 O2A        -3.5584    4.6024    3.3116 O.co2     1 GTP        -0.8487
     13 O5'        -2.0401    2.8620    2.3128 O.3       1 GTP        -0.5474
     14 C5'        -0.8811    2.4285    1.6206 C.3       1 GTP         0.2547
     15 C4'        -0.1994    1.3333    2.4288 C.3       1 GTP         0.0926
     16 O4'        -1.1285    0.2356    2.5840 O.3       1 GTP        -0.3593
     17 C3'         1.0324    0.7610    1.7344 C.3       1 GTP         0.0907
     18 O3'         1.9175    0.2377    2.7247 O.3       1 GTP        -0.5209
     19 C2'         0.4468   -0.3802    0.9263 C.3       1 GTP         0.0305
     20 O2'         1.3993   -1.3703    0.5961 O.3       1 GTP        -0.5978
     21 C1'        -0.6159   -0.9100    1.8769 C.3       1 GTP         0.2339
     22 N9         -1.7127   -1.6108    1.2130 N.pl3     1 GTP        -0.1765
     23 C8         -2.5534   -1.0907    0.2607 C.ar      1 GTP         0.4947
     24 N7         -3.4469   -1.9695   -0.1508 N.2       1 GTP        -0.5802
     25 C5         -3.1705   -3.1041    0.5657 C.ar      1 GTP         0.2279
     26 C6         -3.8738   -4.3568    0.4777 C.ar      1 GTP         0.6513
     27 O6         -4.8240   -4.5720   -0.2607 O.2       1 GTP        -0.5111
     28 N1         -3.3198   -5.3462    1.3780 N.pl3     1 GTP        -0.4713
     29 C2         -2.2226   -5.1203    2.2413 C.ar      1 GTP         0.5256
     30 N2         -1.7649   -6.1367    3.0659 N.pl3     1 GTP        -0.8665
     31 N3         -1.5969   -3.8585    2.2574 N.pl3     1 GTP        -0.5398
     32 C4         -2.1068   -2.8965    1.4082 C.ar      1 GTP        -0.0275
     33 HOG3       -6.3276    7.4270    1.8405 H         1 GTP         0.4161
     34 H5'        -1.1767    2.0502    0.6368 H         1 GTP         0.0348
     35 H5''       -0.2080    3.2814    1.4876 H         1 GTP         0.0348
     36 H4'         0.0403    1.7078    3.4343 H         1 GTP         0.1215
     37 H3'         1.5907    1.4859    1.1353 H         1 GTP         0.0576
     38 HO3'        2.6839   -0.1150    2.2479 H         1 GTP         0.3842
     39 H2'        -0.0017    0.0018    0.0005 H         1 GTP         0.0252
     40 HO2'        2.0953   -0.9375    0.0709 H         1 GTP         0.4224
     41 H1'        -0.1998   -1.6319    2.6178 H         1 GTP         0.0745
     42 H8         -2.4657   -0.0713   -0.0897 H         1 GTP         0.1522
     43 HN1        -3.7505   -6.2699    1.3904 H         1 GTP         0.3518
     44 HN21       -1.0023   -5.9289    3.6451 H         1 GTP         0.4761
     45 HN22       -2.2347   -6.9951    3.0150 H         1 GTP         0.4761
     46 H46        -0.8062   -3.6900    2.8760 H         1 GTP         0.5030
@<TRIPOS>BOND
     1    1    2 2
     2    1    3 1
     3    1    4 1
     4    1    5 1
     5    4   33 1
     6    5    6 1
     7    6    7 2
     8    6    8 1
     9    6    9 1
    10    9   10 1
    11   10   11 2
    12   10   12 1
    13   10   13 1
    14   13   14 1
    15   14   15 1
    16   14   34 1
    17   14   35 1
    18   15   16 1
    19   15   17 1
    20   15   36 1
    21   16   21 1
    22   17   18 1
    23   17   19 1
    24   17   37 1
    25   18   38 1
    26   19   20 1
    27   19   21 1
    28   19   39 1
    29   20   40 1
    30   21   22 1
    31   21   41 1
    32   22   23 ar
    33   22   32 ar
    34   23   24 ar
    35   23   42 1
    36   24   25 ar
    37   25   26 ar
    38   25   32 ar
    39   26   27 2
    40   26   28 ar
    41   28   29 ar
    42   28   43 1
    43   29   30 1
    44   29   31 ar
    45   30   44 1
    46   30   45 1
    47   31   32 ar
    48   31   46 1
@<TRIPOS>SUBSTRUCTURE
     1 GTP         1 GROUP 0 A     ****
@<TRIPOS>MOLECULE
[[[5-(2-amino-6-oxo-1,3-dihydropurin-2-ylium-9-yl)-3,4-dihydroxy-tetrahydrofuran-2-yl]methoxy-oxido-phosphoryl]oxy-oxido-phosphoryl] hydrogen phosphate
   46    48     1     0     0
SMALL
USER_CHARGES

@<TRIPOS>ATOM
      1 PG         -5.0553    5.0766   -2.3883 P.3       1 GTP         1.5400
      2 O1G        -6.2293    5.8944   -1.8982 O.co2     1 GTP        -0.8909
      3 O2G        -4.2574    5.5095   -3.5981 O.co2     1 GTP        -0.8909
      4 O3G        -5.5545    3.5393   -2.6195 O.3       1 GTP        -0.7980
      5 O3B        -4.0312    4.8187   -1.1439 O.3       1 GTP        -0.7612
      6 PB         -3.1074    5.8778   -0.3129 P.3       1 GTP         1.5847
      7 O1B        -2.0595    6.4430   -1.2456 O.co2     1 GTP        -0.8859
      8 O2B        -4.0048    6.7771    0.5077 O.co2     1 GTP        -0.8859
      9 O3A        -2.4032    4.8441    0.7361 O.3       1 GTP        -0.7486
     10 PA         -3.0798    3.8627    1.8536 P.3       1 GTP         1.5001
     11 O1A        -3.7618    4.7157    2.9012 O.co2     1 GTP        -0.8487
     12 O2A        -3.8250    2.7565    1.1390 O.co2     1 GTP        -0.8487
     13 O5'        -1.7336    3.1724    2.4750 O.3       1 GTP        -0.5474
     14 C5'        -0.8811    2.4285    1.6206 C.3       1 GTP         0.2547
     15 C4'        -0.1994    1.3333    2.4288 C.3       1 GTP         0.0926
     16 O4'        -1.1285    0.2356    2.5840 O.3       1 GTP        -0.3593
     17 C3'         1.0324    0.7610    1.7344 C.3       1 GTP         0.0907
     18 O3'         1.9175    0.2377    2.7247 O.3       1 GTP        -0.5209
     19 C2'         0.4468   -0.3802    0.9263 C.3       1 GTP         0.0305
     20 O2'         1.3993   -1.3703    0.5961 O.3       1 GTP        -0.5978
     21 C1'        -0.6159   -0.9100    1.8769 C.3       1 GTP         0.2339
     22 N9         -1.7127   -1.6108    1.2130 N.pl3     1 GTP        -0.1765
     23 C8         -2.5534   -1.0907    0.2607 C.ar      1 GTP         0.4947
     24 N7         -3.4469   -1.9695   -0.1508 N.2       1 GTP        -0.5802
     25 C5         -3.1705   -3.1041    0.5657 C.ar      1 GTP         0.2279
     26 C6         -3.8738   -4.3568    0.4777 C.ar      1 GTP         0.6513
     27 O6         -4.8240   -4.5720   -0.2607 O.2       1 GTP        -0.5111
     28 N1         -3.3198   -5.3462    1.3780 N.pl3     1 GTP        -0.4713
     29 C2         -2.2226   -5.1203    2.2413 C.ar      1 GTP         0.5256
     30 N2         -1.7649   -6.1367    3.0659 N.pl3     1 GTP        -0.8665
     31 N3         -1.5969   -3.8585    2.2574 N.pl3     1 GTP        -0.5398
     32 C4         -2.1068   -2.8965    1.4082 C.ar      1 GTP        -0.0275
     33 HOG3       -4.9026    2.8798   -2.9396 H         1 GTP         0.4161
     34 H5'        -1.4800    1.9927    0.8146 H         1 GTP         0.0348
     35 H5''       -0.1367    3.1040    1.1872 H         1 GTP         0.0348
     36 H4'         0.0403    1.7078    3.4343 H         1 GTP         0.1215
     37 H3'         1.5907    1.4859    1.1353 H         1 GTP         0.0576
     38 HO3'        2.6839   -0.1150    2.2479 H         1 GTP         0.3842
     39 H2'        -0.0017    0.0018    0.0005 H         1 GTP         0.0252
     40 HO2'        0.9369   -2.0558    0.0825 H         1 GTP         0.4224
     41 H1'        -0.1998   -1.6319    2.6178 H         1 GTP         0.0745
     42 H8         -2.4657   -0.0713   -0.0897 H         1 GTP         0.1522
     43 HN1        -3.7505   -6.2699    1.3904 H         1 GTP         0.3518
     44 HN21       -1.0023   -5.9289    3.6451 H         1 GTP         0.4761
     45 HN22       -2.2347   -6.9951    3.0150 H         1 GTP         0.4761
     46 H46        -0.8062   -3.6900    2.8760 H         1 GTP         0.5030
@<TRIPOS>BOND
     1    1    2 2
     2    1    3 1
     3    1    4 1
     4    1    5 1
     5    4   33 1
     6    5    6 1
     7    6    7 2
     8    6    8 1
     9    6    9 1
    10    9   10 1
    11   10   11 2
    12   10   12 1
    13   10   13 1
    14   13   14 1
    15   14   15 1
    16   14   34 1
    17   14   35 1
    18   15   16 1
    19   15   17 1
    20   15   36 1
    21   16   21 1
    22   17   18 1
    23   17   19 1
    24   17   37 1
    25   18   38 1
    26   19   20 1
    27   19   21 1
    28   19   39 1
    29   20   40 1
    30   21   22 1
    31   21   41 1
    32   22   23 ar
    33   22   32 ar
    34   23   24 ar
    35   23   42 1
    36   24   25 ar
    37   25   26 ar
    38   25   32 ar
    39   26   27 2
    40   26   28 ar
    41   28   29 ar
    42   28   43 1
    43   29   30 1
    44   29   31 ar
    45   30   44 1
    46   30   45 1
    47   31   32 ar
    48   31   46 1
@<TRIPOS>SUBSTRUCTURE
     1 GTP         1 GROUP 0 A     ****
@<TRIPOS>MOLECULE
[[[5-(2-amino-6-oxo-1,3-dihydropurin-2-ylium-9-yl)-3,4-dihydroxy-tetrahydrofuran-2-yl]methoxy-oxido-phosphoryl]oxy-oxido-phosphoryl] hydrogen phosphate
   46    48     1     0     0
SMALL
USER_CHARGES

@<TRIPOS>ATOM
      1 PG         -1.9218    8.2509   -0.7296 P.3       1 GTP         1.5400
      2 O1G        -0.7538    8.9005   -0.0218 O.co2     1 GTP        -0.8909
      3 O2G        -1.9830    8.1970   -2.2400 O.co2     1 GTP        -0.8909
      4 O3G        -3.3027    8.9258   -0.1786 O.3       1 GTP        -0.7980
      5 O3B        -2.1304    6.7443   -0.1377 O.3       1 GTP        -0.7612
      6 PB         -3.3194    5.6630   -0.4251 P.3       1 GTP         1.5847
      7 O1B        -4.6176    6.2127    0.1226 O.co2     1 GTP        -0.8859
      8 O2B        -3.2064    5.1730   -1.8516 O.co2     1 GTP        -0.8859
      9 O3A        -2.7994    4.4428    0.5264 O.3       1 GTP        -0.7486
     10 PA         -2.5400    4.4095    2.1393 P.3       1 GTP         1.5001
     11 O1A        -1.4132    5.3638    2.4707 O.co2     1 GTP        -0.8487
     12 O2A        -3.8748    4.4994    2.8464 O.co2     1 GTP        -0.8487
     13 O5'        -2.0401    2.8620    2.3128 O.3       1 GTP        -0.5474
     14 C5'        -0.8811    2.4285    1.6206 C.3       1 GTP         0.2547
     15 C4'        -0.1994    1.3333    2.4288 C.3       1 GTP         0.0926
     16 O4'        -1.1285    0.2356    2.5840 O.3       1 GTP        -0.3593
     17 C3'         1.0324    0.7610    1.7344 C.3       1 GTP         0.0907
     18 O3'         1.9175    0.2377    2.7247 O.3       1 GTP        -0.5209
     19 C2'         0.4468   -0.3802    0.9263 C.3       1 GTP         0.0305
     20 O2'         1.3993   -1.3703    0.5961 O.3       1 GTP        -0.5978
     21 C1'        -0.6159   -0.9100    1.8769 C.3       1 GTP         0.2339
     22 N9         -1.7127   -1.6108    1.2130 N.pl3     1 GTP        -0.1765
     23 C8         -1.6092   -2.7449    0.4467 C.ar      1 GTP         0.4947
     24 N7         -2.7778   -3.1416   -0.0191 N.2       1 GTP        -0.5802
     25 C5         -3.6725   -2.2253    0.4675 C.ar      1 GTP         0.2279
     26 C6         -5.0932   -2.2202    0.2371 C.ar      1 GTP         0.6513
     27 O6         -5.6933   -3.0474   -0.4337 O.2       1 GTP        -0.5111
     28 N1         -5.7390   -1.1061    0.8992 N.pl3     1 GTP        -0.4713
     29 C2         -5.0661   -0.1368    1.6789 C.ar      1 GTP         0.5256
     30 N2         -5.7774    0.8934    2.2749 N.pl3     1 GTP        -0.8665
     31 N3         -3.6705   -0.2251    1.8481 N.pl3     1 GTP        -0.5398
     32 C4         -3.0303   -1.2785    1.2262 C.ar      1 GTP        -0.0275
     33 HOG3       -4.1558    8.6086   -0.5444 H         1 GTP         0.4161
     34 H5'        -1.1767    2.0502    0.6368 H         1 GTP         0.0348
     35 H5''       -0.2080    3.2814    1.4876 H         1 GTP         0.0348
     36 H4'         0.0403    1.7078    3.4343 H         1 GTP         0.1215
     37 H3'         1.5907    1.4859    1.1353 H         1 GTP         0.0576
     38 HO3'        2.6839   -0.1150    2.2479 H         1 GTP         0.3842
     39 H2'        -0.0017    0.0018    0.0005 H         1 GTP         0.0252
     40 HO2'        2.0953   -0.9375    0.0709 H         1 GTP         0.4224
     41 H1'        -0.1998   -1.6319    2.6178 H         1 GTP         0.0745
     42 H8         -0.6610   -3.2324    0.2653 H         1 GTP         0.1522
     43 HN1        -6.7487   -1.0139    0.7961 H         1 GTP         0.3518
     44 HN21       -5.2644    1.5388    2.8044 H         1 GTP         0.4761
     45 HN22       -6.7459    0.9078    2.1265 H         1 GTP         0.4761
     46 H46        -3.1807    0.4690    2.4089 H         1 GTP         0.5030
@<TRIPOS>BOND
     1    1    2 2
     2    1    3 1
     3    1    4 1
     4    1    5 1
     5    4   33 1
     6    5    6 1
     7    6    7 2
     8    6    8 1
     9    6    9 1
    10    9   10 1
    11   10   11 2
    12   10   12 1
    13   10   13 1
    14   13   14 1
    15   14   15 1
    16   14   34 1
    17   14   35 1
    18   15   16 1
    19   15   17 1
    20   15   36 1
    21   16   21 1
    22   17   18 1
    23   17   19 1
    24   17   37 1
    25   18   38 1
    26   19   20 1
    27   19   21 1
    28   19   39 1
    29   20   40 1
    30   21   22 1
    31   21   41 1
    32   22   23 ar
    33   22   32 ar
    34   23   24 ar
    35   23   42 1
    36   24   25 ar
    37   25   26 ar
    38   25   32 ar
    39   26   27 2
    40   26   28 ar
    41   28   29 ar
    42   28   43 1
    43   29   30 1
    44   29   31 ar
    45   30   44 1
    46   30   45 1
    47   31   32 ar
    48   31   46 1
@<TRIPOS>SUBSTRUCTURE
     1 GTP         1 GROUP 0 A     ****
@<TRIPOS>MOLECULE
[[[5-(2-amino-6-oxo-1,3-dihydropurin-2-ylium-9-yl)-3,4-dihydroxy-tetrahydrofuran-2-yl]methoxy-oxido-phosphoryl]oxy-oxido-phosphoryl] hydrogen phosphate
   46    48     1     0     0
SMALL
USER_CHARGES

@<TRIPOS>ATOM
      1 PG         -0.9985    5.4638   -2.0973 P.3       1 GTP         1.5400
      2 O1G         0.2487    5.6467   -1.2617 O.co2     1 GTP        -0.8909
      3 O2G        -1.2792    4.1532   -2.7983 O.co2     1 GTP        -0.8909
      4 O3G        -1.0650    6.6661   -3.2000 O.3       1 GTP        -0.7980
      5 O3B        -2.3012    5.8757   -1.2045 O.3       1 GTP        -0.7612
      6 PB         -2.9315    5.1575    0.1193 P.3       1 GTP         1.5847
      7 O1B        -4.0596    6.0162    0.6461 O.co2     1 GTP        -0.8859
      8 O2B        -3.1234    3.6841   -0.1631 O.co2     1 GTP        -0.8859
      9 O3A        -1.6454    5.2741    1.1179 O.3       1 GTP        -0.7486
     10 PA         -1.4709    4.7755    2.6641 P.3       1 GTP         1.5001
     11 O1A        -0.0423    5.0242    3.0972 O.co2     1 GTP        -0.8487
     12 O2A        -2.6365    5.2974    3.4757 O.co2     1 GTP        -0.8487
     13 O5'        -1.7336    3.1724    2.4750 O.3       1 GTP        -0.5474
     14 C5'        -0.8811    2.4285    1.6206 C.3       1 GTP         0.2547
     15 C4'        -0.1994    1.3333    2.4288 C.3       1 GTP         0.0926
     16 O4'        -1.1285    0.2356    2.5840 O.3       1 GTP        -0.3593
     17 C3'         1.0324    0.7610    1.7344 C.3       1 GTP         0.0907
     18 O3'         1.9175    0.2377    2.7247 O.3       1 GTP        -0.5209
     19 C2'         0.4468   -0.3802    0.9263 C.3       1 GTP         0.0305
     20 O2'         1.3993   -1.3703    0.5961 O.3       1 GTP        -0.5978
     21 C1'        -0.6159   -0.9100    1.8769 C.3       1 GTP         0.2339
     22 N9         -1.7127   -1.6108    1.2130 N.pl3     1 GTP        -0.1765
     23 C8         -2.8692   -1.0463    0.7355 C.ar      1 GTP         0.4947
     24 N7         -3.6707   -1.9381    0.1856 N.2       1 GTP        -0.5802
     25 C5         -3.0027   -3.1275    0.3134 C.ar      1 GTP         0.2279
     26 C6         -3.4659   -4.4142   -0.1355 C.ar      1 GTP         0.6513
     27 O6         -4.5328   -4.6133   -0.6980 O.2       1 GTP        -0.5111
     28 N1         -2.5102   -5.4606    0.1612 N.pl3     1 GTP        -0.4713
     29 C2         -1.2711   -5.2547    0.8113 C.ar      1 GTP         0.5256
     30 N2         -0.4228   -6.3256    1.0482 N.pl3     1 GTP        -0.8665
     31 N3         -0.9033   -3.9563    1.2146 N.pl3     1 GTP        -0.5398
     32 C4         -1.7979   -2.9400    0.9438 C.ar      1 GTP        -0.0275
     33 HOG3       -1.8226    6.6871   -3.8228 H         1 GTP         0.4161
     34 H5'        -1.4800    1.9927    0.8146 H         1 GTP         0.0348
     35 H5''       -0.1367    3.1040    1.1872 H         1 GTP         0.0348
     36 H4'         0.0403    1.7078    3.4343 H         1 GTP         0.1215
     37 H3'         1.5907    1.4859    1.1353 H         1 GTP         0.0576
     38 HO3'        2.1521    0.9800    3.3017 H         1 GTP         0.3842
     39 H2'        -0.0017    0.0018    0.0005 H         1 GTP         0.0252
     40 HO2'        0.9369   -2.0558    0.0825 H         1 GTP         0.4224
     41 H1'        -0.1998   -1.6319    2.6178 H         1 GTP         0.0745
     42 H8         -3.0691    0.0134    0.8177 H         1 GTP         0.1522
     43 HN1        -2.7468   -6.4119   -0.1177 H         1 GTP         0.3518
     44 HN21        0.4233   -6.1297    1.5018 H         1 GTP         0.4761
     45 HN22       -0.7261   -7.2071    0.7466 H         1 GTP         0.4761
     46 H46        -0.0124   -3.8015    1.6821 H         1 GTP         0.5030
@<TRIPOS>BOND
     1    1    2 2
     2    1    3 1
     3    1    4 1
     4    1    5 1
     5    4   33 1
     6    5    6 1
     7    6    7 2
     8    6    8 1
     9    6    9 1
    10    9   10 1
    11   10   11 2
    12   10   12 1
    13   10   13 1
    14   13   14 1
    15   14   15 1
    16   14   34 1
    17   14   35 1
    18   15   16 1
    19   15   17 1
    20   15   36 1
    21   16   21 1
    22   17   18 1
    23   17   19 1
    24   17   37 1
    25   18   38 1
    26   19   20 1
    27   19   21 1
    28   19   39 1
    29   20   40 1
    30   21   22 1
    31   21   41 1
    32   22   23 ar
    33   22   32 ar
    34   23   24 ar
    35   23   42 1
    36   24   25 ar
    37   25   26 ar
    38   25   32 ar
    39   26   27 2
    40   26   28 ar
    41   28   29 ar
    42   28   43 1
    43   29   30 1
    44   29   31 ar
    45   30   44 1
    46   30   45 1
    47   31   32 ar
    48   31   46 1
@<TRIPOS>SUBSTRUCTURE
     1 GTP         1 GROUP 0 A     ****
@<TRIPOS>MOLECULE
[[[5-(2-amino-6-oxo-1,3-dihydropurin-2-ylium-9-yl)-3,4-dihydroxy-tetrahydrofuran-2-yl]methoxy-oxido-phosphoryl]oxy-oxido-phosphoryl] hydrogen phosphate
   46    48     1     0     0
SMALL
USER_CHARGES

@<TRIPOS>ATOM
      1 PG         -4.8248    4.7196    0.1213 P.3       1 GTP         1.5400
      2 O1G        -4.9186    3.4446   -0.6868 O.co2     1 GTP        -0.8909
      3 O2G        -4.7382    4.6784    1.6308 O.co2     1 GTP        -0.8909
      4 O3G        -6.0656    5.6935   -0.3005 O.3       1 GTP        -0.7980
      5 O3B        -3.5945    5.6242   -0.4546 O.3       1 GTP        -0.7612
      6 PB         -1.9867    5.3413   -0.4285 P.3       1 GTP         1.5847
      7 O1B        -1.7223    3.9887   -1.0514 O.co2     1 GTP        -0.8859
      8 O2B        -1.2597    6.5831   -0.8941 O.co2     1 GTP        -0.8859
      9 O3A        -1.7628    5.2512    1.1860 O.3       1 GTP        -0.7486
     10 PA         -0.3962    4.9846    2.0409 P.3       1 GTP         1.5001
     11 O1A         0.6371    6.0152    1.6404 O.co2     1 GTP        -0.8487
     12 O2A        -0.7667    4.7715    3.4925 O.co2     1 GTP        -0.8487
     13 O5'         0.0178    3.5131    1.4595 O.3       1 GTP        -0.5474
     14 C5'        -0.8811    2.4285    1.6206 C.3       1 GTP         0.2547
     15 C4'        -0.1994    1.3333    2.4288 C.3       1 GTP         0.0926
     16 O4'        -1.1285    0.2356    2.5840 O.3       1 GTP        -0.3593
     17 C3'         1.0324    0.7610    1.7344 C.3       1 GTP         0.0907
     18 O3'         1.9175    0.2377    2.7247 O.3       1 GTP        -0.5209
     19 C2'         0.4468   -0.3802    0.9263 C.3       1 GTP         0.0305
     20 O2'         1.3993   -1.3703    0.5961 O.3       1 GTP        -0.5978
     21 C1'        -0.6159   -0.9100    1.8769 C.3       1 GTP         0.2339
     22 N9         -1.7127   -1.6108    1.2130 N.pl3     1 GTP        -0.1765
     23 C8         -2.8692   -1.0463    0.7355 C.ar      1 GTP         0.4947
     24 N7         -3.6707   -1.9381    0.1856 N.2       1 GTP        -0.5802
     25 C5         -3.0027   -3.1275    0.3134 C.ar      1 GTP         0.2279
     26 C6         -3.4659   -4.4142   -0.1355 C.ar      1 GTP         0.6513
     27 O6         -4.5328   -4.6133   -0.6980 O.2       1 GTP        -0.5111
     28 N1         -2.5102   -5.4606    0.1612 N.pl3     1 GTP        -0.4713
     29 C2         -1.2711   -5.2547    0.8113 C.ar      1 GTP         0.5256
     30 N2         -0.4228   -6.3256    1.0482 N.pl3     1 GTP        -0.8665
     31 N3         -0.9033   -3.9563    1.2146 N.pl3     1 GTP        -0.5398
     32 C4         -1.7979   -2.9400    0.9438 C.ar      1 GTP        -0.0275
     33 HOG3       -6.1443    6.5666    0.1398 H         1 GTP         0.4161
     34 H5'        -1.7771    2.7849    2.1387 H         1 GTP         0.0348
     35 H5''       -1.1654    2.0541    0.6320 H         1 GTP         0.0348
     36 H4'         0.0403    1.7078    3.4343 H         1 GTP         0.1215
     37 H3'         1.5907    1.4859    1.1353 H         1 GTP         0.0576
     38 HO3'        2.6839   -0.1150    2.2479 H         1 GTP         0.3842
     39 H2'        -0.0017    0.0018    0.0005 H         1 GTP         0.0252
     40 HO2'        0.9369   -2.0558    0.0825 H         1 GTP         0.4224
     41 H1'        -0.1998   -1.6319    2.6178 H         1 GTP         0.0745
     42 H8         -3.0691    0.0134    0.8177 H         1 GTP         0.1522
     43 HN1        -2.7468   -6.4119   -0.1177 H         1 GTP         0.3518
     44 HN21        0.4233   -6.1297    1.5018 H         1 GTP         0.4761
     45 HN22       -0.7261   -7.2071    0.7466 H         1 GTP         0.4761
     46 H46        -0.0124   -3.8015    1.6821 H         1 GTP         0.5030
@<TRIPOS>BOND
     1    1    2 2
     2    1    3 1
     3    1    4 1
     4    1    5 1
     5    4   33 1
     6    5    6 1
     7    6    7 2
     8    6    8 1
     9    6    9 1
    10    9   10 1
    11   10   11 2
    12   10   12 1
    13   10   13 1
    14   13   14 1
    15   14   15 1
    16   14   34 1
    17   14   35 1
    18   15   16 1
    19   15   17 1
    20   15   36 1
    21   16   21 1
    22   17   18 1
    23   17   19 1
    24   17   37 1
    25   18   38 1
    26   19   20 1
    27   19   21 1
    28   19   39 1
    29   20   40 1
    30   21   22 1
    31   21   41 1
    32   22   23 ar
    33   22   32 ar
    34   23   24 ar
    35   23   42 1
    36   24   25 ar
    37   25   26 ar
    38   25   32 ar
    39   26   27 2
    40   26   28 ar
    41   28   29 ar
    42   28   43 1
    43   29   30 1
    44   29   31 ar
    45   30   44 1
    46   30   45 1
    47   31   32 ar
    48   31   46 1
@<TRIPOS>SUBSTRUCTURE
     1 GTP         1 GROUP 0 A     ****
@<TRIPOS>MOLECULE
[[[5-(2-amino-6-oxo-1,3-dihydropurin-2-ylium-9-yl)-3,4-dihydroxy-tetrahydrofuran-2-yl]methoxy-oxido-phosphoryl]oxy-oxido-phosphoryl] hydrogen phosphate
   46    48     1     0     0
SMALL
USER_CHARGES

@<TRIPOS>ATOM
      1 PG         -2.1807    4.1815   -3.1552 P.3       1 GTP         1.5400
      2 O1G        -1.5301    5.1762   -4.0904 O.co2     1 GTP        -0.8909
      3 O2G        -1.3716    3.0806   -2.5063 O.co2     1 GTP        -0.8909
      4 O3G        -3.4546    3.5058   -3.9213 O.3       1 GTP        -0.7980
      5 O3B        -2.9928    4.9945   -1.9963 O.3       1 GTP        -0.7612
      6 PB         -2.4285    5.9448   -0.7946 P.3       1 GTP         1.5847
      7 O1B        -1.5498    7.0182   -1.3974 O.co2     1 GTP        -0.8859
      8 O2B        -3.5673    6.2865    0.1402 O.co2     1 GTP        -0.8859
      9 O3A        -1.4987    4.8543   -0.0129 O.3       1 GTP        -0.7486
     10 PA         -0.5790    5.0299    1.3261 P.3       1 GTP         1.5001
     11 O1A         0.5370    6.0068    1.0251 O.co2     1 GTP        -0.8487
     12 O2A        -1.4908    5.2267    2.5176 O.co2     1 GTP        -0.8487
     13 O5'         0.0178    3.5131    1.4595 O.3       1 GTP        -0.5474
     14 C5'        -0.8811    2.4285    1.6206 C.3       1 GTP         0.2547
     15 C4'        -0.1994    1.3333    2.4288 C.3       1 GTP         0.0926
     16 O4'        -1.1285    0.2356    2.5840 O.3       1 GTP        -0.3593
     17 C3'         1.0324    0.7610    1.7344 C.3       1 GTP         0.0907
     18 O3'         1.9175    0.2377    2.7247 O.3       1 GTP        -0.5209
     19 C2'         0.4468   -0.3802    0.9263 C.3       1 GTP         0.0305
     20 O2'         1.3993   -1.3703    0.5961 O.3       1 GTP        -0.5978
     21 C1'        -0.6159   -0.9100    1.8769 C.3       1 GTP         0.2339
     22 N9         -1.7127   -1.6108    1.2130 N.pl3     1 GTP        -0.1765
     23 C8         -2.5534   -1.0907    0.2607 C.ar      1 GTP         0.4947
     24 N7         -3.4469   -1.9695   -0.1508 N.2       1 GTP        -0.5802
     25 C5         -3.1705   -3.1041    0.5657 C.ar      1 GTP         0.2279
     26 C6         -3.8738   -4.3568    0.4777 C.ar      1 GTP         0.6513
     27 O6         -4.8240   -4.5720   -0.2607 O.2       1 GTP        -0.5111
     28 N1         -3.3198   -5.3462    1.3780 N.pl3     1 GTP        -0.4713
     29 C2         -2.2226   -5.1203    2.2413 C.ar      1 GTP         0.5256
     30 N2         -1.7649   -6.1367    3.0659 N.pl3     1 GTP        -0.8665
     31 N3         -1.5969   -3.8585    2.2574 N.pl3     1 GTP        -0.5398
     32 C4         -2.1068   -2.8965    1.4082 C.ar      1 GTP        -0.0275
     33 HOG3       -3.9847    2.8338   -3.4421 H         1 GTP         0.4161
     34 H5'        -1.7771    2.7849    2.1387 H         1 GTP         0.0348
     35 H5''       -1.1654    2.0541    0.6320 H         1 GTP         0.0348
     36 H4'         0.0403    1.7078    3.4343 H         1 GTP         0.1215
     37 H3'         1.5907    1.4859    1.1353 H         1 GTP         0.0576
     38 HO3'        2.6839   -0.1150    2.2479 H         1 GTP         0.3842
     39 H2'        -0.0017    0.0018    0.0005 H         1 GTP         0.0252
     40 HO2'        2.0953   -0.9375    0.0709 H         1 GTP         0.4224
     41 H1'        -0.1998   -1.6319    2.6178 H         1 GTP         0.0745
     42 H8         -2.4657   -0.0713   -0.0897 H         1 GTP         0.1522
     43 HN1        -3.7505   -6.2699    1.3904 H         1 GTP         0.3518
     44 HN21       -1.0023   -5.9289    3.6451 H         1 GTP         0.4761
     45 HN22       -2.2347   -6.9951    3.0150 H         1 GTP         0.4761
     46 H46        -0.8062   -3.6900    2.8760 H         1 GTP         0.5030
@<TRIPOS>BOND
     1    1    2 2
     2    1    3 1
     3    1    4 1
     4    1    5 1
     5    4   33 1
     6    5    6 1
     7    6    7 2
     8    6    8 1
     9    6    9 1
    10    9   10 1
    11   10   11 2
    12   10   12 1
    13   10   13 1
    14   13   14 1
    15   14   15 1
    16   14   34 1
    17   14   35 1
    18   15   16 1
    19   15   17 1
    20   15   36 1
    21   16   21 1
    22   17   18 1
    23   17   19 1
    24   17   37 1
    25   18   38 1
    26   19   20 1
    27   19   21 1
    28   19   39 1
    29   20   40 1
    30   21   22 1
    31   21   41 1
    32   22   23 ar
    33   22   32 ar
    34   23   24 ar
    35   23   42 1
    36   24   25 ar
    37   25   26 ar
    38   25   32 ar
    39   26   27 2
    40   26   28 ar
    41   28   29 ar
    42   28   43 1
    43   29   30 1
    44   29   31 ar
    45   30   44 1
    46   30   45 1
    47   31   32 ar
    48   31   46 1
@<TRIPOS>SUBSTRUCTURE
     1 GTP         1 GROUP 0 A     ****
@<TRIPOS>MOLECULE
[[[5-(2-amino-6-oxo-1,3-dihydropurin-2-ylium-9-yl)-3,4-dihydroxy-tetrahydrofuran-2-yl]methoxy-oxido-phosphoryl]oxy-oxido-phosphoryl] hydrogen phosphate
   46    48     1     0     0
SMALL
USER_CHARGES

@<TRIPOS>ATOM
      1 PG         -1.2185    4.6612    7.6780 P.3       1 GTP         1.5400
      2 O1G        -0.1431    5.5381    8.2798 O.co2     1 GTP        -0.8909
      3 O2G        -2.6834    4.9816    7.8754 O.co2     1 GTP        -0.8909
      4 O3G        -0.9564    3.1206    8.1512 O.3       1 GTP        -0.7980
      5 O3B        -0.9265    4.4821    6.0822 O.3       1 GTP        -0.7612
      6 PB         -0.9772    5.5850    4.8794 P.3       1 GTP         1.5847
      7 O1B        -2.4052    6.0541    4.7117 O.co2     1 GTP        -0.8859
      8 O2B         0.1618    6.5637    5.0593 O.co2     1 GTP        -0.8859
      9 O3A        -0.5682    4.6235    3.6252 O.3       1 GTP        -0.7486
     10 PA         -0.3962    4.9846    2.0409 P.3       1 GTP         1.5001
     11 O1A        -1.7409    5.4059    1.4892 O.co2     1 GTP        -0.8487
     12 O2A         0.8270    5.8595    1.8736 O.co2     1 GTP        -0.8487
     13 O5'         0.0178    3.5131    1.4595 O.3       1 GTP        -0.5474
     14 C5'        -0.8811    2.4285    1.6206 C.3       1 GTP         0.2547
     15 C4'        -0.1994    1.3333    2.4288 C.3       1 GTP         0.0926
     16 O4'        -1.1285    0.2356    2.5840 O.3       1 GTP        -0.3593
     17 C3'         1.0324    0.7610    1.7344 C.3       1 GTP         0.0907
     18 O3'         1.9175    0.2377    2.7247 O.3       1 GTP        -0.5209
     19 C2'         0.4468   -0.3802    0.9263 C.3       1 GTP         0.0305
     20 O2'         1.3993   -1.3703    0.5961 O.3       1 GTP        -0.5978
     21 C1'        -0.6159   -0.9100    1.8769 C.3       1 GTP         0.2339
     22 N9         -1.7127   -1.6108    1.2130 N.pl3     1 GTP        -0.1765
     23 C8         -2.5534   -1.0907    0.2607 C.ar      1 GTP         0.4947
     24 N7         -3.4469   -1.9695   -0.1508 N.2       1 GTP        -0.5802
     25 C5         -3.1705   -3.1041    0.5657 C.ar      1 GTP         0.2279
     26 C6         -3.8738   -4.3568    0.4777 C.ar      1 GTP         0.6513
     27 O6         -4.8240   -4.5720   -0.2607 O.2       1 GTP        -0.5111
     28 N1         -3.3198   -5.3462    1.3780 N.pl3     1 GTP        -0.4713
     29 C2         -2.2226   -5.1203    2.2413 C.ar      1 GTP         0.5256
     30 N2         -1.7649   -6.1367    3.0659 N.pl3     1 GTP        -0.8665
     31 N3         -1.5969   -3.8585    2.2574 N.pl3     1 GTP        -0.5398
     32 C4         -2.1068   -2.8965    1.4082 C.ar      1 GTP        -0.0275
     33 HOG3       -1.5748    2.4253    7.8407 H         1 GTP         0.4161
     34 H5'        -1.7771    2.7849    2.1387 H         1 GTP         0.0348
     35 H5''       -1.1654    2.0541    0.6320 H         1 GTP         0.0348
     36 H4'         0.0403    1.7078    3.4343 H         1 GTP         0.1215
     37 H3'         1.5907    1.4859    1.1353 H         1 GTP         0.0576
     38 HO3'        2.6839   -0.1150    2.2479 H         1 GTP         0.3842
     39 H2'        -0.0017    0.0018    0.0005 H         1 GTP         0.0252
     40 HO2'        2.0953   -0.9375    0.0709 H         1 GTP         0.4224
     41 H1'        -0.1998   -1.6319    2.6178 H         1 GTP         0.0745
     42 H8         -2.4657   -0.0713   -0.0897 H         1 GTP         0.1522
     43 HN1        -3.7505   -6.2699    1.3904 H         1 GTP         0.3518
     44 HN21       -1.0023   -5.9289    3.6451 H         1 GTP         0.4761
     45 HN22       -2.2347   -6.9951    3.0150 H         1 GTP         0.4761
     46 H46        -0.8062   -3.6900    2.8760 H         1 GTP         0.5030
@<TRIPOS>BOND
     1    1    2 2
     2    1    3 1
     3    1    4 1
     4    1    5 1
     5    4   33 1
     6    5    6 1
     7    6    7 2
     8    6    8 1
     9    6    9 1
    10    9   10 1
    11   10   11 2
    12   10   12 1
    13   10   13 1
    14   13   14 1
    15   14   15 1
    16   14   34 1
    17   14   35 1
    18   15   16 1
    19   15   17 1
    20   15   36 1
    21   16   21 1
    22   17   18 1
    23   17   19 1
    24   17   37 1
    25   18   38 1
    26   19   20 1
    27   19   21 1
    28   19   39 1
    29   20   40 1
    30   21   22 1
    31   21   41 1
    32   22   23 ar
    33   22   32 ar
    34   23   24 ar
    35   23   42 1
    36   24   25 ar
    37   25   26 ar
    38   25   32 ar
    39   26   27 2
    40   26   28 ar
    41   28   29 ar
    42   28   43 1
    43   29   30 1
    44   29   31 ar
    45   30   44 1
    46   30   45 1
    47   31   32 ar
    48   31   46 1
@<TRIPOS>SUBSTRUCTURE
     1 GTP         1 GROUP 0 A     ****
@<TRIPOS>MOLECULE
[[[5-(2-amino-6-oxo-1,3-dihydropurin-2-ylium-9-yl)-3,4-dihydroxy-tetrahydrofuran-2-yl]methoxy-oxido-phosphoryl]oxy-oxido-phosphoryl] hydrogen phosphate
   46    48     1     0     0
SMALL
USER_CHARGES

@<TRIPOS>ATOM
      1 PG          0.9664    8.3113   -0.3211 P.3       1 GTP         1.5400
      2 O1G         0.6674    8.3272   -1.8035 O.co2     1 GTP        -0.8909
      3 O2G         0.7571    9.5458    0.5274 O.co2     1 GTP        -0.8909
      4 O3G         2.4983    7.7885   -0.1065 O.3       1 GTP        -0.7980
      5 O3B         0.1794    7.0574    0.3661 O.3       1 GTP        -0.7612
      6 PB         -1.4223    6.8072    0.5592 P.3       1 GTP         1.5847
      7 O1B        -1.9658    7.8535    1.5065 O.co2     1 GTP        -0.8859
      8 O2B        -2.0501    6.5625   -0.7949 O.co2     1 GTP        -0.8859
      9 O3A        -1.3723    5.3610    1.3148 O.3       1 GTP        -0.7486
     10 PA         -2.5926    4.4187    1.8556 P.3       1 GTP         1.5001
     11 O1A        -3.3211    5.1526    2.9606 O.co2     1 GTP        -0.8487
     12 O2A        -3.3385    3.8605    0.6632 O.co2     1 GTP        -0.8487
     13 O5'        -1.7336    3.1724    2.4750 O.3       1 GTP        -0.5474
     14 C5'        -0.8811    2.4285    1.6206 C.3       1 GTP         0.2547
     15 C4'        -0.1994    1.3333    2.4288 C.3       1 GTP         0.0926
     16 O4'        -1.1285    0.2356    2.5840 O.3       1 GTP        -0.3593
     17 C3'         1.0324    0.7610    1.7344 C.3       1 GTP         0.0907
     18 O3'         1.9175    0.2377    2.7247 O.3       1 GTP        -0.5209
     19 C2'         0.4468   -0.3802    0.9263 C.3       1 GTP         0.0305
     20 O2'         1.3993   -1.3703    0.5961 O.3       1 GTP        -0.5978
     21 C1'        -0.6159   -0.9100    1.8769 C.3       1 GTP         0.2339
     22 N9         -1.7127   -1.6108    1.2130 N.pl3     1 GTP        -0.1765
     23 C8         -1.6092   -2.7449    0.4467 C.ar      1 GTP         0.4947
     24 N7         -2.7778   -3.1416   -0.0191 N.2       1 GTP        -0.5802
     25 C5         -3.6725   -2.2253    0.4675 C.ar      1 GTP         0.2279
     26 C6         -5.0932   -2.2202    0.2371 C.ar      1 GTP         0.6513
     27 O6         -5.6933   -3.0474   -0.4337 O.2       1 GTP        -0.5111
     28 N1         -5.7390   -1.1061    0.8992 N.pl3     1 GTP        -0.4713
     29 C2         -5.0661   -0.1368    1.6789 C.ar      1 GTP         0.5256
     30 N2         -5.7774    0.8934    2.2749 N.pl3     1 GTP        -0.8665
     31 N3         -3.6705   -0.2251    1.8481 N.pl3     1 GTP        -0.5398
     32 C4         -3.0303   -1.2785    1.2262 C.ar      1 GTP        -0.0275
     33 HOG3        2.8451    7.7220    0.8087 H         1 GTP         0.4161
     34 H5'        -1.4800    1.9927    0.8146 H         1 GTP         0.0348
     35 H5''       -0.1367    3.1040    1.1872 H         1 GTP         0.0348
     36 H4'         0.0403    1.7078    3.4343 H         1 GTP         0.1215
     37 H3'         1.5907    1.4859    1.1353 H         1 GTP         0.0576
     38 HO3'        2.1521    0.9800    3.3017 H         1 GTP         0.3842
     39 H2'        -0.0017    0.0018    0.0005 H         1 GTP         0.0252
     40 HO2'        2.0953   -0.9375    0.0709 H         1 GTP         0.4224
     41 H1'        -0.1998   -1.6319    2.6178 H         1 GTP         0.0745
     42 H8         -0.6610   -3.2324    0.2653 H         1 GTP         0.1522
     43 HN1        -6.7487   -1.0139    0.7961 H         1 GTP         0.3518
     44 HN21       -5.2644    1.5388    2.8044 H         1 GTP         0.4761
     45 HN22       -6.7459    0.9078    2.1265 H         1 GTP         0.4761
     46 H46        -3.1807    0.4690    2.4089 H         1 GTP         0.5030
@<TRIPOS>BOND
     1    1    2 2
     2    1    3 1
     3    1    4 1
     4    1    5 1
     5    4   33 1
     6    5    6 1
     7    6    7 2
     8    6    8 1
     9    6    9 1
    10    9   10 1
    11   10   11 2
    12   10   12 1
    13   10   13 1
    14   13   14 1
    15   14   15 1
    16   14   34 1
    17   14   35 1
    18   15   16 1
    19   15   17 1
    20   15   36 1
    21   16   21 1
    22   17   18 1
    23   17   19 1
    24   17   37 1
    25   18   38 1
    26   19   20 1
    27   19   21 1
    28   19   39 1
    29   20   40 1
    30   21   22 1
    31   21   41 1
    32   22   23 ar
    33   22   32 ar
    34   23   24 ar
    35   23   42 1
    36   24   25 ar
    37   25   26 ar
    38   25   32 ar
    39   26   27 2
    40   26   28 ar
    41   28   29 ar
    42   28   43 1
    43   29   30 1
    44   29   31 ar
    45   30   44 1
    46   30   45 1
    47   31   32 ar
    48   31   46 1
@<TRIPOS>SUBSTRUCTURE
     1 GTP         1 GROUP 0 A     ****
@<TRIPOS>MOLECULE
[[[5-(2-amino-6-oxo-1,3-dihydropurin-2-ylium-9-yl)-3,4-dihydroxy-tetrahydrofuran-2-yl]methoxy-oxido-phosphoryl]oxy-oxido-phosphoryl] hydrogen phosphate
   46    48     1     0     0
SMALL
USER_CHARGES

@<TRIPOS>ATOM
      1 PG         -2.5845    7.4474   -0.2774 P.3       1 GTP         1.5400
      2 O1G        -2.9981    5.9979   -0.4013 O.co2     1 GTP        -0.8909
      3 O2G        -3.5214    8.4749    0.3176 O.co2     1 GTP        -0.8909
      4 O3G        -2.1000    7.9758   -1.7444 O.3       1 GTP        -0.7980
      5 O3B        -1.1510    7.5263    0.4989 O.3       1 GTP        -0.7612
      6 PB         -0.7771    7.1572    2.0447 P.3       1 GTP         1.5847
      7 O1B         0.7204    7.2735    2.2223 O.co2     1 GTP        -0.8859
      8 O2B        -1.7414    7.8673    2.9685 O.co2     1 GTP        -0.8859
      9 O3A        -1.2061    5.5822    2.0491 O.3       1 GTP        -0.7486
     10 PA         -1.1369    4.4808    3.2540 P.3       1 GTP         1.5001
     11 O1A         0.3132    4.2539    3.6230 O.co2     1 GTP        -0.8487
     12 O2A        -2.1633    4.8464    4.3040 O.co2     1 GTP        -0.8487
     13 O5'        -1.7336    3.1724    2.4750 O.3       1 GTP        -0.5474
     14 C5'        -0.8811    2.4285    1.6206 C.3       1 GTP         0.2547
     15 C4'        -0.1994    1.3333    2.4288 C.3       1 GTP         0.0926
     16 O4'        -1.1285    0.2356    2.5840 O.3       1 GTP        -0.3593
     17 C3'         1.0324    0.7610    1.7344 C.3       1 GTP         0.0907
     18 O3'         1.9175    0.2377    2.7247 O.3       1 GTP        -0.5209
     19 C2'         0.4468   -0.3802    0.9263 C.3       1 GTP         0.0305
     20 O2'         1.3993   -1.3703    0.5961 O.3       1 GTP        -0.5978
     21 C1'        -0.6159   -0.9100    1.8769 C.3       1 GTP         0.2339
     22 N9         -1.7127   -1.6108    1.2130 N.pl3     1 GTP        -0.1765
     23 C8         -2.8692   -1.0463    0.7355 C.ar      1 GTP         0.4947
     24 N7         -3.6707   -1.9381    0.1856 N.2       1 GTP        -0.5802
     25 C5         -3.0027   -3.1275    0.3134 C.ar      1 GTP         0.2279
     26 C6         -3.4659   -4.4142   -0.1355 C.ar      1 GTP         0.6513
     27 O6         -4.5328   -4.6133   -0.6980 O.2       1 GTP        -0.5111
     28 N1         -2.5102   -5.4606    0.1612 N.pl3     1 GTP        -0.4713
     29 C2         -1.2711   -5.2547    0.8113 C.ar      1 GTP         0.5256
     30 N2         -0.4228   -6.3256    1.0482 N.pl3     1 GTP        -0.8665
     31 N3         -0.9033   -3.9563    1.2146 N.pl3     1 GTP        -0.5398
     32 C4         -1.7979   -2.9400    0.9438 C.ar      1 GTP        -0.0275
     33 HOG3       -1.7984    8.9053   -1.8297 H         1 GTP         0.4161
     34 H5'        -1.4800    1.9927    0.8146 H         1 GTP         0.0348
     35 H5''       -0.1367    3.1040    1.1872 H         1 GTP         0.0348
     36 H4'         0.0403    1.7078    3.4343 H         1 GTP         0.1215
     37 H3'         1.5907    1.4859    1.1353 H         1 GTP         0.0576
     38 HO3'        2.1521    0.9800    3.3017 H         1 GTP         0.3842
     39 H2'        -0.0017    0.0018    0.0005 H         1 GTP         0.0252
     40 HO2'        0.9369   -2.0558    0.0825 H         1 GTP         0.4224
     41 H1'        -0.1998   -1.6319    2.6178 H         1 GTP         0.0745
     42 H8         -3.0691    0.0134    0.8177 H         1 GTP         0.1522
     43 HN1        -2.7468   -6.4119   -0.1177 H         1 GTP         0.3518
     44 HN21        0.4233   -6.1297    1.5018 H         1 GTP         0.4761
     45 HN22       -0.7261   -7.2071    0.7466 H         1 GTP         0.4761
     46 H46        -0.0124   -3.8015    1.6821 H         1 GTP         0.5030
@<TRIPOS>BOND
     1    1    2 2
     2    1    3 1
     3    1    4 1
     4    1    5 1
     5    4   33 1
     6    5    6 1
     7    6    7 2
     8    6    8 1
     9    6    9 1
    10    9   10 1
    11   10   11 2
    12   10   12 1
    13   10   13 1
    14   13   14 1
    15   14   15 1
    16   14   34 1
    17   14   35 1
    18   15   16 1
    19   15   17 1
    20   15   36 1
    21   16   21 1
    22   17   18 1
    23   17   19 1
    24   17   37 1
    25   18   38 1
    26   19   20 1
    27   19   21 1
    28   19   39 1
    29   20   40 1
    30   21   22 1
    31   21   41 1
    32   22   23 ar
    33   22   32 ar
    34   23   24 ar
    35   23   42 1
    36   24   25 ar
    37   25   26 ar
    38   25   32 ar
    39   26   27 2
    40   26   28 ar
    41   28   29 ar
    42   28   43 1
    43   29   30 1
    44   29   31 ar
    45   30   44 1
    46   30   45 1
    47   31   32 ar
    48   31   46 1
@<TRIPOS>SUBSTRUCTURE
     1 GTP         1 GROUP 0 A     ****
@<TRIPOS>MOLECULE
[[[5-(2-amino-6-oxo-1,3-dihydropurin-2-ylium-9-yl)-3,4-dihydroxy-tetrahydrofuran-2-yl]methoxy-oxido-phosphoryl]oxy-oxido-phosphoryl] hydrogen phosphate
   46    48     1     0     0
SMALL
USER_CHARGES

@<TRIPOS>ATOM
      1 PG         -5.9240    7.0272   -0.1114 P.3       1 GTP         1.5400
      2 O1G        -5.3982    8.4176    0.1671 O.co2     1 GTP        -0.8909
      3 O2G        -6.5066    6.6725   -1.4614 O.co2     1 GTP        -0.8909
      4 O3G        -7.0159    6.6451    1.0409 O.3       1 GTP        -0.7980
      5 O3B        -4.7710    5.9369    0.2702 O.3       1 GTP        -0.7612
      6 PB         -3.3194    5.6630   -0.4251 P.3       1 GTP         1.5847
      7 O1B        -3.5439    5.1481   -1.8294 O.co2     1 GTP        -0.8859
      8 O2B        -2.4104    6.8398   -0.1492 O.co2     1 GTP        -0.8859
      9 O3A        -2.7994    4.4428    0.5264 O.3       1 GTP        -0.7486
     10 PA         -2.5400    4.4095    2.1393 P.3       1 GTP         1.5001
     11 O1A        -1.4132    5.3638    2.4707 O.co2     1 GTP        -0.8487
     12 O2A        -3.8748    4.4994    2.8464 O.co2     1 GTP        -0.8487
     13 O5'        -2.0401    2.8620    2.3128 O.3       1 GTP        -0.5474
     14 C5'        -0.8811    2.4285    1.6206 C.3       1 GTP         0.2547
     15 C4'        -0.1994    1.3333    2.4288 C.3       1 GTP         0.0926
     16 O4'        -1.1285    0.2356    2.5840 O.3       1 GTP        -0.3593
     17 C3'         1.0324    0.7610    1.7344 C.3       1 GTP         0.0907
     18 O3'         1.9175    0.2377    2.7247 O.3       1 GTP        -0.5209
     19 C2'         0.4468   -0.3802    0.9263 C.3       1 GTP         0.0305
     20 O2'         1.3993   -1.3703    0.5961 O.3       1 GTP        -0.5978
     21 C1'        -0.6159   -0.9100    1.8769 C.3       1 GTP         0.2339
     22 N9         -1.7127   -1.6108    1.2130 N.pl3     1 GTP        -0.1765
     23 C8         -1.7789   -2.9564    0.9503 C.ar      1 GTP         0.4947
     24 N7         -2.8980   -3.2916    0.3377 N.2       1 GTP        -0.5802
     25 C5         -3.5824   -2.1127    0.2000 C.ar      1 GTP         0.2279
     26 C6         -4.8740   -1.9471   -0.4133 C.ar      1 GTP         0.6513
     27 O6         -5.5366   -2.8529   -0.8978 O.2       1 GTP        -0.5111
     28 N1         -5.3036   -0.5645   -0.3916 N.pl3     1 GTP        -0.4713
     29 C2         -4.5545    0.4997    0.1619 C.ar      1 GTP         0.5256
     30 N2         -5.0561    1.7921    0.1348 N.pl3     1 GTP        -0.8665
     31 N3         -3.2977    0.2393    0.7420 N.pl3     1 GTP        -0.5398
     32 C4         -2.8643   -1.0716    0.7336 C.ar      1 GTP        -0.0275
     33 HOG3       -6.7213    6.6299    1.9765 H         1 GTP         0.4161
     34 H5'        -1.1767    2.0502    0.6368 H         1 GTP         0.0348
     35 H5''       -0.2080    3.2814    1.4876 H         1 GTP         0.0348
     36 H4'         0.0403    1.7078    3.4343 H         1 GTP         0.1215
     37 H3'         1.5907    1.4859    1.1353 H         1 GTP         0.0576
     38 HO3'        2.1521    0.9800    3.3017 H         1 GTP         0.3842
     39 H2'        -0.0017    0.0018    0.0005 H         1 GTP         0.0252
     40 HO2'        0.9369   -2.0558    0.0825 H         1 GTP         0.4224
     41 H1'        -0.1998   -1.6319    2.6178 H         1 GTP         0.0745
     42 H8         -0.9852   -3.6367    1.2276 H         1 GTP         0.1522
     43 HN1        -6.2089   -0.3428   -0.8039 H         1 GTP         0.3518
     44 HN21       -4.4981    2.4933    0.5311 H         1 GTP         0.4761
     45 HN22       -5.9352    1.9183   -0.2793 H         1 GTP         0.4761
     46 H46        -2.7541    1.0010    1.1428 H         1 GTP         0.5030
@<TRIPOS>BOND
     1    1    2 2
     2    1    3 1
     3    1    4 1
     4    1    5 1
     5    4   33 1
     6    5    6 1
     7    6    7 2
     8    6    8 1
     9    6    9 1
    10    9   10 1
    11   10   11 2
    12   10   12 1
    13   10   13 1
    14   13   14 1
    15   14   15 1
    16   14   34 1
    17   14   35 1
    18   15   16 1
    19   15   17 1
    20   15   36 1
    21   16   21 1
    22   17   18 1
    23   17   19 1
    24   17   37 1
    25   18   38 1
    26   19   20 1
    27   19   21 1
    28   19   39 1
    29   20   40 1
    30   21   22 1
    31   21   41 1
    32   22   23 ar
    33   22   32 ar
    34   23   24 ar
    35   23   42 1
    36   24   25 ar
    37   25   26 ar
    38   25   32 ar
    39   26   27 2
    40   26   28 ar
    41   28   29 ar
    42   28   43 1
    43   29   30 1
    44   29   31 ar
    45   30   44 1
    46   30   45 1
    47   31   32 ar
    48   31   46 1
@<TRIPOS>SUBSTRUCTURE
     1 GTP         1 GROUP 0 A     ****
@<TRIPOS>MOLECULE
[[[5-(2-amino-6-oxo-1,3-dihydropurin-2-ylium-9-yl)-3,4-dihydroxy-tetrahydrofuran-2-yl]methoxy-oxido-phosphoryl]oxy-oxido-phosphoryl] hydrogen phosphate
   46    48     1     0     0
SMALL
USER_CHARGES

@<TRIPOS>ATOM
      1 PG         -4.1520    5.5344   -3.0104 P.3       1 GTP         1.5400
      2 O1G        -5.1765    6.6140   -2.7419 O.co2     1 GTP        -0.8909
      3 O2G        -2.9457    5.8068   -3.8812 O.co2     1 GTP        -0.8909
      4 O3G        -4.9249    4.2190   -3.5921 O.3       1 GTP        -0.7980
      5 O3B        -3.6478    4.9147   -1.5871 O.3       1 GTP        -0.7612
      6 PB         -4.5154    4.3030   -0.3467 P.3       1 GTP         1.5847
      7 O1B        -5.3377    5.4153    0.2649 O.co2     1 GTP        -0.8859
      8 O2B        -5.1465    2.9992   -0.7819 O.co2     1 GTP        -0.8859
      9 O3A        -3.2920    3.9119    0.6609 O.3       1 GTP        -0.7486
     10 PA         -3.3347    3.2338    2.1468 P.3       1 GTP         1.5001
     11 O1A        -4.0274    4.1866    3.0968 O.co2     1 GTP        -0.8487
     12 O2A        -3.7889    1.7968    2.0106 O.co2     1 GTP        -0.8487
     13 O5'        -1.7336    3.1724    2.4750 O.3       1 GTP        -0.5474
     14 C5'        -0.8811    2.4285    1.6206 C.3       1 GTP         0.2547
     15 C4'        -0.1994    1.3333    2.4288 C.3       1 GTP         0.0926
     16 O4'        -1.1285    0.2356    2.5840 O.3       1 GTP        -0.3593
     17 C3'         1.0324    0.7610    1.7344 C.3       1 GTP         0.0907
     18 O3'         1.9175    0.2377    2.7247 O.3       1 GTP        -0.5209
     19 C2'         0.4468   -0.3802    0.9263 C.3       1 GTP         0.0305
     20 O2'         1.3993   -1.3703    0.5961 O.3       1 GTP        -0.5978
     21 C1'        -0.6159   -0.9100    1.8769 C.3       1 GTP         0.2339
     22 N9         -1.7127   -1.6108    1.2130 N.pl3     1 GTP        -0.1765
     23 C8         -2.5534   -1.0907    0.2607 C.ar      1 GTP         0.4947
     24 N7         -3.4469   -1.9695   -0.1508 N.2       1 GTP        -0.5802
     25 C5         -3.1705   -3.1041    0.5657 C.ar      1 GTP         0.2279
     26 C6         -3.8738   -4.3568    0.4777 C.ar      1 GTP         0.6513
     27 O6         -4.8240   -4.5720   -0.2607 O.2       1 GTP        -0.5111
     28 N1         -3.3198   -5.3462    1.3780 N.pl3     1 GTP        -0.4713
     29 C2         -2.2226   -5.1203    2.2413 C.ar      1 GTP         0.5256
     30 N2         -1.7649   -6.1367    3.0659 N.pl3     1 GTP        -0.8665
     31 N3         -1.5969   -3.8585    2.2574 N.pl3     1 GTP        -0.5398
     32 C4         -2.1068   -2.8965    1.4082 C.ar      1 GTP        -0.0275
     33 HOG3       -4.3927    3.4262   -3.8170 H         1 GTP         0.4161
     34 H5'        -1.4800    1.9927    0.8146 H         1 GTP         0.0348
     35 H5''       -0.1367    3.1040    1.1872 H         1 GTP         0.0348
     36 H4'         0.0403    1.7078    3.4343 H         1 GTP         0.1215
     37 H3'         1.5907    1.4859    1.1353 H         1 GTP         0.0576
     38 HO3'        2.6839   -0.1150    2.2479 H         1 GTP         0.3842
     39 H2'        -0.0017    0.0018    0.0005 H         1 GTP         0.0252
     40 HO2'        2.0953   -0.9375    0.0709 H         1 GTP         0.4224
     41 H1'        -0.1998   -1.6319    2.6178 H         1 GTP         0.0745
     42 H8         -2.4657   -0.0713   -0.0897 H         1 GTP         0.1522
     43 HN1        -3.7505   -6.2699    1.3904 H         1 GTP         0.3518
     44 HN21       -1.0023   -5.9289    3.6451 H         1 GTP         0.4761
     45 HN22       -2.2347   -6.9951    3.0150 H         1 GTP         0.4761
     46 H46        -0.8062   -3.6900    2.8760 H         1 GTP         0.5030
@<TRIPOS>BOND
     1    1    2 2
     2    1    3 1
     3    1    4 1
     4    1    5 1
     5    4   33 1
     6    5    6 1
     7    6    7 2
     8    6    8 1
     9    6    9 1
    10    9   10 1
    11   10   11 2
    12   10   12 1
    13   10   13 1
    14   13   14 1
    15   14   15 1
    16   14   34 1
    17   14   35 1
    18   15   16 1
    19   15   17 1
    20   15   36 1
    21   16   21 1
    22   17   18 1
    23   17   19 1
    24   17   37 1
    25   18   38 1
    26   19   20 1
    27   19   21 1
    28   19   39 1
    29   20   40 1
    30   21   22 1
    31   21   41 1
    32   22   23 ar
    33   22   32 ar
    34   23   24 ar
    35   23   42 1
    36   24   25 ar
    37   25   26 ar
    38   25   32 ar
    39   26   27 2
    40   26   28 ar
    41   28   29 ar
    42   28   43 1
    43   29   30 1
    44   29   31 ar
    45   30   44 1
    46   30   45 1
    47   31   32 ar
    48   31   46 1
@<TRIPOS>SUBSTRUCTURE
     1 GTP         1 GROUP 0 A     ****
@<TRIPOS>MOLECULE
[[[5-(2-amino-6-oxo-1,3-dihydropurin-2-ylium-9-yl)-3,4-dihydroxy-tetrahydrofuran-2-yl]methoxy-oxido-phosphoryl]oxy-oxido-phosphoryl] hydrogen phosphate
   46    48     1     0     0
SMALL
USER_CHARGES

@<TRIPOS>ATOM
      1 PG         -4.4574    5.0290   -2.9571 P.3       1 GTP         1.5400
      2 O1G        -5.8528    5.5463   -2.6876 O.co2     1 GTP        -0.8909
      3 O2G        -3.5046    5.7918   -3.8504 O.co2     1 GTP        -0.8909
      4 O3G        -4.5699    3.4962   -3.5083 O.3       1 GTP        -0.7980
      5 O3B        -3.7192    4.7254   -1.5335 O.3       1 GTP        -0.7612
      6 PB         -3.2454    5.7571   -0.3601 P.3       1 GTP         1.5847
      7 O1B        -2.1455    6.6401   -0.9060 O.co2     1 GTP        -0.8859
      8 O2B        -4.4704    6.3401    0.3084 O.co2     1 GTP        -0.8859
      9 O3A        -2.6104    4.6829    0.6924 O.3       1 GTP        -0.7486
     10 PA         -3.3161    3.4234    1.4576 P.3       1 GTP         1.5001
     11 O1A        -4.3794    3.9564    2.3932 O.co2     1 GTP        -0.8487
     12 O2A        -3.6374    2.3544    0.4359 O.co2     1 GTP        -0.8487
     13 O5'        -2.0401    2.8620    2.3128 O.3       1 GTP        -0.5474
     14 C5'        -0.8811    2.4285    1.6206 C.3       1 GTP         0.2547
     15 C4'        -0.1994    1.3333    2.4288 C.3       1 GTP         0.0926
     16 O4'        -1.1285    0.2356    2.5840 O.3       1 GTP        -0.3593
     17 C3'         1.0324    0.7610    1.7344 C.3       1 GTP         0.0907
     18 O3'         1.9175    0.2377    2.7247 O.3       1 GTP        -0.5209
     19 C2'         0.4468   -0.3802    0.9263 C.3       1 GTP         0.0305
     20 O2'         1.3993   -1.3703    0.5961 O.3       1 GTP        -0.5978
     21 C1'        -0.6159   -0.9100    1.8769 C.3       1 GTP         0.2339
     22 N9         -1.7127   -1.6108    1.2130 N.pl3     1 GTP        -0.1765
     23 C8         -3.0389   -1.2578    1.2391 C.ar      1 GTP         0.4947
     24 N7         -3.7909   -2.0880    0.5425 N.2       1 GTP        -0.5802
     25 C5         -2.9127   -3.0150    0.0458 C.ar      1 GTP         0.2279
     26 C6         -3.2467   -4.1411   -0.7860 C.ar      1 GTP         0.6513
     27 O6         -4.3761   -4.4189   -1.1621 O.2       1 GTP        -0.5111
     28 N1         -2.0748   -4.9191   -1.1296 N.pl3     1 GTP        -0.4713
     29 C2         -0.7595   -4.6181   -0.7058 C.ar      1 GTP         0.5256
     30 N2          0.2985   -5.4268   -1.0920 N.pl3     1 GTP        -0.8665
     31 N3         -0.5304   -3.4919    0.1084 N.pl3     1 GTP        -0.5398
     32 C4         -1.6318   -2.7332    0.4512 C.ar      1 GTP        -0.0275
     33 HOG3       -3.7427    3.0180   -3.7305 H         1 GTP         0.4161
     34 H5'        -1.1767    2.0502    0.6368 H         1 GTP         0.0348
     35 H5''       -0.2080    3.2814    1.4876 H         1 GTP         0.0348
     36 H4'         0.0403    1.7078    3.4343 H         1 GTP         0.1215
     37 H3'         1.5907    1.4859    1.1353 H         1 GTP         0.0576
     38 HO3'        2.6839   -0.1150    2.2479 H         1 GTP         0.3842
     39 H2'        -0.0017    0.0018    0.0005 H         1 GTP         0.0252
     40 HO2'        2.0953   -0.9375    0.0709 H         1 GTP         0.4224
     41 H1'        -0.1998   -1.6319    2.6178 H         1 GTP         0.0745
     42 H8         -3.3933   -0.3909    1.7800 H         1 GTP         0.1522
     43 HN1        -2.2071   -5.7408   -1.7178 H         1 GTP         0.3518
     44 HN21        1.1896   -5.1751   -0.7715 H         1 GTP         0.4761
     45 HN22        0.0846   -6.1966   -1.6593 H         1 GTP         0.4761
     46 H46         0.4142   -3.2695    0.4160 H         1 GTP         0.5030
@<TRIPOS>BOND
     1    1    2 2
     2    1    3 1
     3    1    4 1
     4    1    5 1
     5    4   33 1
     6    5    6 1
     7    6    7 2
     8    6    8 1
     9    6    9 1
    10    9   10 1
    11   10   11 2
    12   10   12 1
    13   10   13 1
    14   13   14 1
    15   14   15 1
    16   14   34 1
    17   14   35 1
    18   15   16 1
    19   15   17 1
    20   15   36 1
    21   16   21 1
    22   17   18 1
    23   17   19 1
    24   17   37 1
    25   18   38 1
    26   19   20 1
    27   19   21 1
    28   19   39 1
    29   20   40 1
    30   21   22 1
    31   21   41 1
    32   22   23 ar
    33   22   32 ar
    34   23   24 ar
    35   23   42 1
    36   24   25 ar
    37   25   26 ar
    38   25   32 ar
    39   26   27 2
    40   26   28 ar
    41   28   29 ar
    42   28   43 1
    43   29   30 1
    44   29   31 ar
    45   30   44 1
    46   30   45 1
    47   31   32 ar
    48   31   46 1
@<TRIPOS>SUBSTRUCTURE
     1 GTP         1 GROUP 0 A     ****
@<TRIPOS>MOLECULE
[[[5-(2-amino-6-oxo-1,3-dihydropurin-2-ylium-9-yl)-3,4-dihydroxy-tetrahydrofuran-2-yl]methoxy-oxido-phosphoryl]oxy-oxido-phosphoryl] hydrogen phosphate
   46    48     1     0     0
SMALL
USER_CHARGES

@<TRIPOS>ATOM
      1 PG         -5.0270    7.1455    3.1542 P.3       1 GTP         1.5400
      2 O1G        -4.5672    8.5114    3.6130 O.co2     1 GTP        -0.8909
      3 O2G        -6.1456    6.9999    2.1466 O.co2     1 GTP        -0.8909
      4 O3G        -5.3958    6.2530    4.4708 O.3       1 GTP        -0.7980
      5 O3B        -3.7335    6.2963    2.6350 O.3       1 GTP        -0.7612
      6 PB         -2.7700    6.5451    1.3406 P.3       1 GTP         1.5847
      7 O1B        -3.5862    6.3453    0.0831 O.co2     1 GTP        -0.8859
      8 O2B        -1.9562    7.8000    1.5654 O.co2     1 GTP        -0.8859
      9 O3A        -1.7457    5.2883    1.5313 O.3       1 GTP        -0.7486
     10 PA         -0.4665    4.8322    0.6228 P.3       1 GTP         1.5001
     11 O1A        -0.9631    4.4288   -0.7487 O.co2     1 GTP        -0.8487
     12 O2A         0.6338    5.8580    0.7859 O.co2     1 GTP        -0.8487
     13 O5'         0.0178    3.5131    1.4595 O.3       1 GTP        -0.5474
     14 C5'        -0.8811    2.4285    1.6206 C.3       1 GTP         0.2547
     15 C4'        -0.1994    1.3333    2.4288 C.3       1 GTP         0.0926
     16 O4'        -1.1285    0.2356    2.5840 O.3       1 GTP        -0.3593
     17 C3'         1.0324    0.7610    1.7344 C.3       1 GTP         0.0907
     18 O3'         1.9175    0.2377    2.7247 O.3       1 GTP        -0.5209
     19 C2'         0.4468   -0.3802    0.9263 C.3       1 GTP         0.0305
     20 O2'         1.3993   -1.3703    0.5961 O.3       1 GTP        -0.5978
     21 C1'        -0.6159   -0.9100    1.8769 C.3       1 GTP         0.2339
     22 N9         -1.7127   -1.6108    1.2130 N.pl3     1 GTP        -0.1765
     23 C8         -3.0389   -1.2578    1.2391 C.ar      1 GTP         0.4947
     24 N7         -3.7909   -2.0880    0.5425 N.2       1 GTP        -0.5802
     25 C5         -2.9127   -3.0150    0.0458 C.ar      1 GTP         0.2279
     26 C6         -3.2467   -4.1411   -0.7860 C.ar      1 GTP         0.6513
     27 O6         -4.3761   -4.4189   -1.1621 O.2       1 GTP        -0.5111
     28 N1         -2.0748   -4.9191   -1.1296 N.pl3     1 GTP        -0.4713
     29 C2         -0.7595   -4.6181   -0.7058 C.ar      1 GTP         0.5256
     30 N2          0.2985   -5.4268   -1.0920 N.pl3     1 GTP        -0.8665
     31 N3         -0.5304   -3.4919    0.1084 N.pl3     1 GTP        -0.5398
     32 C4         -1.6318   -2.7332    0.4512 C.ar      1 GTP        -0.0275
     33 HOG3       -5.7125    5.3341    4.3382 H         1 GTP         0.4161
     34 H5'        -1.7771    2.7849    2.1387 H         1 GTP         0.0348
     35 H5''       -1.1654    2.0541    0.6320 H         1 GTP         0.0348
     36 H4'         0.0403    1.7078    3.4343 H         1 GTP         0.1215
     37 H3'         1.5907    1.4859    1.1353 H         1 GTP         0.0576
     38 HO3'        2.6839   -0.1150    2.2479 H         1 GTP         0.3842
     39 H2'        -0.0017    0.0018    0.0005 H         1 GTP         0.0252
     40 HO2'        2.0953   -0.9375    0.0709 H         1 GTP         0.4224
     41 H1'        -0.1998   -1.6319    2.6178 H         1 GTP         0.0745
     42 H8         -3.3933   -0.3909    1.7800 H         1 GTP         0.1522
     43 HN1        -2.2071   -5.7408   -1.7178 H         1 GTP         0.3518
     44 HN21        1.1896   -5.1751   -0.7715 H         1 GTP         0.4761
     45 HN22        0.0846   -6.1966   -1.6593 H         1 GTP         0.4761
     46 H46         0.4142   -3.2695    0.4160 H         1 GTP         0.5030
@<TRIPOS>BOND
     1    1    2 2
     2    1    3 1
     3    1    4 1
     4    1    5 1
     5    4   33 1
     6    5    6 1
     7    6    7 2
     8    6    8 1
     9    6    9 1
    10    9   10 1
    11   10   11 2
    12   10   12 1
    13   10   13 1
    14   13   14 1
    15   14   15 1
    16   14   34 1
    17   14   35 1
    18   15   16 1
    19   15   17 1
    20   15   36 1
    21   16   21 1
    22   17   18 1
    23   17   19 1
    24   17   37 1
    25   18   38 1
    26   19   20 1
    27   19   21 1
    28   19   39 1
    29   20   40 1
    30   21   22 1
    31   21   41 1
    32   22   23 ar
    33   22   32 ar
    34   23   24 ar
    35   23   42 1
    36   24   25 ar
    37   25   26 ar
    38   25   32 ar
    39   26   27 2
    40   26   28 ar
    41   28   29 ar
    42   28   43 1
    43   29   30 1
    44   29   31 ar
    45   30   44 1
    46   30   45 1
    47   31   32 ar
    48   31   46 1
@<TRIPOS>SUBSTRUCTURE
     1 GTP         1 GROUP 0 A     ****
@<TRIPOS>MOLECULE
[[[5-(2-amino-6-oxo-1,3-dihydropurin-2-ylium-9-yl)-3,4-dihydroxy-tetrahydrofuran-2-yl]methoxy-oxido-phosphoryl]oxy-oxido-phosphoryl] hydrogen phosphate
   46    48     1     0     0
SMALL
USER_CHARGES

@<TRIPOS>ATOM
      1 PG         -5.4983    7.5681    0.2626 P.3       1 GTP         1.5400
      2 O1G        -4.7721    8.8797    0.0627 O.co2     1 GTP        -0.8909
      3 O2G        -6.4705    7.0521   -0.7748 O.co2     1 GTP        -0.8909
      4 O3G        -6.2565    7.6101    1.7081 O.3       1 GTP        -0.7980
      5 O3B        -4.4060    6.4007    0.5908 O.3       1 GTP        -0.7612
      6 PB         -3.2454    5.7571   -0.3601 P.3       1 GTP         1.5847
      7 O1B        -3.9081    5.0163   -1.5000 O.co2     1 GTP        -0.8859
      8 O2B        -2.1768    6.7984   -0.6076 O.co2     1 GTP        -0.8859
      9 O3A        -2.6104    4.6829    0.6924 O.3       1 GTP        -0.7486
     10 PA         -3.3161    3.4234    1.4576 P.3       1 GTP         1.5001
     11 O1A        -4.3794    3.9564    2.3932 O.co2     1 GTP        -0.8487
     12 O2A        -3.6374    2.3544    0.4359 O.co2     1 GTP        -0.8487
     13 O5'        -2.0401    2.8620    2.3128 O.3       1 GTP        -0.5474
     14 C5'        -0.8811    2.4285    1.6206 C.3       1 GTP         0.2547
     15 C4'        -0.1994    1.3333    2.4288 C.3       1 GTP         0.0926
     16 O4'        -1.1285    0.2356    2.5840 O.3       1 GTP        -0.3593
     17 C3'         1.0324    0.7610    1.7344 C.3       1 GTP         0.0907
     18 O3'         1.9175    0.2377    2.7247 O.3       1 GTP        -0.5209
     19 C2'         0.4468   -0.3802    0.9263 C.3       1 GTP         0.0305
     20 O2'         1.3993   -1.3703    0.5961 O.3       1 GTP        -0.5978
     21 C1'        -0.6159   -0.9100    1.8769 C.3       1 GTP         0.2339
     22 N9         -1.7127   -1.6108    1.2130 N.pl3     1 GTP        -0.1765
     23 C8         -3.0389   -1.2578    1.2391 C.ar      1 GTP         0.4947
     24 N7         -3.7909   -2.0880    0.5425 N.2       1 GTP        -0.5802
     25 C5         -2.9127   -3.0150    0.0458 C.ar      1 GTP         0.2279
     26 C6         -3.2467   -4.1411   -0.7860 C.ar      1 GTP         0.6513
     27 O6         -4.3761   -4.4189   -1.1621 O.2       1 GTP        -0.5111
     28 N1         -2.0748   -4.9191   -1.1296 N.pl3     1 GTP        -0.4713
     29 C2         -0.7595   -4.6181   -0.7058 C.ar      1 GTP         0.5256
     30 N2          0.2985   -5.4268   -1.0920 N.pl3     1 GTP        -0.8665
     31 N3         -0.5304   -3.4919    0.1084 N.pl3     1 GTP        -0.5398
     32 C4         -1.6318   -2.7332    0.4512 C.ar      1 GTP        -0.0275
     33 HOG3       -6.7759    6.8257    1.9858 H         1 GTP         0.4161
     34 H5'        -1.1767    2.0502    0.6368 H         1 GTP         0.0348
     35 H5''       -0.2080    3.2814    1.4876 H         1 GTP         0.0348
     36 H4'         0.0403    1.7078    3.4343 H         1 GTP         0.1215
     37 H3'         1.5907    1.4859    1.1353 H         1 GTP         0.0576
     38 HO3'        2.6839   -0.1150    2.2479 H         1 GTP         0.3842
     39 H2'        -0.0017    0.0018    0.0005 H         1 GTP         0.0252
     40 HO2'        2.0953   -0.9375    0.0709 H         1 GTP         0.4224
     41 H1'        -0.1998   -1.6319    2.6178 H         1 GTP         0.0745
     42 H8         -3.3933   -0.3909    1.7800 H         1 GTP         0.1522
     43 HN1        -2.2071   -5.7408   -1.7178 H         1 GTP         0.3518
     44 HN21        1.1896   -5.1751   -0.7715 H         1 GTP         0.4761
     45 HN22        0.0846   -6.1966   -1.6593 H         1 GTP         0.4761
     46 H46         0.4142   -3.2695    0.4160 H         1 GTP         0.5030
@<TRIPOS>BOND
     1    1    2 2
     2    1    3 1
     3    1    4 1
     4    1    5 1
     5    4   33 1
     6    5    6 1
     7    6    7 2
     8    6    8 1
     9    6    9 1
    10    9   10 1
    11   10   11 2
    12   10   12 1
    13   10   13 1
    14   13   14 1
    15   14   15 1
    16   14   34 1
    17   14   35 1
    18   15   16 1
    19   15   17 1
    20   15   36 1
    21   16   21 1
    22   17   18 1
    23   17   19 1
    24   17   37 1
    25   18   38 1
    26   19   20 1
    27   19   21 1
    28   19   39 1
    29   20   40 1
    30   21   22 1
    31   21   41 1
    32   22   23 ar
    33   22   32 ar
    34   23   24 ar
    35   23   42 1
    36   24   25 ar
    37   25   26 ar
    38   25   32 ar
    39   26   27 2
    40   26   28 ar
    41   28   29 ar
    42   28   43 1
    43   29   30 1
    44   29   31 ar
    45   30   44 1
    46   30   45 1
    47   31   32 ar
    48   31   46 1
@<TRIPOS>SUBSTRUCTURE
     1 GTP         1 GROUP 0 A     ****
@<TRIPOS>MOLECULE
[[[5-(2-amino-6-oxo-1,3-dihydropurin-2-ylium-9-yl)-3,4-dihydroxy-tetrahydrofuran-2-yl]methoxy-oxido-phosphoryl]oxy-oxido-phosphoryl] hydrogen phosphate
   46    48     1     0     0
SMALL
USER_CHARGES

@<TRIPOS>ATOM
      1 PG         -1.7252    7.9643   -1.6093 P.3       1 GTP         1.5400
      2 O1G        -2.7749    8.9952   -1.2589 O.co2     1 GTP        -0.8909
      3 O2G        -0.2586    8.3318   -1.6518 O.co2     1 GTP        -0.8909
      4 O3G        -2.1288    7.2768   -3.0342 O.3       1 GTP        -0.7980
      5 O3B        -1.9166    6.6621   -0.6442 O.3       1 GTP        -0.7612
      6 PB         -3.2454    5.7571   -0.3601 P.3       1 GTP         1.5847
      7 O1B        -4.2720    6.6123    0.3485 O.co2     1 GTP        -0.8859
      8 O2B        -3.5897    4.9800   -1.6111 O.co2     1 GTP        -0.8859
      9 O3A        -2.6104    4.6829    0.6924 O.3       1 GTP        -0.7486
     10 PA         -3.3161    3.4234    1.4576 P.3       1 GTP         1.5001
     11 O1A        -4.3794    3.9564    2.3932 O.co2     1 GTP        -0.8487
     12 O2A        -3.6374    2.3544    0.4359 O.co2     1 GTP        -0.8487
     13 O5'        -2.0401    2.8620    2.3128 O.3       1 GTP        -0.5474
     14 C5'        -0.8811    2.4285    1.6206 C.3       1 GTP         0.2547
     15 C4'        -0.1994    1.3333    2.4288 C.3       1 GTP         0.0926
     16 O4'        -1.1285    0.2356    2.5840 O.3       1 GTP        -0.3593
     17 C3'         1.0324    0.7610    1.7344 C.3       1 GTP         0.0907
     18 O3'         1.9175    0.2377    2.7247 O.3       1 GTP        -0.5209
     19 C2'         0.4468   -0.3802    0.9263 C.3       1 GTP         0.0305
     20 O2'         1.3993   -1.3703    0.5961 O.3       1 GTP        -0.5978
     21 C1'        -0.6159   -0.9100    1.8769 C.3       1 GTP         0.2339
     22 N9         -1.7127   -1.6108    1.2130 N.pl3     1 GTP        -0.1765
     23 C8         -1.6092   -2.7449    0.4467 C.ar      1 GTP         0.4947
     24 N7         -2.7778   -3.1416   -0.0191 N.2       1 GTP        -0.5802
     25 C5         -3.6725   -2.2253    0.4675 C.ar      1 GTP         0.2279
     26 C6         -5.0932   -2.2202    0.2371 C.ar      1 GTP         0.6513
     27 O6         -5.6933   -3.0474   -0.4337 O.2       1 GTP        -0.5111
     28 N1         -5.7390   -1.1061    0.8992 N.pl3     1 GTP        -0.4713
     29 C2         -5.0661   -0.1368    1.6789 C.ar      1 GTP         0.5256
     30 N2         -5.7774    0.8934    2.2749 N.pl3     1 GTP        -0.8665
     31 N3         -3.6705   -0.2251    1.8481 N.pl3     1 GTP        -0.5398
     32 C4         -3.0303   -1.2785    1.2262 C.ar      1 GTP        -0.0275
     33 HOG3       -1.5413    6.5817   -3.4003 H         1 GTP         0.4161
     34 H5'        -1.1767    2.0502    0.6368 H         1 GTP         0.0348
     35 H5''       -0.2080    3.2814    1.4876 H         1 GTP         0.0348
     36 H4'         0.0403    1.7078    3.4343 H         1 GTP         0.1215
     37 H3'         1.5907    1.4859    1.1353 H         1 GTP         0.0576
     38 HO3'        2.6839   -0.1150    2.2479 H         1 GTP         0.3842
     39 H2'        -0.0017    0.0018    0.0005 H         1 GTP         0.0252
     40 HO2'        2.0953   -0.9375    0.0709 H         1 GTP         0.4224
     41 H1'        -0.1998   -1.6319    2.6178 H         1 GTP         0.0745
     42 H8         -0.6610   -3.2324    0.2653 H         1 GTP         0.1522
     43 HN1        -6.7487   -1.0139    0.7961 H         1 GTP         0.3518
     44 HN21       -6.7460    0.9076    2.1270 H         1 GTP         0.4761
     45 HN22       -5.2643    1.5384    2.8048 H         1 GTP         0.4761
     46 H46        -3.1807    0.4690    2.4089 H         1 GTP         0.5030
@<TRIPOS>BOND
     1    1    2 2
     2    1    3 1
     3    1    4 1
     4    1    5 1
     5    4   33 1
     6    5    6 1
     7    6    7 2
     8    6    8 1
     9    6    9 1
    10    9   10 1
    11   10   11 2
    12   10   12 1
    13   10   13 1
    14   13   14 1
    15   14   15 1
    16   14   34 1
    17   14   35 1
    18   15   16 1
    19   15   17 1
    20   15   36 1
    21   16   21 1
    22   17   18 1
    23   17   19 1
    24   17   37 1
    25   18   38 1
    26   19   20 1
    27   19   21 1
    28   19   39 1
    29   20   40 1
    30   21   22 1
    31   21   41 1
    32   22   23 ar
    33   22   32 ar
    34   23   24 ar
    35   23   42 1
    36   24   25 ar
    37   25   26 ar
    38   25   32 ar
    39   26   27 2
    40   26   28 ar
    41   28   29 ar
    42   28   43 1
    43   29   30 1
    44   29   31 ar
    45   30   44 1
    46   30   45 1
    47   31   32 ar
    48   31   46 1
@<TRIPOS>SUBSTRUCTURE
     1 GTP         1 GROUP 0 A     ****
@<TRIPOS>MOLECULE
[[[5-(2-amino-6-oxo-1,3-dihydropurin-2-ylium-9-yl)-3,4-dihydroxy-tetrahydrofuran-2-yl]methoxy-oxido-phosphoryl]oxy-oxido-phosphoryl] hydrogen phosphate
   46    48     1     0     0
SMALL
USER_CHARGES

@<TRIPOS>ATOM
      1 PG          2.9359    7.6069    2.2575 P.3       1 GTP         1.5400
      2 O1G         3.1275    8.1069    0.8430 O.co2     1 GTP        -0.8909
      3 O2G         2.8005    8.5743    3.4122 O.co2     1 GTP        -0.8909
      4 O3G         4.1347    6.5531    2.6019 O.3       1 GTP        -0.7980
      5 O3B         1.6778    6.5676    2.2877 O.3       1 GTP        -0.7612
      6 PB          0.0882    6.8422    2.0360 P.3       1 GTP         1.5847
      7 O1B        -0.4322    7.7290    3.1451 O.co2     1 GTP        -0.8859
      8 O2B        -0.1283    7.1867    0.5793 O.co2     1 GTP        -0.8859
      9 O3A        -0.4755    5.3240    2.2417 O.3       1 GTP        -0.7486
     10 PA         -2.0037    4.7528    2.1522 P.3       1 GTP         1.5001
     11 O1A        -2.8233    5.3804    3.2590 O.co2     1 GTP        -0.8487
     12 O2A        -2.4597    4.8131    0.7107 O.co2     1 GTP        -0.8487
     13 O5'        -1.7336    3.1724    2.4750 O.3       1 GTP        -0.5474
     14 C5'        -0.8811    2.4285    1.6206 C.3       1 GTP         0.2547
     15 C4'        -0.1994    1.3333    2.4288 C.3       1 GTP         0.0926
     16 O4'        -1.1285    0.2356    2.5840 O.3       1 GTP        -0.3593
     17 C3'         1.0324    0.7610    1.7344 C.3       1 GTP         0.0907
     18 O3'         1.9175    0.2377    2.7247 O.3       1 GTP        -0.5209
     19 C2'         0.4468   -0.3802    0.9263 C.3       1 GTP         0.0305
     20 O2'         1.3993   -1.3703    0.5961 O.3       1 GTP        -0.5978
     21 C1'        -0.6159   -0.9100    1.8769 C.3       1 GTP         0.2339
     22 N9         -1.7127   -1.6108    1.2130 N.pl3     1 GTP        -0.1765
     23 C8         -2.5534   -1.0907    0.2607 C.ar      1 GTP         0.4947
     24 N7         -3.4469   -1.9695   -0.1508 N.2       1 GTP        -0.5802
     25 C5         -3.1705   -3.1041    0.5657 C.ar      1 GTP         0.2279
     26 C6         -3.8738   -4.3568    0.4777 C.ar      1 GTP         0.6513
     27 O6         -4.8240   -4.5720   -0.2607 O.2       1 GTP        -0.5111
     28 N1         -3.3198   -5.3462    1.3780 N.pl3     1 GTP        -0.4713
     29 C2         -2.2226   -5.1203    2.2413 C.ar      1 GTP         0.5256
     30 N2         -1.7649   -6.1367    3.0659 N.pl3     1 GTP        -0.8665
     31 N3         -1.5969   -3.8585    2.2574 N.pl3     1 GTP        -0.5398
     32 C4         -2.1068   -2.8965    1.4082 C.ar      1 GTP        -0.0275
     33 HOG3        4.1500    6.1375    3.4903 H         1 GTP         0.4161
     34 H5'        -1.4800    1.9927    0.8146 H         1 GTP         0.0348
     35 H5''       -0.1367    3.1040    1.1872 H         1 GTP         0.0348
     36 H4'         0.0403    1.7078    3.4343 H         1 GTP         0.1215
     37 H3'         1.5907    1.4859    1.1353 H         1 GTP         0.0576
     38 HO3'        2.6839   -0.1150    2.2479 H         1 GTP         0.3842
     39 H2'        -0.0017    0.0018    0.0005 H         1 GTP         0.0252
     40 HO2'        0.9369   -2.0558    0.0825 H         1 GTP         0.4224
     41 H1'        -0.1998   -1.6319    2.6178 H         1 GTP         0.0745
     42 H8         -2.4657   -0.0713   -0.0897 H         1 GTP         0.1522
     43 HN1        -3.7505   -6.2699    1.3904 H         1 GTP         0.3518
     44 HN21       -1.0023   -5.9289    3.6451 H         1 GTP         0.4761
     45 HN22       -2.2347   -6.9951    3.0150 H         1 GTP         0.4761
     46 H46        -0.8062   -3.6900    2.8760 H         1 GTP         0.5030
@<TRIPOS>BOND
     1    1    2 2
     2    1    3 1
     3    1    4 1
     4    1    5 1
     5    4   33 1
     6    5    6 1
     7    6    7 2
     8    6    8 1
     9    6    9 1
    10    9   10 1
    11   10   11 2
    12   10   12 1
    13   10   13 1
    14   13   14 1
    15   14   15 1
    16   14   34 1
    17   14   35 1
    18   15   16 1
    19   15   17 1
    20   15   36 1
    21   16   21 1
    22   17   18 1
    23   17   19 1
    24   17   37 1
    25   18   38 1
    26   19   20 1
    27   19   21 1
    28   19   39 1
    29   20   40 1
    30   21   22 1
    31   21   41 1
    32   22   23 ar
    33   22   32 ar
    34   23   24 ar
    35   23   42 1
    36   24   25 ar
    37   25   26 ar
    38   25   32 ar
    39   26   27 2
    40   26   28 ar
    41   28   29 ar
    42   28   43 1
    43   29   30 1
    44   29   31 ar
    45   30   44 1
    46   30   45 1
    47   31   32 ar
    48   31   46 1
@<TRIPOS>SUBSTRUCTURE
     1 GTP         1 GROUP 0 A     ****
@<TRIPOS>MOLECULE
[[[5-(2-amino-6-oxo-1,3-dihydropurin-2-ylium-9-yl)-3,4-dihydroxy-tetrahydrofuran-2-yl]methoxy-oxido-phosphoryl]oxy-oxido-phosphoryl] hydrogen phosphate
   46    48     1     0     0
SMALL
USER_CHARGES

@<TRIPOS>ATOM
      1 PG         -1.8959    7.4007   -2.3842 P.3       1 GTP         1.5400
      2 O1G        -0.6198    8.2094   -2.4547 O.co2     1 GTP        -0.8909
      3 O2G        -2.3782    6.6043   -3.5762 O.co2     1 GTP        -0.8909
      4 O3G        -3.1050    8.3815   -1.8924 O.3       1 GTP        -0.7980
      5 O3B        -1.8307    6.4179   -1.0828 O.3       1 GTP        -0.7612
      6 PB         -1.5294    6.7731    0.4821 P.3       1 GTP         1.5847
      7 O1B        -0.1039    7.2639    0.6020 O.co2     1 GTP        -0.8859
      8 O2B        -2.6897    7.5669    1.0399 O.co2     1 GTP        -0.8859
      9 O3A        -1.6454    5.2741    1.1179 O.3       1 GTP        -0.7486
     10 PA         -1.4709    4.7755    2.6641 P.3       1 GTP         1.5001
     11 O1A        -0.0423    5.0242    3.0972 O.co2     1 GTP        -0.8487
     12 O2A        -2.6365    5.2974    3.4757 O.co2     1 GTP        -0.8487
     13 O5'        -1.7336    3.1724    2.4750 O.3       1 GTP        -0.5474
     14 C5'        -0.8811    2.4285    1.6206 C.3       1 GTP         0.2547
     15 C4'        -0.1994    1.3333    2.4288 C.3       1 GTP         0.0926
     16 O4'        -1.1285    0.2356    2.5840 O.3       1 GTP        -0.3593
     17 C3'         1.0324    0.7610    1.7344 C.3       1 GTP         0.0907
     18 O3'         1.9175    0.2377    2.7247 O.3       1 GTP        -0.5209
     19 C2'         0.4468   -0.3802    0.9263 C.3       1 GTP         0.0305
     20 O2'         1.3993   -1.3703    0.5961 O.3       1 GTP        -0.5978
     21 C1'        -0.6159   -0.9100    1.8769 C.3       1 GTP         0.2339
     22 N9         -1.7127   -1.6108    1.2130 N.pl3     1 GTP        -0.1765
     23 C8         -2.8692   -1.0463    0.7355 C.ar      1 GTP         0.4947
     24 N7         -3.6707   -1.9381    0.1856 N.2       1 GTP        -0.5802
     25 C5         -3.0027   -3.1275    0.3134 C.ar      1 GTP         0.2279
     26 C6         -3.4659   -4.4142   -0.1355 C.ar      1 GTP         0.6513
     27 O6         -4.5328   -4.6133   -0.6980 O.2       1 GTP        -0.5111
     28 N1         -2.5102   -5.4606    0.1612 N.pl3     1 GTP        -0.4713
     29 C2         -1.2711   -5.2547    0.8113 C.ar      1 GTP         0.5256
     30 N2         -0.4228   -6.3256    1.0482 N.pl3     1 GTP        -0.8665
     31 N3         -0.9033   -3.9563    1.2146 N.pl3     1 GTP        -0.5398
     32 C4         -1.7979   -2.9400    0.9438 C.ar      1 GTP        -0.0275
     33 HOG3       -4.0044    8.0018   -1.7964 H         1 GTP         0.4161
     34 H5'        -1.4800    1.9927    0.8146 H         1 GTP         0.0348
     35 H5''       -0.1367    3.1040    1.1872 H         1 GTP         0.0348
     36 H4'         0.0403    1.7078    3.4343 H         1 GTP         0.1215
     37 H3'         1.5907    1.4859    1.1353 H         1 GTP         0.0576
     38 HO3'        2.1521    0.9800    3.3017 H         1 GTP         0.3842
     39 H2'        -0.0017    0.0018    0.0005 H         1 GTP         0.0252
     40 HO2'        1.7495   -1.7243    1.4324 H         1 GTP         0.4224
     41 H1'        -0.1998   -1.6319    2.6178 H         1 GTP         0.0745
     42 H8         -3.0691    0.0134    0.8177 H         1 GTP         0.1522
     43 HN1        -2.7468   -6.4119   -0.1177 H         1 GTP         0.3518
     44 HN21       -0.7258   -7.2071    0.7462 H         1 GTP         0.4761
     45 HN22        0.4235   -6.1295    1.5014 H         1 GTP         0.4761
     46 H46        -0.0124   -3.8015    1.6821 H         1 GTP         0.5030
@<TRIPOS>BOND
     1    1    2 2
     2    1    3 1
     3    1    4 1
     4    1    5 1
     5    4   33 1
     6    5    6 1
     7    6    7 2
     8    6    8 1
     9    6    9 1
    10    9   10 1
    11   10   11 2
    12   10   12 1
    13   10   13 1
    14   13   14 1
    15   14   15 1
    16   14   34 1
    17   14   35 1
    18   15   16 1
    19   15   17 1
    20   15   36 1
    21   16   21 1
    22   17   18 1
    23   17   19 1
    24   17   37 1
    25   18   38 1
    26   19   20 1
    27   19   21 1
    28   19   39 1
    29   20   40 1
    30   21   22 1
    31   21   41 1
    32   22   23 ar
    33   22   32 ar
    34   23   24 ar
    35   23   42 1
    36   24   25 ar
    37   25   26 ar
    38   25   32 ar
    39   26   27 2
    40   26   28 ar
    41   28   29 ar
    42   28   43 1
    43   29   30 1
    44   29   31 ar
    45   30   44 1
    46   30   45 1
    47   31   32 ar
    48   31   46 1
@<TRIPOS>SUBSTRUCTURE
     1 GTP         1 GROUP 0 A     ****
@<TRIPOS>MOLECULE
[[[5-(2-amino-6-oxo-1,3-dihydropurin-2-ylium-9-yl)-3,4-dihydroxy-tetrahydrofuran-2-yl]methoxy-oxido-phosphoryl]oxy-oxido-phosphoryl] hydrogen phosphate
   46    48     1     0     0
SMALL
USER_CHARGES

@<TRIPOS>ATOM
      1 PG         -0.1643    8.7462    1.9028 P.3       1 GTP         1.5400
      2 O1G         0.9426    8.7175    2.9331 O.co2     1 GTP        -0.8909
      3 O2G         0.0776    9.3030    0.5175 O.co2     1 GTP        -0.8909
      4 O3G        -1.4553    9.5083    2.5497 O.3       1 GTP        -0.7980
      5 O3B        -0.8031    7.2504    1.7677 O.3       1 GTP        -0.7612
      6 PB         -2.1077    6.7422    0.9279 P.3       1 GTP         1.5847
      7 O1B        -3.3453    7.3726    1.5264 O.co2     1 GTP        -0.8859
      8 O2B        -1.8085    6.8348   -0.5518 O.co2     1 GTP        -0.8859
      9 O3A        -2.0640    5.1559    1.3109 O.3       1 GTP        -0.7486
     10 PA         -2.1561    4.4278    2.7707 P.3       1 GTP         1.5001
     11 O1A        -0.9467    4.8245    3.5894 O.co2     1 GTP        -0.8487
     12 O2A        -3.5584    4.6024    3.3116 O.co2     1 GTP        -0.8487
     13 O5'        -2.0401    2.8620    2.3128 O.3       1 GTP        -0.5474
     14 C5'        -0.8811    2.4285    1.6206 C.3       1 GTP         0.2547
     15 C4'        -0.1994    1.3333    2.4288 C.3       1 GTP         0.0926
     16 O4'        -1.1285    0.2356    2.5840 O.3       1 GTP        -0.3593
     17 C3'         1.0324    0.7610    1.7344 C.3       1 GTP         0.0907
     18 O3'         1.9175    0.2377    2.7247 O.3       1 GTP        -0.5209
     19 C2'         0.4468   -0.3802    0.9263 C.3       1 GTP         0.0305
     20 O2'         1.3993   -1.3703    0.5961 O.3       1 GTP        -0.5978
     21 C1'        -0.6159   -0.9100    1.8769 C.3       1 GTP         0.2339
     22 N9         -1.7127   -1.6108    1.2130 N.pl3     1 GTP        -0.1765
     23 C8         -2.5534   -1.0907    0.2607 C.ar      1 GTP         0.4947
     24 N7         -3.4469   -1.9695   -0.1508 N.2       1 GTP        -0.5802
     25 C5         -3.1705   -3.1041    0.5657 C.ar      1 GTP         0.2279
     26 C6         -3.8738   -4.3568    0.4777 C.ar      1 GTP         0.6513
     27 O6         -4.8240   -4.5720   -0.2607 O.2       1 GTP        -0.5111
     28 N1         -3.3198   -5.3462    1.3780 N.pl3     1 GTP        -0.4713
     29 C2         -2.2226   -5.1203    2.2413 C.ar      1 GTP         0.5256
     30 N2         -1.7649   -6.1367    3.0659 N.pl3     1 GTP        -0.8665
     31 N3         -1.5969   -3.8585    2.2574 N.pl3     1 GTP        -0.5398
     32 C4         -2.1068   -2.8965    1.4082 C.ar      1 GTP        -0.0275
     33 HOG3       -2.2618    9.6086    2.0004 H         1 GTP         0.4161
     34 H5'        -1.1767    2.0502    0.6368 H         1 GTP         0.0348
     35 H5''       -0.2080    3.2814    1.4876 H         1 GTP         0.0348
     36 H4'         0.0403    1.7078    3.4343 H         1 GTP         0.1215
     37 H3'         1.5907    1.4859    1.1353 H         1 GTP         0.0576
     38 HO3'        2.6839   -0.1150    2.2479 H         1 GTP         0.3842
     39 H2'        -0.0017    0.0018    0.0005 H         1 GTP         0.0252
     40 HO2'        2.0953   -0.9375    0.0709 H         1 GTP         0.4224
     41 H1'        -0.1998   -1.6319    2.6178 H         1 GTP         0.0745
     42 H8         -2.4657   -0.0713   -0.0897 H         1 GTP         0.1522
     43 HN1        -3.7505   -6.2699    1.3904 H         1 GTP         0.3518
     44 HN21       -1.0023   -5.9289    3.6451 H         1 GTP         0.4761
     45 HN22       -2.2347   -6.9951    3.0150 H         1 GTP         0.4761
     46 H46        -0.8062   -3.6900    2.8760 H         1 GTP         0.5030
@<TRIPOS>BOND
     1    1    2 2
     2    1    3 1
     3    1    4 1
     4    1    5 1
     5    4   33 1
     6    5    6 1
     7    6    7 2
     8    6    8 1
     9    6    9 1
    10    9   10 1
    11   10   11 2
    12   10   12 1
    13   10   13 1
    14   13   14 1
    15   14   15 1
    16   14   34 1
    17   14   35 1
    18   15   16 1
    19   15   17 1
    20   15   36 1
    21   16   21 1
    22   17   18 1
    23   17   19 1
    24   17   37 1
    25   18   38 1
    26   19   20 1
    27   19   21 1
    28   19   39 1
    29   20   40 1
    30   21   22 1
    31   21   41 1
    32   22   23 ar
    33   22   32 ar
    34   23   24 ar
    35   23   42 1
    36   24   25 ar
    37   25   26 ar
    38   25   32 ar
    39   26   27 2
    40   26   28 ar
    41   28   29 ar
    42   28   43 1
    43   29   30 1
    44   29   31 ar
    45   30   44 1
    46   30   45 1
    47   31   32 ar
    48   31   46 1
@<TRIPOS>SUBSTRUCTURE
     1 GTP         1 GROUP 0 A     ****
@<TRIPOS>MOLECULE
[[[5-(2-amino-6-oxo-1,3-dihydropurin-2-ylium-9-yl)-3,4-dihydroxy-tetrahydrofuran-2-yl]methoxy-oxido-phosphoryl]oxy-oxido-phosphoryl] hydrogen phosphate
   46    48     1     0     0
SMALL
USER_CHARGES

@<TRIPOS>ATOM
      1 PG         -0.1895    2.4675   -3.5843 P.3       1 GTP         1.5400
      2 O1G         0.7838    3.2007   -4.4801 O.co2     1 GTP        -0.8909
      3 O2G         0.2913    1.7245   -2.3577 O.co2     1 GTP        -0.8909
      4 O3G        -1.0664    1.4404   -4.5019 O.3       1 GTP        -0.7980
      5 O3B        -1.3844    3.4903   -3.1485 O.3       1 GTP        -0.7612
      6 PB         -1.3288    4.8235   -2.2077 P.3       1 GTP         1.5847
      7 O1B        -0.2754    5.7602   -2.7559 O.co2     1 GTP        -0.8859
      8 O2B        -2.7401    5.2929   -1.9334 O.co2     1 GTP        -0.8859
      9 O3A        -0.7889    4.1455   -0.8244 O.3       1 GTP        -0.7486
     10 PA         -0.4665    4.8322    0.6228 P.3       1 GTP         1.5001
     11 O1A         0.6860    5.7988    0.4566 O.co2     1 GTP        -0.8487
     12 O2A        -1.7709    5.2708    1.2521 O.co2     1 GTP        -0.8487
     13 O5'         0.0178    3.5131    1.4595 O.3       1 GTP        -0.5474
     14 C5'        -0.8811    2.4285    1.6206 C.3       1 GTP         0.2547
     15 C4'        -0.1994    1.3333    2.4288 C.3       1 GTP         0.0926
     16 O4'        -1.1285    0.2356    2.5840 O.3       1 GTP        -0.3593
     17 C3'         1.0324    0.7610    1.7344 C.3       1 GTP         0.0907
     18 O3'         1.9175    0.2377    2.7247 O.3       1 GTP        -0.5209
     19 C2'         0.4468   -0.3802    0.9263 C.3       1 GTP         0.0305
     20 O2'         1.3993   -1.3703    0.5961 O.3       1 GTP        -0.5978
     21 C1'        -0.6159   -0.9100    1.8769 C.3       1 GTP         0.2339
     22 N9         -1.7127   -1.6108    1.2130 N.pl3     1 GTP        -0.1765
     23 C8         -3.0389   -1.2578    1.2391 C.ar      1 GTP         0.4947
     24 N7         -3.7909   -2.0880    0.5425 N.2       1 GTP        -0.5802
     25 C5         -2.9127   -3.0150    0.0458 C.ar      1 GTP         0.2279
     26 C6         -3.2467   -4.1411   -0.7860 C.ar      1 GTP         0.6513
     27 O6         -4.3761   -4.4189   -1.1621 O.2       1 GTP        -0.5111
     28 N1         -2.0748   -4.9191   -1.1296 N.pl3     1 GTP        -0.4713
     29 C2         -0.7595   -4.6181   -0.7058 C.ar      1 GTP         0.5256
     30 N2          0.2985   -5.4268   -1.0920 N.pl3     1 GTP        -0.8665
     31 N3         -0.5304   -3.4919    0.1084 N.pl3     1 GTP        -0.5398
     32 C4         -1.6318   -2.7332    0.4512 C.ar      1 GTP        -0.0275
     33 HOG3       -1.7474    0.8874   -4.0630 H         1 GTP         0.4161
     34 H5'        -1.7771    2.7849    2.1387 H         1 GTP         0.0348
     35 H5''       -1.1654    2.0541    0.6320 H         1 GTP         0.0348
     36 H4'         0.0403    1.7078    3.4343 H         1 GTP         0.1215
     37 H3'         1.5907    1.4859    1.1353 H         1 GTP         0.0576
     38 HO3'        2.1521    0.9800    3.3017 H         1 GTP         0.3842
     39 H2'        -0.0017    0.0018    0.0005 H         1 GTP         0.0252
     40 HO2'        1.7495   -1.7243    1.4324 H         1 GTP         0.4224
     41 H1'        -0.1998   -1.6319    2.6178 H         1 GTP         0.0745
     42 H8         -3.3933   -0.3909    1.7800 H         1 GTP         0.1522
     43 HN1        -2.2071   -5.7408   -1.7178 H         1 GTP         0.3518
     44 HN21        0.0848   -6.1964   -1.6597 H         1 GTP         0.4761
     45 HN22        1.1896   -5.1747   -0.7719 H         1 GTP         0.4761
     46 H46         0.4142   -3.2695    0.4160 H         1 GTP         0.5030
@<TRIPOS>BOND
     1    1    2 2
     2    1    3 1
     3    1    4 1
     4    1    5 1
     5    4   33 1
     6    5    6 1
     7    6    7 2
     8    6    8 1
     9    6    9 1
    10    9   10 1
    11   10   11 2
    12   10   12 1
    13   10   13 1
    14   13   14 1
    15   14   15 1
    16   14   34 1
    17   14   35 1
    18   15   16 1
    19   15   17 1
    20   15   36 1
    21   16   21 1
    22   17   18 1
    23   17   19 1
    24   17   37 1
    25   18   38 1
    26   19   20 1
    27   19   21 1
    28   19   39 1
    29   20   40 1
    30   21   22 1
    31   21   41 1
    32   22   23 ar
    33   22   32 ar
    34   23   24 ar
    35   23   42 1
    36   24   25 ar
    37   25   26 ar
    38   25   32 ar
    39   26   27 2
    40   26   28 ar
    41   28   29 ar
    42   28   43 1
    43   29   30 1
    44   29   31 ar
    45   30   44 1
    46   30   45 1
    47   31   32 ar
    48   31   46 1
@<TRIPOS>SUBSTRUCTURE
     1 GTP         1 GROUP 0 A     ****
@<TRIPOS>MOLECULE
[[[5-(2-amino-6-oxo-1,3-dihydropurin-2-ylium-9-yl)-3,4-dihydroxy-tetrahydrofuran-2-yl]methoxy-oxido-phosphoryl]oxy-oxido-phosphoryl] hydrogen phosphate
   46    48     1     0     0
SMALL
USER_CHARGES

@<TRIPOS>ATOM
      1 PG          1.5634    7.9630    3.8976 P.3       1 GTP         1.5400
      2 O1G         2.7858    7.3828    4.5733 O.co2     1 GTP        -0.8909
      3 O2G         1.6990    8.9225    2.7363 O.co2     1 GTP        -0.8909
      4 O3G         0.6217    8.6573    5.0365 O.3       1 GTP        -0.7980
      5 O3B         0.5678    6.7446    3.4637 O.3       1 GTP        -0.7612
      6 PB         -0.9420    6.7977    2.8447 P.3       1 GTP         1.5847
      7 O1B        -1.8726    7.3789    3.8857 O.co2     1 GTP        -0.8859
      8 O2B        -0.8798    7.3538    1.4395 O.co2     1 GTP        -0.8859
      9 O3A        -1.2210    5.1961    2.6972 O.3       1 GTP        -0.7486
     10 PA         -2.5400    4.4095    2.1393 P.3       1 GTP         1.5001
     11 O1A        -3.7027    4.6909    3.0663 O.co2     1 GTP        -0.8487
     12 O2A        -2.6521    4.6480    0.6493 O.co2     1 GTP        -0.8487
     13 O5'        -2.0401    2.8620    2.3128 O.3       1 GTP        -0.5474
     14 C5'        -0.8811    2.4285    1.6206 C.3       1 GTP         0.2547
     15 C4'        -0.1994    1.3333    2.4288 C.3       1 GTP         0.0926
     16 O4'        -1.1285    0.2356    2.5840 O.3       1 GTP        -0.3593
     17 C3'         1.0324    0.7610    1.7344 C.3       1 GTP         0.0907
     18 O3'         1.9175    0.2377    2.7247 O.3       1 GTP        -0.5209
     19 C2'         0.4468   -0.3802    0.9263 C.3       1 GTP         0.0305
     20 O2'         1.3993   -1.3703    0.5961 O.3       1 GTP        -0.5978
     21 C1'        -0.6159   -0.9100    1.8769 C.3       1 GTP         0.2339
     22 N9         -1.7127   -1.6108    1.2130 N.pl3     1 GTP        -0.1765
     23 C8         -2.5534   -1.0907    0.2607 C.ar      1 GTP         0.4947
     24 N7         -3.4469   -1.9695   -0.1508 N.2       1 GTP        -0.5802
     25 C5         -3.1705   -3.1041    0.5657 C.ar      1 GTP         0.2279
     26 C6         -3.8738   -4.3568    0.4777 C.ar      1 GTP         0.6513
     27 O6         -4.8240   -4.5720   -0.2607 O.2       1 GTP        -0.5111
     28 N1         -3.3198   -5.3462    1.3780 N.pl3     1 GTP        -0.4713
     29 C2         -2.2226   -5.1203    2.2413 C.ar      1 GTP         0.5256
     30 N2         -1.7649   -6.1367    3.0659 N.pl3     1 GTP        -0.8665
     31 N3         -1.5969   -3.8585    2.2574 N.pl3     1 GTP        -0.5398
     32 C4         -2.1068   -2.8965    1.4082 C.ar      1 GTP        -0.0275
     33 HOG3       -0.2163    9.0820    4.7541 H         1 GTP         0.4161
     34 H5'        -1.1767    2.0502    0.6368 H         1 GTP         0.0348
     35 H5''       -0.2080    3.2814    1.4876 H         1 GTP         0.0348
     36 H4'         0.0403    1.7078    3.4343 H         1 GTP         0.1215
     37 H3'         1.5907    1.4859    1.1353 H         1 GTP         0.0576
     38 HO3'        2.6839   -0.1150    2.2479 H         1 GTP         0.3842
     39 H2'        -0.0017    0.0018    0.0005 H         1 GTP         0.0252
     40 HO2'        2.0953   -0.9375    0.0709 H         1 GTP         0.4224
     41 H1'        -0.1998   -1.6319    2.6178 H         1 GTP         0.0745
     42 H8         -2.4657   -0.0713   -0.0897 H         1 GTP         0.1522
     43 HN1        -3.7505   -6.2699    1.3904 H         1 GTP         0.3518
     44 HN21       -1.0023   -5.9289    3.6451 H         1 GTP         0.4761
     45 HN22       -2.2347   -6.9951    3.0150 H         1 GTP         0.4761
     46 H46        -0.8062   -3.6900    2.8760 H         1 GTP         0.5030
@<TRIPOS>BOND
     1    1    2 2
     2    1    3 1
     3    1    4 1
     4    1    5 1
     5    4   33 1
     6    5    6 1
     7    6    7 2
     8    6    8 1
     9    6    9 1
    10    9   10 1
    11   10   11 2
    12   10   12 1
    13   10   13 1
    14   13   14 1
    15   14   15 1
    16   14   34 1
    17   14   35 1
    18   15   16 1
    19   15   17 1
    20   15   36 1
    21   16   21 1
    22   17   18 1
    23   17   19 1
    24   17   37 1
    25   18   38 1
    26   19   20 1
    27   19   21 1
    28   19   39 1
    29   20   40 1
    30   21   22 1
    31   21   41 1
    32   22   23 ar
    33   22   32 ar
    34   23   24 ar
    35   23   42 1
    36   24   25 ar
    37   25   26 ar
    38   25   32 ar
    39   26   27 2
    40   26   28 ar
    41   28   29 ar
    42   28   43 1
    43   29   30 1
    44   29   31 ar
    45   30   44 1
    46   30   45 1
    47   31   32 ar
    48   31   46 1
@<TRIPOS>SUBSTRUCTURE
     1 GTP         1 GROUP 0 A     ****
@<TRIPOS>MOLECULE
[[[5-(2-amino-6-oxo-1,3-dihydropurin-2-ylium-9-yl)-3,4-dihydroxy-tetrahydrofuran-2-yl]methoxy-oxido-phosphoryl]oxy-oxido-phosphoryl] hydrogen phosphate
   46    48     1     0     0
SMALL
USER_CHARGES

@<TRIPOS>ATOM
      1 PG          3.9941    3.7482   -2.9207 P.3       1 GTP         1.5400
      2 O1G         3.9860    3.1550   -4.3119 O.co2     1 GTP        -0.8909
      3 O2G         4.2622    5.2211   -2.7053 O.co2     1 GTP        -0.8909
      4 O3G         5.0335    2.8917   -1.9977 O.3       1 GTP        -0.7980
      5 O3B         2.6046    3.3473   -2.1642 O.3       1 GTP        -0.7612
      6 PB          1.0699    3.8028   -2.4851 P.3       1 GTP         1.5847
      7 O1B         0.9436    5.2895   -2.2376 O.co2     1 GTP        -0.8859
      8 O2B         0.6327    3.1775   -3.7910 O.co2     1 GTP        -0.8859
      9 O3A         0.3009    2.9854   -1.2996 O.3       1 GTP        -0.7486
     10 PA         -1.2907    2.9172   -0.9365 P.3       1 GTP         1.5001
     11 O1A        -1.7514    4.2936   -0.5082 O.co2     1 GTP        -0.8487
     12 O2A        -2.0058    2.1592   -2.0337 O.co2     1 GTP        -0.8487
     13 O5'        -1.2434    1.9104    0.3515 O.3       1 GTP        -0.5474
     14 C5'        -0.8811    2.4285    1.6206 C.3       1 GTP         0.2547
     15 C4'        -0.1994    1.3333    2.4288 C.3       1 GTP         0.0926
     16 O4'        -1.1285    0.2356    2.5840 O.3       1 GTP        -0.3593
     17 C3'         1.0324    0.7610    1.7344 C.3       1 GTP         0.0907
     18 O3'         1.9175    0.2377    2.7247 O.3       1 GTP        -0.5209
     19 C2'         0.4468   -0.3802    0.9263 C.3       1 GTP         0.0305
     20 O2'         1.3993   -1.3703    0.5961 O.3       1 GTP        -0.5978
     21 C1'        -0.6159   -0.9100    1.8769 C.3       1 GTP         0.2339
     22 N9         -1.7127   -1.6108    1.2130 N.pl3     1 GTP        -0.1765
     23 C8         -2.8692   -1.0463    0.7355 C.ar      1 GTP         0.4947
     24 N7         -3.6707   -1.9381    0.1856 N.2       1 GTP        -0.5802
     25 C5         -3.0027   -3.1275    0.3134 C.ar      1 GTP         0.2279
     26 C6         -3.4659   -4.4142   -0.1355 C.ar      1 GTP         0.6513
     27 O6         -4.5328   -4.6133   -0.6980 O.2       1 GTP        -0.5111
     28 N1         -2.5102   -5.4606    0.1612 N.pl3     1 GTP        -0.4713
     29 C2         -1.2711   -5.2547    0.8113 C.ar      1 GTP         0.5256
     30 N2         -0.4228   -6.3256    1.0482 N.pl3     1 GTP        -0.8665
     31 N3         -0.9033   -3.9563    1.2146 N.pl3     1 GTP        -0.5398
     32 C4         -1.7979   -2.9400    0.9438 C.ar      1 GTP        -0.0275
     33 HOG3        5.1517    3.1552   -1.0603 H         1 GTP         0.4161
     34 H5'        -0.2033    3.2760    1.4769 H         1 GTP         0.0348
     35 H5''       -1.7841    2.7762    2.1323 H         1 GTP         0.0348
     36 H4'         0.0403    1.7078    3.4343 H         1 GTP         0.1215
     37 H3'         1.5907    1.4859    1.1353 H         1 GTP         0.0576
     38 HO3'        2.6839   -0.1150    2.2479 H         1 GTP         0.3842
     39 H2'        -0.0017    0.0018    0.0005 H         1 GTP         0.0252
     40 HO2'        2.0953   -0.9375    0.0709 H         1 GTP         0.4224
     41 H1'        -0.1998   -1.6319    2.6178 H         1 GTP         0.0745
     42 H8         -3.0691    0.0134    0.8177 H         1 GTP         0.1522
     43 HN1        -2.7468   -6.4119   -0.1177 H         1 GTP         0.3518
     44 HN21        0.4233   -6.1297    1.5018 H         1 GTP         0.4761
     45 HN22       -0.7261   -7.2071    0.7466 H         1 GTP         0.4761
     46 H46        -0.0124   -3.8015    1.6821 H         1 GTP         0.5030
@<TRIPOS>BOND
     1    1    2 2
     2    1    3 1
     3    1    4 1
     4    1    5 1
     5    4   33 1
     6    5    6 1
     7    6    7 2
     8    6    8 1
     9    6    9 1
    10    9   10 1
    11   10   11 2
    12   10   12 1
    13   10   13 1
    14   13   14 1
    15   14   15 1
    16   14   34 1
    17   14   35 1
    18   15   16 1
    19   15   17 1
    20   15   36 1
    21   16   21 1
    22   17   18 1
    23   17   19 1
    24   17   37 1
    25   18   38 1
    26   19   20 1
    27   19   21 1
    28   19   39 1
    29   20   40 1
    30   21   22 1
    31   21   41 1
    32   22   23 ar
    33   22   32 ar
    34   23   24 ar
    35   23   42 1
    36   24   25 ar
    37   25   26 ar
    38   25   32 ar
    39   26   27 2
    40   26   28 ar
    41   28   29 ar
    42   28   43 1
    43   29   30 1
    44   29   31 ar
    45   30   44 1
    46   30   45 1
    47   31   32 ar
    48   31   46 1
@<TRIPOS>SUBSTRUCTURE
     1 GTP         1 GROUP 0 A     ****
@<TRIPOS>MOLECULE
[[[5-(2-amino-6-oxo-1,3-dihydropurin-2-ylium-9-yl)-3,4-dihydroxy-tetrahydrofuran-2-yl]methoxy-oxido-phosphoryl]oxy-oxido-phosphoryl] hydrogen phosphate
   46    48     1     0     0
SMALL
USER_CHARGES

@<TRIPOS>ATOM
      1 PG          3.5809    5.3988   -3.7298 P.3       1 GTP         1.5400
      2 O1G         3.5080    5.2224   -5.2301 O.co2     1 GTP        -0.8909
      3 O2G         2.7258    4.5601   -2.8061 O.co2     1 GTP        -0.8909
      4 O3G         3.3309    6.9739   -3.3799 O.3       1 GTP        -0.7980
      5 O3B         5.1388    5.2853   -3.2567 O.3       1 GTP        -0.7612
      6 PB          6.1484    4.0025   -3.2808 P.3       1 GTP         1.5847
      7 O1B         6.1879    3.4429   -4.6854 O.co2     1 GTP        -0.8859
      8 O2B         7.4149    4.3574   -2.5341 O.co2     1 GTP        -0.8859
      9 O3A         5.3088    2.9902   -2.3139 O.3       1 GTP        -0.7486
     10 PA          5.6603    1.4687   -1.8328 P.3       1 GTP         1.5001
     11 O1A         5.6670    0.5641   -3.0461 O.co2     1 GTP        -0.8487
     12 O2A         6.8417    1.5200   -0.8887 O.co2     1 GTP        -0.8487
     13 O5'         4.3516    1.1575   -0.9026 O.3       1 GTP        -0.5474
     14 C5'         4.0922    1.9801    0.2227 C.3       1 GTP         0.2547
     15 C4'         2.5944    2.0310    0.4653 C.3       1 GTP         0.0926
     16 O4'         1.9327    2.5740   -0.6889 O.3       1 GTP        -0.3593
     17 C3'         1.9685    0.6634    0.6767 C.3       1 GTP         0.0907
     18 O3'         2.1425    0.1975    1.9977 O.3       1 GTP        -0.5209
     19 C2'         0.5176    0.9128    0.3099 C.3       1 GTP         0.0305
     20 O2'        -0.2103    1.4454    1.4152 O.3       1 GTP        -0.5978
     21 C1'         0.6219    1.9765   -0.7844 C.3       1 GTP         0.2339
     22 N9          0.4237    1.4496   -2.1357 N.pl3     1 GTP        -0.1765
     23 C8          1.3988    0.9691   -2.9736 C.ar      1 GTP         0.4947
     24 N7          0.9092    0.5634   -4.1293 N.2       1 GTP        -0.5802
     25 C5         -0.4383    0.7914   -4.0325 C.ar      1 GTP         0.2279
     26 C6         -1.4217    0.5138   -5.0461 C.ar      1 GTP         0.6513
     27 O6         -1.1759    0.0306   -6.1417 O.2       1 GTP        -0.5111
     28 N1         -2.7543    0.8794   -4.6134 N.pl3     1 GTP        -0.4713
     29 C2         -3.0626    1.4402   -3.3523 C.ar      1 GTP         0.5256
     30 N2         -4.3747    1.7544   -3.0321 N.pl3     1 GTP        -0.8665
     31 N3         -2.0304    1.6759   -2.4233 N.pl3     1 GTP        -0.5398
     32 C4         -0.7497    1.3366   -2.8118 C.ar      1 GTP        -0.0275
     33 HOG3        3.3475    7.2516   -2.4392 H         1 GTP         0.4161
     34 H5'         4.6069    1.5618    1.0936 H         1 GTP         0.0348
     35 H5''        4.4824    2.9837    0.0254 H         1 GTP         0.0348
     36 H4'         2.3752    2.7029    1.3156 H         1 GTP         0.1215
     37 H3'         2.4336   -0.1217   -0.0015 H         1 GTP         0.0576
     38 HO3'        1.7160   -0.6716    2.0397 H         1 GTP         0.3842
     39 H2'         0.0316    0.0155   -0.0339 H         1 GTP         0.0252
     40 HO2'       -0.1608    0.7921    2.1351 H         1 GTP         0.4224
     41 H1'        -0.1474    2.7798   -0.6651 H         1 GTP         0.0745
     42 H8          2.4413    0.9409   -2.6872 H         1 GTP         0.1522
     43 HN1        -3.5236    0.7214   -5.2629 H         1 GTP         0.3518
     44 HN21       -4.5350    2.1409   -2.1461 H         1 GTP         0.4761
     45 HN22       -5.0542    1.5695   -3.7134 H         1 GTP         0.4761
     46 H46        -2.2462    2.0786   -1.5136 H         1 GTP         0.5030
@<TRIPOS>BOND
     1    1    2 2
     2    1    3 1
     3    1    4 1
     4    1    5 1
     5    4   33 1
     6    5    6 1
     7    6    7 2
     8    6    8 1
     9    6    9 1
    10    9   10 1
    11   10   11 2
    12   10   12 1
    13   10   13 1
    14   13   14 1
    15   14   15 1
    16   14   34 1
    17   14   35 1
    18   15   16 1
    19   15   17 1
    20   15   36 1
    21   16   21 1
    22   17   18 1
    23   17   19 1
    24   17   37 1
    25   18   38 1
    26   19   20 1
    27   19   21 1
    28   19   39 1
    29   20   40 1
    30   21   22 1
    31   21   41 1
    32   22   23 ar
    33   22   32 ar
    34   23   24 ar
    35   23   42 1
    36   24   25 ar
    37   25   26 ar
    38   25   32 ar
    39   26   27 2
    40   26   28 ar
    41   28   29 ar
    42   28   43 1
    43   29   30 1
    44   29   31 ar
    45   30   44 1
    46   30   45 1
    47   31   32 ar
    48   31   46 1
@<TRIPOS>SUBSTRUCTURE
     1 GTP         1 GROUP 0 A     ****
@<TRIPOS>MOLECULE
[[[5-(2-amino-6-oxo-1,3-dihydropurin-2-ylium-9-yl)-3,4-dihydroxy-tetrahydrofuran-2-yl]methoxy-oxido-phosphoryl]oxy-oxido-phosphoryl] hydrogen phosphate
   46    48     1     0     0
SMALL
USER_CHARGES

@<TRIPOS>ATOM
      1 PG         -2.0236    4.4335   -4.3108 P.3       1 GTP         1.5400
      2 O1G        -1.3471    5.6571   -4.8877 O.co2     1 GTP        -0.8909
      3 O2G        -2.2167    3.1864   -5.1447 O.co2     1 GTP        -0.8909
      4 O3G        -3.4715    4.8797   -3.7024 O.3       1 GTP        -0.7980
      5 O3B        -1.2840    4.0265   -2.9140 O.3       1 GTP        -0.7612
      6 PB          0.2279    3.4669   -2.6554 P.3       1 GTP         1.5847
      7 O1B         0.3530    2.0986   -3.2874 O.co2     1 GTP        -0.8859
      8 O2B         1.2195    4.5698   -2.9520 O.co2     1 GTP        -0.8859
      9 O3A         0.1765    3.3147   -1.0309 O.3       1 GTP        -0.7486
     10 PA         -0.0889    4.4444    0.1193 P.3       1 GTP         1.5001
     11 O1A         1.0444    5.4470    0.0872 O.co2     1 GTP        -0.8487
     12 O2A        -1.5319    4.8920    0.0350 O.co2     1 GTP        -0.8487
     13 O5'         0.0178    3.5131    1.4595 O.3       1 GTP        -0.5474
     14 C5'        -0.8811    2.4285    1.6206 C.3       1 GTP         0.2547
     15 C4'        -0.1994    1.3333    2.4288 C.3       1 GTP         0.0926
     16 O4'        -1.1285    0.2356    2.5840 O.3       1 GTP        -0.3593
     17 C3'         1.0324    0.7610    1.7344 C.3       1 GTP         0.0907
     18 O3'         1.9175    0.2377    2.7247 O.3       1 GTP        -0.5209
     19 C2'         0.4468   -0.3802    0.9263 C.3       1 GTP         0.0305
     20 O2'         1.3993   -1.3703    0.5961 O.3       1 GTP        -0.5978
     21 C1'        -0.6159   -0.9100    1.8769 C.3       1 GTP         0.2339
     22 N9         -1.7127   -1.6108    1.2130 N.pl3     1 GTP        -0.1765
     23 C8         -1.7789   -2.9564    0.9503 C.ar      1 GTP         0.4947
     24 N7         -2.8980   -3.2916    0.3377 N.2       1 GTP        -0.5802
     25 C5         -3.5824   -2.1127    0.2000 C.ar      1 GTP         0.2279
     26 C6         -4.8740   -1.9471   -0.4133 C.ar      1 GTP         0.6513
     27 O6         -5.5366   -2.8529   -0.8978 O.2       1 GTP        -0.5111
     28 N1         -5.3036   -0.5645   -0.3916 N.pl3     1 GTP        -0.4713
     29 C2         -4.5545    0.4997    0.1619 C.ar      1 GTP         0.5256
     30 N2         -5.0561    1.7921    0.1348 N.pl3     1 GTP        -0.8665
     31 N3         -3.2977    0.2393    0.7420 N.pl3     1 GTP        -0.5398
     32 C4         -2.8643   -1.0716    0.7336 C.ar      1 GTP        -0.0275
     33 HOG3       -4.0362    4.1922   -3.2891 H         1 GTP         0.4161
     34 H5'        -1.7771    2.7849    2.1387 H         1 GTP         0.0348
     35 H5''       -1.1654    2.0541    0.6320 H         1 GTP         0.0348
     36 H4'         0.0403    1.7078    3.4343 H         1 GTP         0.1215
     37 H3'         1.5907    1.4859    1.1353 H         1 GTP         0.0576
     38 HO3'        2.6839   -0.1150    2.2479 H         1 GTP         0.3842
     39 H2'        -0.0017    0.0018    0.0005 H         1 GTP         0.0252
     40 HO2'        2.0953   -0.9375    0.0709 H         1 GTP         0.4224
     41 H1'        -0.1998   -1.6319    2.6178 H         1 GTP         0.0745
     42 H8         -0.9852   -3.6367    1.2276 H         1 GTP         0.1522
     43 HN1        -6.2089   -0.3428   -0.8039 H         1 GTP         0.3518
     44 HN21       -4.4981    2.4933    0.5311 H         1 GTP         0.4761
     45 HN22       -5.9352    1.9183   -0.2793 H         1 GTP         0.4761
     46 H46        -2.7541    1.0010    1.1428 H         1 GTP         0.5030
@<TRIPOS>BOND
     1    1    2 2
     2    1    3 1
     3    1    4 1
     4    1    5 1
     5    4   33 1
     6    5    6 1
     7    6    7 2
     8    6    8 1
     9    6    9 1
    10    9   10 1
    11   10   11 2
    12   10   12 1
    13   10   13 1
    14   13   14 1
    15   14   15 1
    16   14   34 1
    17   14   35 1
    18   15   16 1
    19   15   17 1
    20   15   36 1
    21   16   21 1
    22   17   18 1
    23   17   19 1
    24   17   37 1
    25   18   38 1
    26   19   20 1
    27   19   21 1
    28   19   39 1
    29   20   40 1
    30   21   22 1
    31   21   41 1
    32   22   23 ar
    33   22   32 ar
    34   23   24 ar
    35   23   42 1
    36   24   25 ar
    37   25   26 ar
    38   25   32 ar
    39   26   27 2
    40   26   28 ar
    41   28   29 ar
    42   28   43 1
    43   29   30 1
    44   29   31 ar
    45   30   44 1
    46   30   45 1
    47   31   32 ar
    48   31   46 1
@<TRIPOS>SUBSTRUCTURE
     1 GTP         1 GROUP 0 A     ****
@<TRIPOS>MOLECULE
[[[5-(2-amino-6-oxo-1,3-dihydropurin-2-ylium-9-yl)-3,4-dihydroxy-tetrahydrofuran-2-yl]methoxy-oxido-phosphoryl]oxy-oxido-phosphoryl] hydrogen phosphate
   46    48     1     0     0
SMALL
USER_CHARGES

@<TRIPOS>ATOM
      1 PG         -1.9403    9.3831    1.3204 P.3       1 GTP         1.5400
      2 O1G        -2.3938    9.7223   -0.0820 O.co2     1 GTP        -0.8909
      3 O2G        -2.7333    9.8384    2.5252 O.co2     1 GTP        -0.8909
      4 O3G        -0.3948    9.8784    1.4997 O.3       1 GTP        -0.7980
      5 O3B        -1.6969    7.7727    1.4251 O.3       1 GTP        -0.7612
      6 PB         -2.7700    6.5451    1.3406 P.3       1 GTP         1.5847
      7 O1B        -3.6960    6.6276    2.5336 O.co2     1 GTP        -0.8859
      8 O2B        -3.3041    6.4530   -0.0714 O.co2     1 GTP        -0.8859
      9 O3A        -1.7457    5.2883    1.5313 O.3       1 GTP        -0.7486
     10 PA         -0.4665    4.8322    0.6228 P.3       1 GTP         1.5001
     11 O1A        -0.9631    4.4288   -0.7487 O.co2     1 GTP        -0.8487
     12 O2A         0.6338    5.8580    0.7859 O.co2     1 GTP        -0.8487
     13 O5'         0.0178    3.5131    1.4595 O.3       1 GTP        -0.5474
     14 C5'        -0.8811    2.4285    1.6206 C.3       1 GTP         0.2547
     15 C4'        -0.1994    1.3333    2.4288 C.3       1 GTP         0.0926
     16 O4'        -1.1285    0.2356    2.5840 O.3       1 GTP        -0.3593
     17 C3'         1.0324    0.7610    1.7344 C.3       1 GTP         0.0907
     18 O3'         1.9175    0.2377    2.7247 O.3       1 GTP        -0.5209
     19 C2'         0.4468   -0.3802    0.9263 C.3       1 GTP         0.0305
     20 O2'         1.3993   -1.3703    0.5961 O.3       1 GTP        -0.5978
     21 C1'        -0.6159   -0.9100    1.8769 C.3       1 GTP         0.2339
     22 N9         -1.7127   -1.6108    1.2130 N.pl3     1 GTP        -0.1765
     23 C8         -1.7789   -2.9564    0.9503 C.ar      1 GTP         0.4947
     24 N7         -2.8980   -3.2916    0.3377 N.2       1 GTP        -0.5802
     25 C5         -3.5824   -2.1127    0.2000 C.ar      1 GTP         0.2279
     26 C6         -4.8740   -1.9471   -0.4133 C.ar      1 GTP         0.6513
     27 O6         -5.5366   -2.8529   -0.8978 O.2       1 GTP        -0.5111
     28 N1         -5.3036   -0.5645   -0.3916 N.pl3     1 GTP        -0.4713
     29 C2         -4.5545    0.4997    0.1619 C.ar      1 GTP         0.5256
     30 N2         -5.0561    1.7921    0.1348 N.pl3     1 GTP        -0.8665
     31 N3         -3.2977    0.2393    0.7420 N.pl3     1 GTP        -0.5398
     32 C4         -2.8643   -1.0716    0.7336 C.ar      1 GTP        -0.0275
     33 HOG3        0.0464    9.7283    2.3629 H         1 GTP         0.4161
     34 H5'        -1.7771    2.7849    2.1387 H         1 GTP         0.0348
     35 H5''       -1.1654    2.0541    0.6320 H         1 GTP         0.0348
     36 H4'         0.0403    1.7078    3.4343 H         1 GTP         0.1215
     37 H3'         1.5907    1.4859    1.1353 H         1 GTP         0.0576
     38 HO3'        2.6839   -0.1150    2.2479 H         1 GTP         0.3842
     39 H2'        -0.0017    0.0018    0.0005 H         1 GTP         0.0252
     40 HO2'        2.0953   -0.9375    0.0709 H         1 GTP         0.4224
     41 H1'        -0.1998   -1.6319    2.6178 H         1 GTP         0.0745
     42 H8         -0.9852   -3.6367    1.2276 H         1 GTP         0.1522
     43 HN1        -6.2089   -0.3428   -0.8039 H         1 GTP         0.3518
     44 HN21       -4.4981    2.4933    0.5311 H         1 GTP         0.4761
     45 HN22       -5.9352    1.9183   -0.2793 H         1 GTP         0.4761
     46 H46        -2.7541    1.0010    1.1428 H         1 GTP         0.5030
@<TRIPOS>BOND
     1    1    2 2
     2    1    3 1
     3    1    4 1
     4    1    5 1
     5    4   33 1
     6    5    6 1
     7    6    7 2
     8    6    8 1
     9    6    9 1
    10    9   10 1
    11   10   11 2
    12   10   12 1
    13   10   13 1
    14   13   14 1
    15   14   15 1
    16   14   34 1
    17   14   35 1
    18   15   16 1
    19   15   17 1
    20   15   36 1
    21   16   21 1
    22   17   18 1
    23   17   19 1
    24   17   37 1
    25   18   38 1
    26   19   20 1
    27   19   21 1
    28   19   39 1
    29   20   40 1
    30   21   22 1
    31   21   41 1
    32   22   23 ar
    33   22   32 ar
    34   23   24 ar
    35   23   42 1
    36   24   25 ar
    37   25   26 ar
    38   25   32 ar
    39   26   27 2
    40   26   28 ar
    41   28   29 ar
    42   28   43 1
    43   29   30 1
    44   29   31 ar
    45   30   44 1
    46   30   45 1
    47   31   32 ar
    48   31   46 1
@<TRIPOS>SUBSTRUCTURE
     1 GTP         1 GROUP 0 A     ****
@<TRIPOS>MOLECULE
[[[5-(2-amino-6-oxo-1,3-dihydropurin-2-ylium-9-yl)-3,4-dihydroxy-tetrahydrofuran-2-yl]methoxy-oxido-phosphoryl]oxy-oxido-phosphoryl] hydrogen phosphate
   46    48     1     0     0
SMALL
USER_CHARGES

@<TRIPOS>ATOM
      1 PG         -6.5355    3.0537   -1.4287 P.3       1 GTP         1.5400
      2 O1G        -7.0619    1.6806   -1.7820 O.co2     1 GTP        -0.8909
      3 O2G        -7.4804    4.1836   -1.0847 O.co2     1 GTP        -0.8909
      4 O3G        -5.5443    3.5532   -2.6261 O.3       1 GTP        -0.7980
      5 O3B        -5.4293    2.9081   -0.2375 O.3       1 GTP        -0.7612
      6 PB         -5.6201    2.4439    1.3161 P.3       1 GTP         1.5847
      7 O1B        -6.4642    3.4759    2.0303 O.co2     1 GTP        -0.8859
      8 O2B        -5.9697    0.9728    1.3521 O.co2     1 GTP        -0.8859
      9 O3A        -4.0713    2.5645    1.8176 O.3       1 GTP        -0.7486
     10 PA         -3.0798    3.8627    1.8536 P.3       1 GTP         1.5001
     11 O1A        -2.8255    4.3201    0.4336 O.co2     1 GTP        -0.8487
     12 O2A        -3.5807    4.8256    2.9078 O.co2     1 GTP        -0.8487
     13 O5'        -1.7336    3.1724    2.4750 O.3       1 GTP        -0.5474
     14 C5'        -0.8811    2.4285    1.6206 C.3       1 GTP         0.2547
     15 C4'        -0.1994    1.3333    2.4288 C.3       1 GTP         0.0926
     16 O4'        -1.1285    0.2356    2.5840 O.3       1 GTP        -0.3593
     17 C3'         1.0324    0.7610    1.7344 C.3       1 GTP         0.0907
     18 O3'         1.9175    0.2377    2.7247 O.3       1 GTP        -0.5209
     19 C2'         0.4468   -0.3802    0.9263 C.3       1 GTP         0.0305
     20 O2'         1.3993   -1.3703    0.5961 O.3       1 GTP        -0.5978
     21 C1'        -0.6159   -0.9100    1.8769 C.3       1 GTP         0.2339
     22 N9         -1.7127   -1.6108    1.2130 N.pl3     1 GTP        -0.1765
     23 C8         -1.6311   -2.3341    0.0493 C.ar      1 GTP         0.4947
     24 N7         -2.7933   -2.8506   -0.3007 N.2       1 GTP        -0.5802
     25 C5         -3.6607   -2.4436    0.6786 C.ar      1 GTP         0.2279
     26 C6         -5.0651   -2.7506    0.7505 C.ar      1 GTP         0.6513
     27 O6         -5.6735   -3.4256   -0.0671 O.2       1 GTP        -0.5111
     28 N1         -5.6834   -2.1585    1.9182 N.pl3     1 GTP        -0.4713
     29 C2         -5.0007   -1.3738    2.8765 C.ar      1 GTP         0.5256
     30 N2         -5.6847   -0.8521    3.9640 N.pl3     1 GTP        -0.8665
     31 N3         -3.6227   -1.1271    2.7212 N.pl3     1 GTP        -0.5398
     32 C4         -3.0090   -1.6802    1.6149 C.ar      1 GTP        -0.0275
     33 HOG3       -5.1197    4.4336   -2.5440 H         1 GTP         0.4161
     34 H5'        -1.4800    1.9927    0.8146 H         1 GTP         0.0348
     35 H5''       -0.1367    3.1040    1.1872 H         1 GTP         0.0348
     36 H4'         0.0403    1.7078    3.4343 H         1 GTP         0.1215
     37 H3'         1.5907    1.4859    1.1353 H         1 GTP         0.0576
     38 HO3'        2.1521    0.9800    3.3017 H         1 GTP         0.3842
     39 H2'        -0.0017    0.0018    0.0005 H         1 GTP         0.0252
     40 HO2'        2.0953   -0.9375    0.0709 H         1 GTP         0.4224
     41 H1'        -0.1998   -1.6319    2.6178 H         1 GTP         0.0745
     42 H8         -0.7029   -2.4474   -0.4941 H         1 GTP         0.1522
     43 HN1        -6.6800   -2.3183    2.0594 H         1 GTP         0.3518
     44 HN21       -5.1660   -0.3153    4.5987 H         1 GTP         0.4761
     45 HN22       -6.6415   -1.0545    4.0252 H         1 GTP         0.4761
     46 H46        -3.1256   -0.5638    3.4080 H         1 GTP         0.5030
@<TRIPOS>BOND
     1    1    2 2
     2    1    3 1
     3    1    4 1
     4    1    5 1
     5    4   33 1
     6    5    6 1
     7    6    7 2
     8    6    8 1
     9    6    9 1
    10    9   10 1
    11   10   11 2
    12   10   12 1
    13   10   13 1
    14   13   14 1
    15   14   15 1
    16   14   34 1
    17   14   35 1
    18   15   16 1
    19   15   17 1
    20   15   36 1
    21   16   21 1
    22   17   18 1
    23   17   19 1
    24   17   37 1
    25   18   38 1
    26   19   20 1
    27   19   21 1
    28   19   39 1
    29   20   40 1
    30   21   22 1
    31   21   41 1
    32   22   23 ar
    33   22   32 ar
    34   23   24 ar
    35   23   42 1
    36   24   25 ar
    37   25   26 ar
    38   25   32 ar
    39   26   27 2
    40   26   28 ar
    41   28   29 ar
    42   28   43 1
    43   29   30 1
    44   29   31 ar
    45   30   44 1
    46   30   45 1
    47   31   32 ar
    48   31   46 1
@<TRIPOS>SUBSTRUCTURE
     1 GTP         1 GROUP 0 A     ****
@<TRIPOS>MOLECULE
[[[5-(2-amino-6-oxo-1,3-dihydropurin-2-ylium-9-yl)-3,4-dihydroxy-tetrahydrofuran-2-yl]methoxy-oxido-phosphoryl]oxy-oxido-phosphoryl] hydrogen phosphate
   46    48     1     0     0
SMALL
USER_CHARGES

@<TRIPOS>ATOM
      1 PG         -3.1127    5.4544   -3.5147 P.3       1 GTP         1.5400
      2 O1G        -4.6199    5.4404   -3.3899 O.co2     1 GTP        -0.8909
      3 O2G        -2.3939    6.6397   -4.1197 O.co2     1 GTP        -0.8909
      4 O3G        -2.6452    4.1052   -4.3065 O.3       1 GTP        -0.7980
      5 O3B        -2.4559    5.1251   -2.0573 O.3       1 GTP        -0.7612
      6 PB         -2.4753    6.0007   -0.6794 P.3       1 GTP         1.5847
      7 O1B        -1.6929    7.2755   -0.9040 O.co2     1 GTP        -0.8859
      8 O2B        -3.8838    6.0228   -0.1287 O.co2     1 GTP        -0.8859
      9 O3A        -1.6181    4.9968    0.2809 O.3       1 GTP        -0.7486
     10 PA         -0.0889    4.4444    0.1193 P.3       1 GTP         1.5001
     11 O1A        -0.0111    3.5842   -1.1233 O.co2     1 GTP        -0.8487
     12 O2A         0.8677    5.5971    0.3340 O.co2     1 GTP        -0.8487
     13 O5'         0.0178    3.5131    1.4595 O.3       1 GTP        -0.5474
     14 C5'        -0.8811    2.4285    1.6206 C.3       1 GTP         0.2547
     15 C4'        -0.1994    1.3333    2.4288 C.3       1 GTP         0.0926
     16 O4'        -1.1285    0.2356    2.5840 O.3       1 GTP        -0.3593
     17 C3'         1.0324    0.7610    1.7344 C.3       1 GTP         0.0907
     18 O3'         1.9175    0.2377    2.7247 O.3       1 GTP        -0.5209
     19 C2'         0.4468   -0.3802    0.9263 C.3       1 GTP         0.0305
     20 O2'         1.3993   -1.3703    0.5961 O.3       1 GTP        -0.5978
     21 C1'        -0.6159   -0.9100    1.8769 C.3       1 GTP         0.2339
     22 N9         -1.7127   -1.6108    1.2130 N.pl3     1 GTP        -0.1765
     23 C8         -3.0389   -1.2578    1.2391 C.ar      1 GTP         0.4947
     24 N7         -3.7909   -2.0880    0.5425 N.2       1 GTP        -0.5802
     25 C5         -2.9127   -3.0150    0.0458 C.ar      1 GTP         0.2279
     26 C6         -3.2467   -4.1411   -0.7860 C.ar      1 GTP         0.6513
     27 O6         -4.3761   -4.4189   -1.1621 O.2       1 GTP        -0.5111
     28 N1         -2.0748   -4.9191   -1.1296 N.pl3     1 GTP        -0.4713
     29 C2         -0.7595   -4.6181   -0.7058 C.ar      1 GTP         0.5256
     30 N2          0.2985   -5.4268   -1.0920 N.pl3     1 GTP        -0.8665
     31 N3         -0.5304   -3.4919    0.1084 N.pl3     1 GTP        -0.5398
     32 C4         -1.6318   -2.7332    0.4512 C.ar      1 GTP        -0.0275
     33 HOG3       -1.6876    3.9666   -4.4678 H         1 GTP         0.4161
     34 H5'        -1.7771    2.7849    2.1387 H         1 GTP         0.0348
     35 H5''       -1.1654    2.0541    0.6320 H         1 GTP         0.0348
     36 H4'         0.0403    1.7078    3.4343 H         1 GTP         0.1215
     37 H3'         1.5907    1.4859    1.1353 H         1 GTP         0.0576
     38 HO3'        2.6839   -0.1150    2.2479 H         1 GTP         0.3842
     39 H2'        -0.0017    0.0018    0.0005 H         1 GTP         0.0252
     40 HO2'        2.0953   -0.9375    0.0709 H         1 GTP         0.4224
     41 H1'        -0.1998   -1.6319    2.6178 H         1 GTP         0.0745
     42 H8         -3.3933   -0.3909    1.7800 H         1 GTP         0.1522
     43 HN1        -2.2071   -5.7408   -1.7178 H         1 GTP         0.3518
     44 HN21        1.1896   -5.1751   -0.7715 H         1 GTP         0.4761
     45 HN22        0.0846   -6.1966   -1.6593 H         1 GTP         0.4761
     46 H46         0.4142   -3.2695    0.4160 H         1 GTP         0.5030
@<TRIPOS>BOND
     1    1    2 2
     2    1    3 1
     3    1    4 1
     4    1    5 1
     5    4   33 1
     6    5    6 1
     7    6    7 2
     8    6    8 1
     9    6    9 1
    10    9   10 1
    11   10   11 2
    12   10   12 1
    13   10   13 1
    14   13   14 1
    15   14   15 1
    16   14   34 1
    17   14   35 1
    18   15   16 1
    19   15   17 1
    20   15   36 1
    21   16   21 1
    22   17   18 1
    23   17   19 1
    24   17   37 1
    25   18   38 1
    26   19   20 1
    27   19   21 1
    28   19   39 1
    29   20   40 1
    30   21   22 1
    31   21   41 1
    32   22   23 ar
    33   22   32 ar
    34   23   24 ar
    35   23   42 1
    36   24   25 ar
    37   25   26 ar
    38   25   32 ar
    39   26   27 2
    40   26   28 ar
    41   28   29 ar
    42   28   43 1
    43   29   30 1
    44   29   31 ar
    45   30   44 1
    46   30   45 1
    47   31   32 ar
    48   31   46 1
@<TRIPOS>SUBSTRUCTURE
     1 GTP         1 GROUP 0 A     ****
@<TRIPOS>MOLECULE
[[[5-(2-amino-6-oxo-1,3-dihydropurin-2-ylium-9-yl)-3,4-dihydroxy-tetrahydrofuran-2-yl]methoxy-oxido-phosphoryl]oxy-oxido-phosphoryl] hydrogen phosphate
   46    48     1     0     0
SMALL
USER_CHARGES

@<TRIPOS>ATOM
      1 PG         -0.0300    8.7735    0.7223 P.3       1 GTP         1.5400
      2 O1G         1.1261    9.2157    1.5915 O.co2     1 GTP        -0.8909
      3 O2G         0.0957    8.7487   -0.7848 O.co2     1 GTP        -0.8909
      4 O3G        -1.3444    9.6575    1.1184 O.3       1 GTP        -0.7980
      5 O3B        -0.5512    7.3139    1.2337 O.3       1 GTP        -0.7612
      6 PB         -1.0016    6.8281    2.7259 P.3       1 GTP         1.5847
      7 O1B         0.2052    6.8760    3.6363 O.co2     1 GTP        -0.8859
      8 O2B        -2.2999    7.5101    3.0957 O.co2     1 GTP        -0.8859
      9 O3A        -1.3731    5.2735    2.3942 O.3       1 GTP        -0.7486
     10 PA         -1.9156    4.0918    3.3837 P.3       1 GTP         1.5001
     11 O1A        -0.8453    3.7865    4.4092 O.co2     1 GTP        -0.8487
     12 O2A        -3.3304    4.4243    3.8049 O.co2     1 GTP        -0.8487
     13 O5'        -2.0401    2.8620    2.3128 O.3       1 GTP        -0.5474
     14 C5'        -0.8811    2.4285    1.6206 C.3       1 GTP         0.2547
     15 C4'        -0.1994    1.3333    2.4288 C.3       1 GTP         0.0926
     16 O4'        -1.1285    0.2356    2.5840 O.3       1 GTP        -0.3593
     17 C3'         1.0324    0.7610    1.7344 C.3       1 GTP         0.0907
     18 O3'         1.9175    0.2377    2.7247 O.3       1 GTP        -0.5209
     19 C2'         0.4468   -0.3802    0.9263 C.3       1 GTP         0.0305
     20 O2'         1.3993   -1.3703    0.5961 O.3       1 GTP        -0.5978
     21 C1'        -0.6159   -0.9100    1.8769 C.3       1 GTP         0.2339
     22 N9         -1.7127   -1.6108    1.2130 N.pl3     1 GTP        -0.1765
     23 C8         -2.8692   -1.0463    0.7355 C.ar      1 GTP         0.4947
     24 N7         -3.6707   -1.9381    0.1856 N.2       1 GTP        -0.5802
     25 C5         -3.0027   -3.1275    0.3134 C.ar      1 GTP         0.2279
     26 C6         -3.4659   -4.4142   -0.1355 C.ar      1 GTP         0.6513
     27 O6         -4.5328   -4.6133   -0.6980 O.2       1 GTP        -0.5111
     28 N1         -2.5102   -5.4606    0.1612 N.pl3     1 GTP        -0.4713
     29 C2         -1.2711   -5.2547    0.8113 C.ar      1 GTP         0.5256
     30 N2         -0.4228   -6.3256    1.0482 N.pl3     1 GTP        -0.8665
     31 N3         -0.9033   -3.9563    1.2146 N.pl3     1 GTP        -0.5398
     32 C4         -1.7979   -2.9400    0.9438 C.ar      1 GTP        -0.0275
     33 HOG3       -2.1830    9.4878    0.6386 H         1 GTP         0.4161
     34 H5'        -1.1767    2.0502    0.6368 H         1 GTP         0.0348
     35 H5''       -0.2080    3.2814    1.4876 H         1 GTP         0.0348
     36 H4'         0.0403    1.7078    3.4343 H         1 GTP         0.1215
     37 H3'         1.5907    1.4859    1.1353 H         1 GTP         0.0576
     38 HO3'        2.6839   -0.1150    2.2479 H         1 GTP         0.3842
     39 H2'        -0.0017    0.0018    0.0005 H         1 GTP         0.0252
     40 HO2'        2.0953   -0.9375    0.0709 H         1 GTP         0.4224
     41 H1'        -0.1998   -1.6319    2.6178 H         1 GTP         0.0745
     42 H8         -3.0691    0.0134    0.8177 H         1 GTP         0.1522
     43 HN1        -2.7468   -6.4119   -0.1177 H         1 GTP         0.3518
     44 HN21        0.4233   -6.1297    1.5018 H         1 GTP         0.4761
     45 HN22       -0.7261   -7.2071    0.7466 H         1 GTP         0.4761
     46 H46        -0.0124   -3.8015    1.6821 H         1 GTP         0.5030
@<TRIPOS>BOND
     1    1    2 2
     2    1    3 1
     3    1    4 1
     4    1    5 1
     5    4   33 1
     6    5    6 1
     7    6    7 2
     8    6    8 1
     9    6    9 1
    10    9   10 1
    11   10   11 2
    12   10   12 1
    13   10   13 1
    14   13   14 1
    15   14   15 1
    16   14   34 1
    17   14   35 1
    18   15   16 1
    19   15   17 1
    20   15   36 1
    21   16   21 1
    22   17   18 1
    23   17   19 1
    24   17   37 1
    25   18   38 1
    26   19   20 1
    27   19   21 1
    28   19   39 1
    29   20   40 1
    30   21   22 1
    31   21   41 1
    32   22   23 ar
    33   22   32 ar
    34   23   24 ar
    35   23   42 1
    36   24   25 ar
    37   25   26 ar
    38   25   32 ar
    39   26   27 2
    40   26   28 ar
    41   28   29 ar
    42   28   43 1
    43   29   30 1
    44   29   31 ar
    45   30   44 1
    46   30   45 1
    47   31   32 ar
    48   31   46 1
@<TRIPOS>SUBSTRUCTURE
     1 GTP         1 GROUP 0 A     ****
@<TRIPOS>MOLECULE
[[[5-(2-amino-6-oxo-1,3-dihydropurin-2-ylium-9-yl)-3,4-dihydroxy-tetrahydrofuran-2-yl]methoxy-oxido-phosphoryl]oxy-oxido-phosphoryl] hydrogen phosphate
   46    48     1     0     0
SMALL
USER_CHARGES

@<TRIPOS>ATOM
      1 PG          7.7023    0.5840   -4.9551 P.3       1 GTP         1.5400
      2 O1G         8.1151    1.6339   -5.9624 O.co2     1 GTP        -0.8909
      3 O2G         8.6926   -0.4427   -4.4523 O.co2     1 GTP        -0.8909
      4 O3G         6.3904   -0.1995   -5.5306 O.3       1 GTP        -0.7980
      5 O3B         7.0077    1.3203   -3.6748 O.3       1 GTP        -0.7612
      6 PB          7.6631    2.3143   -2.5576 P.3       1 GTP         1.5847
      7 O1B         8.6699    1.5322   -1.7438 O.co2     1 GTP        -0.8859
      8 O2B         8.0257    3.6263   -3.2167 O.co2     1 GTP        -0.8859
      9 O3A         6.3356    2.6020   -1.6521 O.3       1 GTP        -0.7486
     10 PA          6.1593    3.5241   -0.3148 P.3       1 GTP         1.5001
     11 O1A         6.9890    2.9266    0.8010 O.co2     1 GTP        -0.8487
     12 O2A         6.3061    4.9783   -0.7063 O.co2     1 GTP        -0.8487
     13 O5'         4.5670    3.2937   -0.0211 O.3       1 GTP        -0.5474
     14 C5'         4.0922    1.9801    0.2227 C.3       1 GTP         0.2547
     15 C4'         2.5944    2.0310    0.4653 C.3       1 GTP         0.0926
     16 O4'         1.9327    2.5740   -0.6889 O.3       1 GTP        -0.3593
     17 C3'         1.9685    0.6634    0.6767 C.3       1 GTP         0.0907
     18 O3'         2.1425    0.1975    1.9977 O.3       1 GTP        -0.5209
     19 C2'         0.5176    0.9128    0.3099 C.3       1 GTP         0.0305
     20 O2'        -0.2103    1.4454    1.4152 O.3       1 GTP        -0.5978
     21 C1'         0.6219    1.9765   -0.7844 C.3       1 GTP         0.2339
     22 N9          0.4237    1.4496   -2.1357 N.pl3     1 GTP        -0.1765
     23 C8          1.3988    0.9691   -2.9736 C.ar      1 GTP         0.4947
     24 N7          0.9092    0.5634   -4.1293 N.2       1 GTP        -0.5802
     25 C5         -0.4383    0.7914   -4.0325 C.ar      1 GTP         0.2279
     26 C6         -1.4217    0.5138   -5.0461 C.ar      1 GTP         0.6513
     27 O6         -1.1759    0.0306   -6.1417 O.2       1 GTP        -0.5111
     28 N1         -2.7543    0.8794   -4.6134 N.pl3     1 GTP        -0.4713
     29 C2         -3.0626    1.4402   -3.3523 C.ar      1 GTP         0.5256
     30 N2         -4.3747    1.7544   -3.0321 N.pl3     1 GTP        -0.8665
     31 N3         -2.0304    1.6759   -2.4233 N.pl3     1 GTP        -0.5398
     32 C4         -0.7497    1.3366   -2.8118 C.ar      1 GTP        -0.0275
     33 HOG3        5.9991   -0.9164   -4.9873 H         1 GTP         0.4161
     34 H5'         4.3179    1.3548   -0.6470 H         1 GTP         0.0348
     35 H5''        4.6083    1.5737    1.0983 H         1 GTP         0.0348
     36 H4'         2.3752    2.7029    1.3156 H         1 GTP         0.1215
     37 H3'         2.4336   -0.1217   -0.0015 H         1 GTP         0.0576
     38 HO3'        1.7160   -0.6716    2.0397 H         1 GTP         0.3842
     39 H2'         0.0316    0.0155   -0.0339 H         1 GTP         0.0252
     40 HO2'       -0.1608    0.7921    2.1351 H         1 GTP         0.4224
     41 H1'        -0.1474    2.7798   -0.6651 H         1 GTP         0.0745
     42 H8          2.4413    0.9409   -2.6872 H         1 GTP         0.1522
     43 HN1        -3.5236    0.7214   -5.2629 H         1 GTP         0.3518
     44 HN21       -4.5350    2.1409   -2.1461 H         1 GTP         0.4761
     45 HN22       -5.0542    1.5695   -3.7134 H         1 GTP         0.4761
     46 H46        -2.2462    2.0786   -1.5136 H         1 GTP         0.5030
@<TRIPOS>BOND
     1    1    2 2
     2    1    3 1
     3    1    4 1
     4    1    5 1
     5    4   33 1
     6    5    6 1
     7    6    7 2
     8    6    8 1
     9    6    9 1
    10    9   10 1
    11   10   11 2
    12   10   12 1
    13   10   13 1
    14   13   14 1
    15   14   15 1
    16   14   34 1
    17   14   35 1
    18   15   16 1
    19   15   17 1
    20   15   36 1
    21   16   21 1
    22   17   18 1
    23   17   19 1
    24   17   37 1
    25   18   38 1
    26   19   20 1
    27   19   21 1
    28   19   39 1
    29   20   40 1
    30   21   22 1
    31   21   41 1
    32   22   23 ar
    33   22   32 ar
    34   23   24 ar
    35   23   42 1
    36   24   25 ar
    37   25   26 ar
    38   25   32 ar
    39   26   27 2
    40   26   28 ar
    41   28   29 ar
    42   28   43 1
    43   29   30 1
    44   29   31 ar
    45   30   44 1
    46   30   45 1
    47   31   32 ar
    48   31   46 1
@<TRIPOS>SUBSTRUCTURE
     1 GTP         1 GROUP 0 A     ****
@<TRIPOS>MOLECULE
[[[5-(2-amino-6-oxo-1,3-dihydropurin-2-ylium-9-yl)-3,4-dihydroxy-tetrahydrofuran-2-yl]methoxy-oxido-phosphoryl]oxy-oxido-phosphoryl] hydrogen phosphate
   46    48     1     0     0
SMALL
USER_CHARGES

@<TRIPOS>ATOM
      1 PG          1.5634    7.9630    3.8976 P.3       1 GTP         1.5400
      2 O1G         0.8322    8.8797    4.8528 O.co2     1 GTP        -0.8909
      3 O2G         2.9158    7.3874    4.2546 O.co2     1 GTP        -0.8909
      4 O3G         1.6836    8.7105    2.4510 O.3       1 GTP        -0.7980
      5 O3B         0.5678    6.7446    3.4637 O.3       1 GTP        -0.7612
      6 PB         -0.9420    6.7977    2.8447 P.3       1 GTP         1.5847
      7 O1B        -1.8726    7.3789    3.8857 O.co2     1 GTP        -0.8859
      8 O2B        -0.8798    7.3538    1.4395 O.co2     1 GTP        -0.8859
      9 O3A        -1.2210    5.1961    2.6972 O.3       1 GTP        -0.7486
     10 PA         -2.5400    4.4095    2.1393 P.3       1 GTP         1.5001
     11 O1A        -3.7027    4.6909    3.0663 O.co2     1 GTP        -0.8487
     12 O2A        -2.6521    4.6480    0.6493 O.co2     1 GTP        -0.8487
     13 O5'        -2.0401    2.8620    2.3128 O.3       1 GTP        -0.5474
     14 C5'        -0.8811    2.4285    1.6206 C.3       1 GTP         0.2547
     15 C4'        -0.1994    1.3333    2.4288 C.3       1 GTP         0.0926
     16 O4'        -1.1285    0.2356    2.5840 O.3       1 GTP        -0.3593
     17 C3'         1.0324    0.7610    1.7344 C.3       1 GTP         0.0907
     18 O3'         1.9175    0.2377    2.7247 O.3       1 GTP        -0.5209
     19 C2'         0.4468   -0.3802    0.9263 C.3       1 GTP         0.0305
     20 O2'         1.3993   -1.3703    0.5961 O.3       1 GTP        -0.5978
     21 C1'        -0.6159   -0.9100    1.8769 C.3       1 GTP         0.2339
     22 N9         -1.7127   -1.6108    1.2130 N.pl3     1 GTP        -0.1765
     23 C8         -1.7789   -2.9564    0.9503 C.ar      1 GTP         0.4947
     24 N7         -2.8980   -3.2916    0.3377 N.2       1 GTP        -0.5802
     25 C5         -3.5824   -2.1127    0.2000 C.ar      1 GTP         0.2279
     26 C6         -4.8740   -1.9471   -0.4133 C.ar      1 GTP         0.6513
     27 O6         -5.5366   -2.8529   -0.8978 O.2       1 GTP        -0.5111
     28 N1         -5.3036   -0.5645   -0.3916 N.pl3     1 GTP        -0.4713
     29 C2         -4.5545    0.4997    0.1619 C.ar      1 GTP         0.5256
     30 N2         -5.0561    1.7921    0.1348 N.pl3     1 GTP        -0.8665
     31 N3         -3.2977    0.2393    0.7420 N.pl3     1 GTP        -0.5398
     32 C4         -2.8643   -1.0716    0.7336 C.ar      1 GTP        -0.0275
     33 HOG3        2.1366    8.2404    1.7188 H         1 GTP         0.4161
     34 H5'        -1.1767    2.0502    0.6368 H         1 GTP         0.0348
     35 H5''       -0.2080    3.2814    1.4876 H         1 GTP         0.0348
     36 H4'         0.0403    1.7078    3.4343 H         1 GTP         0.1215
     37 H3'         1.5907    1.4859    1.1353 H         1 GTP         0.0576
     38 HO3'        2.6839   -0.1150    2.2479 H         1 GTP         0.3842
     39 H2'        -0.0017    0.0018    0.0005 H         1 GTP         0.0252
     40 HO2'        2.0953   -0.9375    0.0709 H         1 GTP         0.4224
     41 H1'        -0.1998   -1.6319    2.6178 H         1 GTP         0.0745
     42 H8         -0.9852   -3.6367    1.2276 H         1 GTP         0.1522
     43 HN1        -6.2089   -0.3428   -0.8039 H         1 GTP         0.3518
     44 HN21       -4.4981    2.4933    0.5311 H         1 GTP         0.4761
     45 HN22       -5.9352    1.9183   -0.2793 H         1 GTP         0.4761
     46 H46        -2.7541    1.0010    1.1428 H         1 GTP         0.5030
@<TRIPOS>BOND
     1    1    2 2
     2    1    3 1
     3    1    4 1
     4    1    5 1
     5    4   33 1
     6    5    6 1
     7    6    7 2
     8    6    8 1
     9    6    9 1
    10    9   10 1
    11   10   11 2
    12   10   12 1
    13   10   13 1
    14   13   14 1
    15   14   15 1
    16   14   34 1
    17   14   35 1
    18   15   16 1
    19   15   17 1
    20   15   36 1
    21   16   21 1
    22   17   18 1
    23   17   19 1
    24   17   37 1
    25   18   38 1
    26   19   20 1
    27   19   21 1
    28   19   39 1
    29   20   40 1
    30   21   22 1
    31   21   41 1
    32   22   23 ar
    33   22   32 ar
    34   23   24 ar
    35   23   42 1
    36   24   25 ar
    37   25   26 ar
    38   25   32 ar
    39   26   27 2
    40   26   28 ar
    41   28   29 ar
    42   28   43 1
    43   29   30 1
    44   29   31 ar
    45   30   44 1
    46   30   45 1
    47   31   32 ar
    48   31   46 1
@<TRIPOS>SUBSTRUCTURE
     1 GTP         1 GROUP 0 A     ****
@<TRIPOS>MOLECULE
[[[5-(2-amino-6-oxo-1,3-dihydropurin-2-ylium-9-yl)-3,4-dihydroxy-tetrahydrofuran-2-yl]methoxy-oxido-phosphoryl]oxy-oxido-phosphoryl] hydrogen phosphate
   46    48     1     0     0
SMALL
USER_CHARGES

@<TRIPOS>ATOM
      1 PG          0.7329    1.2313   -4.5237 P.3       1 GTP         1.5400
      2 O1G         1.1650   -0.2069   -4.3442 O.co2     1 GTP        -0.8909
      3 O2G        -0.4543    1.5837   -5.3921 O.co2     1 GTP        -0.8909
      4 O3G         2.0200    2.1004   -5.0278 O.3       1 GTP        -0.7980
      5 O3B         0.5347    1.9138   -3.0545 O.3       1 GTP        -0.7612
      6 PB          0.2279    3.4669   -2.6554 P.3       1 GTP         1.5847
      7 O1B         1.4194    4.3124   -3.0462 O.co2     1 GTP        -0.8859
      8 O2B        -1.1742    3.8221   -3.0978 O.co2     1 GTP        -0.8859
      9 O3A         0.1765    3.3147   -1.0309 O.3       1 GTP        -0.7486
     10 PA         -0.0889    4.4444    0.1193 P.3       1 GTP         1.5001
     11 O1A         1.0444    5.4470    0.0872 O.co2     1 GTP        -0.8487
     12 O2A        -1.5319    4.8920    0.0350 O.co2     1 GTP        -0.8487
     13 O5'         0.0178    3.5131    1.4595 O.3       1 GTP        -0.5474
     14 C5'        -0.8811    2.4285    1.6206 C.3       1 GTP         0.2547
     15 C4'        -0.1994    1.3333    2.4288 C.3       1 GTP         0.0926
     16 O4'        -1.1285    0.2356    2.5840 O.3       1 GTP        -0.3593
     17 C3'         1.0324    0.7610    1.7344 C.3       1 GTP         0.0907
     18 O3'         1.9175    0.2377    2.7247 O.3       1 GTP        -0.5209
     19 C2'         0.4468   -0.3802    0.9263 C.3       1 GTP         0.0305
     20 O2'         1.3993   -1.3703    0.5961 O.3       1 GTP        -0.5978
     21 C1'        -0.6159   -0.9100    1.8769 C.3       1 GTP         0.2339
     22 N9         -1.7127   -1.6108    1.2130 N.pl3     1 GTP        -0.1765
     23 C8         -1.7789   -2.9564    0.9503 C.ar      1 GTP         0.4947
     24 N7         -2.8980   -3.2916    0.3377 N.2       1 GTP        -0.5802
     25 C5         -3.5824   -2.1127    0.2000 C.ar      1 GTP         0.2279
     26 C6         -4.8740   -1.9471   -0.4133 C.ar      1 GTP         0.6513
     27 O6         -5.5366   -2.8529   -0.8978 O.2       1 GTP        -0.5111
     28 N1         -5.3036   -0.5645   -0.3916 N.pl3     1 GTP        -0.4713
     29 C2         -4.5545    0.4997    0.1619 C.ar      1 GTP         0.5256
     30 N2         -5.0561    1.7921    0.1348 N.pl3     1 GTP        -0.8665
     31 N3         -3.2977    0.2393    0.7420 N.pl3     1 GTP        -0.5398
     32 C4         -2.8643   -1.0716    0.7336 C.ar      1 GTP        -0.0275
     33 HOG3        1.9003    3.0603   -5.1908 H         1 GTP         0.4161
     34 H5'        -1.7771    2.7849    2.1387 H         1 GTP         0.0348
     35 H5''       -1.1654    2.0541    0.6320 H         1 GTP         0.0348
     36 H4'         0.0403    1.7078    3.4343 H         1 GTP         0.1215
     37 H3'         1.5907    1.4859    1.1353 H         1 GTP         0.0576
     38 HO3'        2.6839   -0.1150    2.2479 H         1 GTP         0.3842
     39 H2'        -0.0017    0.0018    0.0005 H         1 GTP         0.0252
     40 HO2'        2.0953   -0.9375    0.0709 H         1 GTP         0.4224
     41 H1'        -0.1998   -1.6319    2.6178 H         1 GTP         0.0745
     42 H8         -0.9852   -3.6367    1.2276 H         1 GTP         0.1522
     43 HN1        -6.2089   -0.3428   -0.8039 H         1 GTP         0.3518
     44 HN21       -4.4981    2.4933    0.5311 H         1 GTP         0.4761
     45 HN22       -5.9352    1.9183   -0.2793 H         1 GTP         0.4761
     46 H46        -2.7541    1.0010    1.1428 H         1 GTP         0.5030
@<TRIPOS>BOND
     1    1    2 2
     2    1    3 1
     3    1    4 1
     4    1    5 1
     5    4   33 1
     6    5    6 1
     7    6    7 2
     8    6    8 1
     9    6    9 1
    10    9   10 1
    11   10   11 2
    12   10   12 1
    13   10   13 1
    14   13   14 1
    15   14   15 1
    16   14   34 1
    17   14   35 1
    18   15   16 1
    19   15   17 1
    20   15   36 1
    21   16   21 1
    22   17   18 1
    23   17   19 1
    24   17   37 1
    25   18   38 1
    26   19   20 1
    27   19   21 1
    28   19   39 1
    29   20   40 1
    30   21   22 1
    31   21   41 1
    32   22   23 ar
    33   22   32 ar
    34   23   24 ar
    35   23   42 1
    36   24   25 ar
    37   25   26 ar
    38   25   32 ar
    39   26   27 2
    40   26   28 ar
    41   28   29 ar
    42   28   43 1
    43   29   30 1
    44   29   31 ar
    45   30   44 1
    46   30   45 1
    47   31   32 ar
    48   31   46 1
@<TRIPOS>SUBSTRUCTURE
     1 GTP         1 GROUP 0 A     ****
@<TRIPOS>MOLECULE
[[[5-(2-amino-6-oxo-1,3-dihydropurin-2-ylium-9-yl)-3,4-dihydroxy-tetrahydrofuran-2-yl]methoxy-oxido-phosphoryl]oxy-oxido-phosphoryl] hydrogen phosphate
   46    48     1     0     0
SMALL
USER_CHARGES

@<TRIPOS>ATOM
      1 PG         -4.0070    5.3527   -3.2239 P.3       1 GTP         1.5400
      2 O1G        -4.0819    4.1686   -4.1618 O.co2     1 GTP        -0.8909
      3 O2G        -5.2630    5.9754   -2.6562 O.co2     1 GTP        -0.8909
      4 O3G        -3.1243    6.5256   -3.9388 O.3       1 GTP        -0.7980
      5 O3B        -2.9928    4.9945   -1.9963 O.3       1 GTP        -0.7612
      6 PB         -2.4285    5.9448   -0.7946 P.3       1 GTP         1.5847
      7 O1B        -1.5498    7.0182   -1.3974 O.co2     1 GTP        -0.8859
      8 O2B        -3.5673    6.2865    0.1402 O.co2     1 GTP        -0.8859
      9 O3A        -1.4987    4.8543   -0.0129 O.3       1 GTP        -0.7486
     10 PA         -0.5790    5.0299    1.3261 P.3       1 GTP         1.5001
     11 O1A         0.5370    6.0068    1.0251 O.co2     1 GTP        -0.8487
     12 O2A        -1.4908    5.2267    2.5176 O.co2     1 GTP        -0.8487
     13 O5'         0.0178    3.5131    1.4595 O.3       1 GTP        -0.5474
     14 C5'        -0.8811    2.4285    1.6206 C.3       1 GTP         0.2547
     15 C4'        -0.1994    1.3333    2.4288 C.3       1 GTP         0.0926
     16 O4'        -1.1285    0.2356    2.5840 O.3       1 GTP        -0.3593
     17 C3'         1.0324    0.7610    1.7344 C.3       1 GTP         0.0907
     18 O3'         1.9175    0.2377    2.7247 O.3       1 GTP        -0.5209
     19 C2'         0.4468   -0.3802    0.9263 C.3       1 GTP         0.0305
     20 O2'         1.3993   -1.3703    0.5961 O.3       1 GTP        -0.5978
     21 C1'        -0.6159   -0.9100    1.8769 C.3       1 GTP         0.2339
     22 N9         -1.7127   -1.6108    1.2130 N.pl3     1 GTP        -0.1765
     23 C8         -2.8692   -1.0463    0.7355 C.ar      1 GTP         0.4947
     24 N7         -3.6707   -1.9381    0.1856 N.2       1 GTP        -0.5802
     25 C5         -3.0027   -3.1275    0.3134 C.ar      1 GTP         0.2279
     26 C6         -3.4659   -4.4142   -0.1355 C.ar      1 GTP         0.6513
     27 O6         -4.5328   -4.6133   -0.6980 O.2       1 GTP        -0.5111
     28 N1         -2.5102   -5.4606    0.1612 N.pl3     1 GTP        -0.4713
     29 C2         -1.2711   -5.2547    0.8113 C.ar      1 GTP         0.5256
     30 N2         -0.4228   -6.3256    1.0482 N.pl3     1 GTP        -0.8665
     31 N3         -0.9033   -3.9563    1.2146 N.pl3     1 GTP        -0.5398
     32 C4         -1.7979   -2.9400    0.9438 C.ar      1 GTP        -0.0275
     33 HOG3       -2.9831    7.3657   -3.4524 H         1 GTP         0.4161
     34 H5'        -1.7771    2.7849    2.1387 H         1 GTP         0.0348
     35 H5''       -1.1654    2.0541    0.6320 H         1 GTP         0.0348
     36 H4'         0.0403    1.7078    3.4343 H         1 GTP         0.1215
     37 H3'         1.5907    1.4859    1.1353 H         1 GTP         0.0576
     38 HO3'        2.1521    0.9800    3.3017 H         1 GTP         0.3842
     39 H2'        -0.0017    0.0018    0.0005 H         1 GTP         0.0252
     40 HO2'        0.9369   -2.0558    0.0825 H         1 GTP         0.4224
     41 H1'        -0.1998   -1.6319    2.6178 H         1 GTP         0.0745
     42 H8         -3.0691    0.0134    0.8177 H         1 GTP         0.1522
     43 HN1        -2.7468   -6.4119   -0.1177 H         1 GTP         0.3518
     44 HN21        0.4233   -6.1297    1.5018 H         1 GTP         0.4761
     45 HN22       -0.7261   -7.2071    0.7466 H         1 GTP         0.4761
     46 H46        -0.0124   -3.8015    1.6821 H         1 GTP         0.5030
@<TRIPOS>BOND
     1    1    2 2
     2    1    3 1
     3    1    4 1
     4    1    5 1
     5    4   33 1
     6    5    6 1
     7    6    7 2
     8    6    8 1
     9    6    9 1
    10    9   10 1
    11   10   11 2
    12   10   12 1
    13   10   13 1
    14   13   14 1
    15   14   15 1
    16   14   34 1
    17   14   35 1
    18   15   16 1
    19   15   17 1
    20   15   36 1
    21   16   21 1
    22   17   18 1
    23   17   19 1
    24   17   37 1
    25   18   38 1
    26   19   20 1
    27   19   21 1
    28   19   39 1
    29   20   40 1
    30   21   22 1
    31   21   41 1
    32   22   23 ar
    33   22   32 ar
    34   23   24 ar
    35   23   42 1
    36   24   25 ar
    37   25   26 ar
    38   25   32 ar
    39   26   27 2
    40   26   28 ar
    41   28   29 ar
    42   28   43 1
    43   29   30 1
    44   29   31 ar
    45   30   44 1
    46   30   45 1
    47   31   32 ar
    48   31   46 1
@<TRIPOS>SUBSTRUCTURE
     1 GTP         1 GROUP 0 A     ****
@<TRIPOS>MOLECULE
[[[5-(2-amino-6-oxo-1,3-dihydropurin-2-ylium-9-yl)-3,4-dihydroxy-tetrahydrofuran-2-yl]methoxy-oxido-phosphoryl]oxy-oxido-phosphoryl] hydrogen phosphate
   46    48     1     0     0
SMALL
USER_CHARGES

@<TRIPOS>ATOM
      1 PG         -4.4799    6.9557   -1.0365 P.3       1 GTP         1.5400
      2 O1G        -4.0528    8.3977   -1.1965 O.co2     1 GTP        -0.8909
      3 O2G        -4.8171    6.1066   -2.2420 O.co2     1 GTP        -0.8909
      4 O3G        -5.7361    6.8993    0.0050 O.3       1 GTP        -0.7980
      5 O3B        -3.3726    6.1711   -0.1300 O.3       1 GTP        -0.7612
      6 PB         -2.7700    6.5451    1.3406 P.3       1 GTP         1.5847
      7 O1B        -1.9788    7.8291    1.2282 O.co2     1 GTP        -0.8859
      8 O2B        -3.8576    6.3734    2.3776 O.co2     1 GTP        -0.8859
      9 O3A        -1.7457    5.2883    1.5313 O.3       1 GTP        -0.7486
     10 PA         -0.4665    4.8322    0.6228 P.3       1 GTP         1.5001
     11 O1A        -0.9631    4.4288   -0.7487 O.co2     1 GTP        -0.8487
     12 O2A         0.6338    5.8580    0.7859 O.co2     1 GTP        -0.8487
     13 O5'         0.0178    3.5131    1.4595 O.3       1 GTP        -0.5474
     14 C5'        -0.8811    2.4285    1.6206 C.3       1 GTP         0.2547
     15 C4'        -0.1994    1.3333    2.4288 C.3       1 GTP         0.0926
     16 O4'        -1.1285    0.2356    2.5840 O.3       1 GTP        -0.3593
     17 C3'         1.0324    0.7610    1.7344 C.3       1 GTP         0.0907
     18 O3'         1.9175    0.2377    2.7247 O.3       1 GTP        -0.5209
     19 C2'         0.4468   -0.3802    0.9263 C.3       1 GTP         0.0305
     20 O2'         1.3993   -1.3703    0.5961 O.3       1 GTP        -0.5978
     21 C1'        -0.6159   -0.9100    1.8769 C.3       1 GTP         0.2339
     22 N9         -1.7127   -1.6108    1.2130 N.pl3     1 GTP        -0.1765
     23 C8         -1.7789   -2.9564    0.9503 C.ar      1 GTP         0.4947
     24 N7         -2.8980   -3.2916    0.3377 N.2       1 GTP        -0.5802
     25 C5         -3.5824   -2.1127    0.2000 C.ar      1 GTP         0.2279
     26 C6         -4.8740   -1.9471   -0.4133 C.ar      1 GTP         0.6513
     27 O6         -5.5366   -2.8529   -0.8978 O.2       1 GTP        -0.5111
     28 N1         -5.3036   -0.5645   -0.3916 N.pl3     1 GTP        -0.4713
     29 C2         -4.5545    0.4997    0.1619 C.ar      1 GTP         0.5256
     30 N2         -5.0561    1.7921    0.1348 N.pl3     1 GTP        -0.8665
     31 N3         -3.2977    0.2393    0.7420 N.pl3     1 GTP        -0.5398
     32 C4         -2.8643   -1.0716    0.7336 C.ar      1 GTP        -0.0275
     33 HOG3       -6.1299    6.0257    0.2147 H         1 GTP         0.4161
     34 H5'        -1.7771    2.7849    2.1387 H         1 GTP         0.0348
     35 H5''       -1.1654    2.0541    0.6320 H         1 GTP         0.0348
     36 H4'         0.0403    1.7078    3.4343 H         1 GTP         0.1215
     37 H3'         1.5907    1.4859    1.1353 H         1 GTP         0.0576
     38 HO3'        2.6839   -0.1150    2.2479 H         1 GTP         0.3842
     39 H2'        -0.0017    0.0018    0.0005 H         1 GTP         0.0252
     40 HO2'        2.0953   -0.9375    0.0709 H         1 GTP         0.4224
     41 H1'        -0.1998   -1.6319    2.6178 H         1 GTP         0.0745
     42 H8         -0.9852   -3.6367    1.2276 H         1 GTP         0.1522
     43 HN1        -6.2089   -0.3428   -0.8039 H         1 GTP         0.3518
     44 HN21       -4.4981    2.4933    0.5311 H         1 GTP         0.4761
     45 HN22       -5.9352    1.9183   -0.2793 H         1 GTP         0.4761
     46 H46        -2.7541    1.0010    1.1428 H         1 GTP         0.5030
@<TRIPOS>BOND
     1    1    2 2
     2    1    3 1
     3    1    4 1
     4    1    5 1
     5    4   33 1
     6    5    6 1
     7    6    7 2
     8    6    8 1
     9    6    9 1
    10    9   10 1
    11   10   11 2
    12   10   12 1
    13   10   13 1
    14   13   14 1
    15   14   15 1
    16   14   34 1
    17   14   35 1
    18   15   16 1
    19   15   17 1
    20   15   36 1
    21   16   21 1
    22   17   18 1
    23   17   19 1
    24   17   37 1
    25   18   38 1
    26   19   20 1
    27   19   21 1
    28   19   39 1
    29   20   40 1
    30   21   22 1
    31   21   41 1
    32   22   23 ar
    33   22   32 ar
    34   23   24 ar
    35   23   42 1
    36   24   25 ar
    37   25   26 ar
    38   25   32 ar
    39   26   27 2
    40   26   28 ar
    41   28   29 ar
    42   28   43 1
    43   29   30 1
    44   29   31 ar
    45   30   44 1
    46   30   45 1
    47   31   32 ar
    48   31   46 1
@<TRIPOS>SUBSTRUCTURE
     1 GTP         1 GROUP 0 A     ****
@<TRIPOS>MOLECULE
[[[5-(2-amino-6-oxo-1,3-dihydropurin-2-ylium-9-yl)-3,4-dihydroxy-tetrahydrofuran-2-yl]methoxy-oxido-phosphoryl]oxy-oxido-phosphoryl] hydrogen phosphate
   46    48     1     0     0
SMALL
USER_CHARGES

@<TRIPOS>ATOM
      1 PG         -6.3782    3.7438   -2.5783 P.3       1 GTP         1.5400
      2 O1G        -7.6707    3.5672   -1.8130 O.co2     1 GTP        -0.8909
      3 O2G        -6.0884    5.0242   -3.3295 O.co2     1 GTP        -0.8909
      4 O3G        -6.2101    2.4887   -3.6090 O.3       1 GTP        -0.7980
      5 O3B        -5.1243    3.4174   -1.5858 O.3       1 GTP        -0.7612
      6 PB         -4.5985    4.2215   -0.2657 P.3       1 GTP         1.5847
      7 O1B        -4.0908    5.5798   -0.6956 O.co2     1 GTP        -0.8859
      8 O2B        -5.6176    4.0713    0.8417 O.co2     1 GTP        -0.8859
      9 O3A        -3.3350    3.2688    0.1351 O.3       1 GTP        -0.7486
     10 PA         -1.9976    2.8867   -0.7222 P.3       1 GTP         1.5001
     11 O1A        -2.4126    2.0977   -1.9452 O.co2     1 GTP        -0.8487
     12 O2A        -1.1315    4.1214   -0.8447 O.co2     1 GTP        -0.8487
     13 O5'        -1.2434    1.9104    0.3515 O.3       1 GTP        -0.5474
     14 C5'        -0.8811    2.4285    1.6206 C.3       1 GTP         0.2547
     15 C4'        -0.1994    1.3333    2.4288 C.3       1 GTP         0.0926
     16 O4'        -1.1285    0.2356    2.5840 O.3       1 GTP        -0.3593
     17 C3'         1.0324    0.7610    1.7344 C.3       1 GTP         0.0907
     18 O3'         1.9175    0.2377    2.7247 O.3       1 GTP        -0.5209
     19 C2'         0.4468   -0.3802    0.9263 C.3       1 GTP         0.0305
     20 O2'         1.3993   -1.3703    0.5961 O.3       1 GTP        -0.5978
     21 C1'        -0.6159   -0.9100    1.8769 C.3       1 GTP         0.2339
     22 N9         -1.7127   -1.6108    1.2130 N.pl3     1 GTP        -0.1765
     23 C8         -2.8692   -1.0463    0.7355 C.ar      1 GTP         0.4947
     24 N7         -3.6707   -1.9381    0.1856 N.2       1 GTP        -0.5802
     25 C5         -3.0027   -3.1275    0.3134 C.ar      1 GTP         0.2279
     26 C6         -3.4659   -4.4142   -0.1355 C.ar      1 GTP         0.6513
     27 O6         -4.5328   -4.6133   -0.6980 O.2       1 GTP        -0.5111
     28 N1         -2.5102   -5.4606    0.1612 N.pl3     1 GTP        -0.4713
     29 C2         -1.2711   -5.2547    0.8113 C.ar      1 GTP         0.5256
     30 N2         -0.4228   -6.3256    1.0482 N.pl3     1 GTP        -0.8665
     31 N3         -0.9033   -3.9563    1.2146 N.pl3     1 GTP        -0.5398
     32 C4         -1.7979   -2.9400    0.9438 C.ar      1 GTP        -0.0275
     33 HOG3       -5.4143    2.4582   -4.1818 H         1 GTP         0.4161
     34 H5'        -0.2033    3.2760    1.4769 H         1 GTP         0.0348
     35 H5''       -1.7841    2.7762    2.1323 H         1 GTP         0.0348
     36 H4'         0.0403    1.7078    3.4343 H         1 GTP         0.1215
     37 H3'         1.5907    1.4859    1.1353 H         1 GTP         0.0576
     38 HO3'        2.6839   -0.1150    2.2479 H         1 GTP         0.3842
     39 H2'        -0.0017    0.0018    0.0005 H         1 GTP         0.0252
     40 HO2'        2.0953   -0.9375    0.0709 H         1 GTP         0.4224
     41 H1'        -0.1998   -1.6319    2.6178 H         1 GTP         0.0745
     42 H8         -3.0691    0.0134    0.8177 H         1 GTP         0.1522
     43 HN1        -2.7468   -6.4119   -0.1177 H         1 GTP         0.3518
     44 HN21        0.4233   -6.1297    1.5018 H         1 GTP         0.4761
     45 HN22       -0.7261   -7.2071    0.7466 H         1 GTP         0.4761
     46 H46        -0.0124   -3.8015    1.6821 H         1 GTP         0.5030
@<TRIPOS>BOND
     1    1    2 2
     2    1    3 1
     3    1    4 1
     4    1    5 1
     5    4   33 1
     6    5    6 1
     7    6    7 2
     8    6    8 1
     9    6    9 1
    10    9   10 1
    11   10   11 2
    12   10   12 1
    13   10   13 1
    14   13   14 1
    15   14   15 1
    16   14   34 1
    17   14   35 1
    18   15   16 1
    19   15   17 1
    20   15   36 1
    21   16   21 1
    22   17   18 1
    23   17   19 1
    24   17   37 1
    25   18   38 1
    26   19   20 1
    27   19   21 1
    28   19   39 1
    29   20   40 1
    30   21   22 1
    31   21   41 1
    32   22   23 ar
    33   22   32 ar
    34   23   24 ar
    35   23   42 1
    36   24   25 ar
    37   25   26 ar
    38   25   32 ar
    39   26   27 2
    40   26   28 ar
    41   28   29 ar
    42   28   43 1
    43   29   30 1
    44   29   31 ar
    45   30   44 1
    46   30   45 1
    47   31   32 ar
    48   31   46 1
@<TRIPOS>SUBSTRUCTURE
     1 GTP         1 GROUP 0 A     ****
@<TRIPOS>MOLECULE
[[[5-(2-amino-6-oxo-1,3-dihydropurin-2-ylium-9-yl)-3,4-dihydroxy-tetrahydrofuran-2-yl]methoxy-oxido-phosphoryl]oxy-oxido-phosphoryl] hydrogen phosphate
   46    48     1     0     0
SMALL
USER_CHARGES

@<TRIPOS>ATOM
      1 PG         -4.9121    2.3560   -3.4328 P.3       1 GTP         1.5400
      2 O1G        -4.5471    3.5131   -4.3359 O.co2     1 GTP        -0.8909
      3 O2G        -4.6691    0.9268   -3.8640 O.co2     1 GTP        -0.8909
      4 O3G        -6.4797    2.5084   -3.0026 O.3       1 GTP        -0.7980
      5 O3B        -4.2306    2.5898   -1.9683 O.3       1 GTP        -0.7612
      6 PB         -4.3123    3.8795   -0.9705 P.3       1 GTP         1.5847
      7 O1B        -3.6262    5.0516   -1.6361 O.co2     1 GTP        -0.8859
      8 O2B        -5.7177    3.9914   -0.4230 O.co2     1 GTP        -0.8859
      9 O3A        -3.3820    3.3250    0.2509 O.3       1 GTP        -0.7486
     10 PA         -2.9646    4.0418    1.6587 P.3       1 GTP         1.5001
     11 O1A        -2.1198    5.2596    1.3528 O.co2     1 GTP        -0.8487
     12 O2A        -4.1947    4.1429    2.5341 O.co2     1 GTP        -0.8487
     13 O5'        -2.0401    2.8620    2.3128 O.3       1 GTP        -0.5474
     14 C5'        -0.8811    2.4285    1.6206 C.3       1 GTP         0.2547
     15 C4'        -0.1994    1.3333    2.4288 C.3       1 GTP         0.0926
     16 O4'        -1.1285    0.2356    2.5840 O.3       1 GTP        -0.3593
     17 C3'         1.0324    0.7610    1.7344 C.3       1 GTP         0.0907
     18 O3'         1.9175    0.2377    2.7247 O.3       1 GTP        -0.5209
     19 C2'         0.4468   -0.3802    0.9263 C.3       1 GTP         0.0305
     20 O2'         1.3993   -1.3703    0.5961 O.3       1 GTP        -0.5978
     21 C1'        -0.6159   -0.9100    1.8769 C.3       1 GTP         0.2339
     22 N9         -1.7127   -1.6108    1.2130 N.pl3     1 GTP        -0.1765
     23 C8         -1.6311   -2.3341    0.0493 C.ar      1 GTP         0.4947
     24 N7         -2.7933   -2.8506   -0.3007 N.2       1 GTP        -0.5802
     25 C5         -3.6607   -2.4436    0.6786 C.ar      1 GTP         0.2279
     26 C6         -5.0651   -2.7506    0.7505 C.ar      1 GTP         0.6513
     27 O6         -5.6735   -3.4256   -0.0671 O.2       1 GTP        -0.5111
     28 N1         -5.6834   -2.1585    1.9182 N.pl3     1 GTP        -0.4713
     29 C2         -5.0007   -1.3738    2.8765 C.ar      1 GTP         0.5256
     30 N2         -5.6847   -0.8521    3.9640 N.pl3     1 GTP        -0.8665
     31 N3         -3.6227   -1.1271    2.7212 N.pl3     1 GTP        -0.5398
     32 C4         -3.0090   -1.6802    1.6149 C.ar      1 GTP        -0.0275
     33 HOG3       -6.8701    1.8289   -2.4124 H         1 GTP         0.4161
     34 H5'        -1.1767    2.0502    0.6368 H         1 GTP         0.0348
     35 H5''       -0.2080    3.2814    1.4876 H         1 GTP         0.0348
     36 H4'         0.0403    1.7078    3.4343 H         1 GTP         0.1215
     37 H3'         1.5907    1.4859    1.1353 H         1 GTP         0.0576
     38 HO3'        2.6839   -0.1150    2.2479 H         1 GTP         0.3842
     39 H2'        -0.0017    0.0018    0.0005 H         1 GTP         0.0252
     40 HO2'        2.0953   -0.9375    0.0709 H         1 GTP         0.4224
     41 H1'        -0.1998   -1.6319    2.6178 H         1 GTP         0.0745
     42 H8         -0.7029   -2.4474   -0.4941 H         1 GTP         0.1522
     43 HN1        -6.6800   -2.3183    2.0594 H         1 GTP         0.3518
     44 HN21       -5.1660   -0.3153    4.5987 H         1 GTP         0.4761
     45 HN22       -6.6415   -1.0545    4.0252 H         1 GTP         0.4761
     46 H46        -3.1256   -0.5638    3.4080 H         1 GTP         0.5030
@<TRIPOS>BOND
     1    1    2 2
     2    1    3 1
     3    1    4 1
     4    1    5 1
     5    4   33 1
     6    5    6 1
     7    6    7 2
     8    6    8 1
     9    6    9 1
    10    9   10 1
    11   10   11 2
    12   10   12 1
    13   10   13 1
    14   13   14 1
    15   14   15 1
    16   14   34 1
    17   14   35 1
    18   15   16 1
    19   15   17 1
    20   15   36 1
    21   16   21 1
    22   17   18 1
    23   17   19 1
    24   17   37 1
    25   18   38 1
    26   19   20 1
    27   19   21 1
    28   19   39 1
    29   20   40 1
    30   21   22 1
    31   21   41 1
    32   22   23 ar
    33   22   32 ar
    34   23   24 ar
    35   23   42 1
    36   24   25 ar
    37   25   26 ar
    38   25   32 ar
    39   26   27 2
    40   26   28 ar
    41   28   29 ar
    42   28   43 1
    43   29   30 1
    44   29   31 ar
    45   30   44 1
    46   30   45 1
    47   31   32 ar
    48   31   46 1
@<TRIPOS>SUBSTRUCTURE
     1 GTP         1 GROUP 0 A     ****
@<TRIPOS>MOLECULE
[[[5-(2-amino-6-oxo-1,3-dihydropurin-2-ylium-9-yl)-3,4-dihydroxy-tetrahydrofuran-2-yl]methoxy-oxido-phosphoryl]oxy-oxido-phosphoryl] hydrogen phosphate
   46    48     1     0     0
SMALL
USER_CHARGES

@<TRIPOS>ATOM
      1 PG         -6.0454    2.5109   -2.2671 P.3       1 GTP         1.5400
      2 O1G        -5.7455    3.4434   -3.4195 O.co2     1 GTP        -0.8909
      3 O2G        -6.1582    1.0183   -2.4841 O.co2     1 GTP        -0.8909
      4 O3G        -7.4007    3.0299   -1.5191 O.3       1 GTP        -0.7980
      5 O3B        -4.9775    2.7914   -1.0651 O.3       1 GTP        -0.7612
      6 PB         -4.5863    4.1899   -0.3189 P.3       1 GTP         1.5847
      7 O1B        -3.9166    5.1034   -1.3211 O.co2     1 GTP        -0.8859
      8 O2B        -5.7632    4.6523    0.5109 O.co2     1 GTP        -0.8859
      9 O3A        -3.4727    3.6234    0.7318 O.3       1 GTP        -0.7486
     10 PA         -2.5926    4.4187    1.8556 P.3       1 GTP         1.5001
     11 O1A        -1.6707    5.3914    1.1526 O.co2     1 GTP        -0.8487
     12 O2A        -3.5190    4.8780    2.9603 O.co2     1 GTP        -0.8487
     13 O5'        -1.7336    3.1724    2.4750 O.3       1 GTP        -0.5474
     14 C5'        -0.8811    2.4285    1.6206 C.3       1 GTP         0.2547
     15 C4'        -0.1994    1.3333    2.4288 C.3       1 GTP         0.0926
     16 O4'        -1.1285    0.2356    2.5840 O.3       1 GTP        -0.3593
     17 C3'         1.0324    0.7610    1.7344 C.3       1 GTP         0.0907
     18 O3'         1.9175    0.2377    2.7247 O.3       1 GTP        -0.5209
     19 C2'         0.4468   -0.3802    0.9263 C.3       1 GTP         0.0305
     20 O2'         1.3993   -1.3703    0.5961 O.3       1 GTP        -0.5978
     21 C1'        -0.6159   -0.9100    1.8769 C.3       1 GTP         0.2339
     22 N9         -1.7127   -1.6108    1.2130 N.pl3     1 GTP        -0.1765
     23 C8         -3.0389   -1.2578    1.2391 C.ar      1 GTP         0.4947
     24 N7         -3.7909   -2.0880    0.5425 N.2       1 GTP        -0.5802
     25 C5         -2.9127   -3.0150    0.0458 C.ar      1 GTP         0.2279
     26 C6         -3.2467   -4.1411   -0.7860 C.ar      1 GTP         0.6513
     27 O6         -4.3761   -4.4189   -1.1621 O.2       1 GTP        -0.5111
     28 N1         -2.0748   -4.9191   -1.1296 N.pl3     1 GTP        -0.4713
     29 C2         -0.7595   -4.6181   -0.7058 C.ar      1 GTP         0.5256
     30 N2          0.2985   -5.4268   -1.0920 N.pl3     1 GTP        -0.8665
     31 N3         -0.5304   -3.4919    0.1084 N.pl3     1 GTP        -0.5398
     32 C4         -1.6318   -2.7332    0.4512 C.ar      1 GTP        -0.0275
     33 HOG3       -7.7288    2.5255   -0.7443 H         1 GTP         0.4161
     34 H5'        -1.4800    1.9927    0.8146 H         1 GTP         0.0348
     35 H5''       -0.1367    3.1040    1.1872 H         1 GTP         0.0348
     36 H4'         0.0403    1.7078    3.4343 H         1 GTP         0.1215
     37 H3'         1.5907    1.4859    1.1353 H         1 GTP         0.0576
     38 HO3'        2.1521    0.9800    3.3017 H         1 GTP         0.3842
     39 H2'        -0.0017    0.0018    0.0005 H         1 GTP         0.0252
     40 HO2'        1.7495   -1.7243    1.4324 H         1 GTP         0.4224
     41 H1'        -0.1998   -1.6319    2.6178 H         1 GTP         0.0745
     42 H8         -3.3933   -0.3909    1.7800 H         1 GTP         0.1522
     43 HN1        -2.2071   -5.7408   -1.7178 H         1 GTP         0.3518
     44 HN21        0.0848   -6.1964   -1.6597 H         1 GTP         0.4761
     45 HN22        1.1896   -5.1747   -0.7719 H         1 GTP         0.4761
     46 H46         0.4142   -3.2695    0.4160 H         1 GTP         0.5030
@<TRIPOS>BOND
     1    1    2 2
     2    1    3 1
     3    1    4 1
     4    1    5 1
     5    4   33 1
     6    5    6 1
     7    6    7 2
     8    6    8 1
     9    6    9 1
    10    9   10 1
    11   10   11 2
    12   10   12 1
    13   10   13 1
    14   13   14 1
    15   14   15 1
    16   14   34 1
    17   14   35 1
    18   15   16 1
    19   15   17 1
    20   15   36 1
    21   16   21 1
    22   17   18 1
    23   17   19 1
    24   17   37 1
    25   18   38 1
    26   19   20 1
    27   19   21 1
    28   19   39 1
    29   20   40 1
    30   21   22 1
    31   21   41 1
    32   22   23 ar
    33   22   32 ar
    34   23   24 ar
    35   23   42 1
    36   24   25 ar
    37   25   26 ar
    38   25   32 ar
    39   26   27 2
    40   26   28 ar
    41   28   29 ar
    42   28   43 1
    43   29   30 1
    44   29   31 ar
    45   30   44 1
    46   30   45 1
    47   31   32 ar
    48   31   46 1
@<TRIPOS>SUBSTRUCTURE
     1 GTP         1 GROUP 0 A     ****
@<TRIPOS>MOLECULE
[[[5-(2-amino-6-oxo-1,3-dihydropurin-2-ylium-9-yl)-3,4-dihydroxy-tetrahydrofuran-2-yl]methoxy-oxido-phosphoryl]oxy-oxido-phosphoryl] hydrogen phosphate
   46    48     1     0     0
SMALL
USER_CHARGES

@<TRIPOS>ATOM
      1 PG          0.7329    1.2313   -4.5237 P.3       1 GTP         1.5400
      2 O1G         1.1650   -0.2069   -4.3442 O.co2     1 GTP        -0.8909
      3 O2G        -0.4543    1.5837   -5.3921 O.co2     1 GTP        -0.8909
      4 O3G         2.0200    2.1004   -5.0278 O.3       1 GTP        -0.7980
      5 O3B         0.5347    1.9138   -3.0545 O.3       1 GTP        -0.7612
      6 PB          0.2279    3.4669   -2.6554 P.3       1 GTP         1.5847
      7 O1B         1.4194    4.3124   -3.0462 O.co2     1 GTP        -0.8859
      8 O2B        -1.1742    3.8221   -3.0978 O.co2     1 GTP        -0.8859
      9 O3A         0.1765    3.3147   -1.0309 O.3       1 GTP        -0.7486
     10 PA         -0.0889    4.4444    0.1193 P.3       1 GTP         1.5001
     11 O1A         1.0444    5.4470    0.0872 O.co2     1 GTP        -0.8487
     12 O2A        -1.5319    4.8920    0.0350 O.co2     1 GTP        -0.8487
     13 O5'         0.0178    3.5131    1.4595 O.3       1 GTP        -0.5474
     14 C5'        -0.8811    2.4285    1.6206 C.3       1 GTP         0.2547
     15 C4'        -0.1994    1.3333    2.4288 C.3       1 GTP         0.0926
     16 O4'        -1.1285    0.2356    2.5840 O.3       1 GTP        -0.3593
     17 C3'         1.0324    0.7610    1.7344 C.3       1 GTP         0.0907
     18 O3'         1.9175    0.2377    2.7247 O.3       1 GTP        -0.5209
     19 C2'         0.4468   -0.3802    0.9263 C.3       1 GTP         0.0305
     20 O2'         1.3993   -1.3703    0.5961 O.3       1 GTP        -0.5978
     21 C1'        -0.6159   -0.9100    1.8769 C.3       1 GTP         0.2339
     22 N9         -1.7127   -1.6108    1.2130 N.pl3     1 GTP        -0.1765
     23 C8         -3.0389   -1.2578    1.2391 C.ar      1 GTP         0.4947
     24 N7         -3.7909   -2.0880    0.5425 N.2       1 GTP        -0.5802
     25 C5         -2.9127   -3.0150    0.0458 C.ar      1 GTP         0.2279
     26 C6         -3.2467   -4.1411   -0.7860 C.ar      1 GTP         0.6513
     27 O6         -4.3761   -4.4189   -1.1621 O.2       1 GTP        -0.5111
     28 N1         -2.0748   -4.9191   -1.1296 N.pl3     1 GTP        -0.4713
     29 C2         -0.7595   -4.6181   -0.7058 C.ar      1 GTP         0.5256
     30 N2          0.2985   -5.4268   -1.0920 N.pl3     1 GTP        -0.8665
     31 N3         -0.5304   -3.4919    0.1084 N.pl3     1 GTP        -0.5398
     32 C4         -1.6318   -2.7332    0.4512 C.ar      1 GTP        -0.0275
     33 HOG3        1.9003    3.0603   -5.1908 H         1 GTP         0.4161
     34 H5'        -1.7771    2.7849    2.1387 H         1 GTP         0.0348
     35 H5''       -1.1654    2.0541    0.6320 H         1 GTP         0.0348
     36 H4'         0.0403    1.7078    3.4343 H         1 GTP         0.1215
     37 H3'         1.5907    1.4859    1.1353 H         1 GTP         0.0576
     38 HO3'        2.6839   -0.1150    2.2479 H         1 GTP         0.3842
     39 H2'        -0.0017    0.0018    0.0005 H         1 GTP         0.0252
     40 HO2'        2.0953   -0.9375    0.0709 H         1 GTP         0.4224
     41 H1'        -0.1998   -1.6319    2.6178 H         1 GTP         0.0745
     42 H8         -3.3933   -0.3909    1.7800 H         1 GTP         0.1522
     43 HN1        -2.2071   -5.7408   -1.7178 H         1 GTP         0.3518
     44 HN21        1.1896   -5.1751   -0.7715 H         1 GTP         0.4761
     45 HN22        0.0846   -6.1966   -1.6593 H         1 GTP         0.4761
     46 H46         0.4142   -3.2695    0.4160 H         1 GTP         0.5030
@<TRIPOS>BOND
     1    1    2 2
     2    1    3 1
     3    1    4 1
     4    1    5 1
     5    4   33 1
     6    5    6 1
     7    6    7 2
     8    6    8 1
     9    6    9 1
    10    9   10 1
    11   10   11 2
    12   10   12 1
    13   10   13 1
    14   13   14 1
    15   14   15 1
    16   14   34 1
    17   14   35 1
    18   15   16 1
    19   15   17 1
    20   15   36 1
    21   16   21 1
    22   17   18 1
    23   17   19 1
    24   17   37 1
    25   18   38 1
    26   19   20 1
    27   19   21 1
    28   19   39 1
    29   20   40 1
    30   21   22 1
    31   21   41 1
    32   22   23 ar
    33   22   32 ar
    34   23   24 ar
    35   23   42 1
    36   24   25 ar
    37   25   26 ar
    38   25   32 ar
    39   26   27 2
    40   26   28 ar
    41   28   29 ar
    42   28   43 1
    43   29   30 1
    44   29   31 ar
    45   30   44 1
    46   30   45 1
    47   31   32 ar
    48   31   46 1
@<TRIPOS>SUBSTRUCTURE
     1 GTP         1 GROUP 0 A     ****
@<TRIPOS>MOLECULE
[[[5-(2-amino-6-oxo-1,3-dihydropurin-2-ylium-9-yl)-3,4-dihydroxy-tetrahydrofuran-2-yl]methoxy-oxido-phosphoryl]oxy-oxido-phosphoryl] hydrogen phosphate
   46    48     1     0     0
SMALL
USER_CHARGES

@<TRIPOS>ATOM
      1 PG          2.1316    5.2022   -4.1074 P.3       1 GTP         1.5400
      2 O1G         2.8348    4.1224   -4.8992 O.co2     1 GTP        -0.8909
      3 O2G         1.1195    6.1139   -4.7648 O.co2     1 GTP        -0.8909
      4 O3G         3.2605    6.1252   -3.3728 O.3       1 GTP        -0.7980
      5 O3B         1.4575    4.5337   -2.7798 O.3       1 GTP        -0.7612
      6 PB          0.2279    3.4669   -2.6554 P.3       1 GTP         1.5847
      7 O1B        -1.0412    4.1311   -3.1410 O.co2     1 GTP        -0.8859
      8 O2B         0.6788    2.1290   -3.1979 O.co2     1 GTP        -0.8859
      9 O3A         0.1765    3.3147   -1.0309 O.3       1 GTP        -0.7486
     10 PA         -0.0889    4.4444    0.1193 P.3       1 GTP         1.5001
     11 O1A         1.0444    5.4470    0.0872 O.co2     1 GTP        -0.8487
     12 O2A        -1.5319    4.8920    0.0350 O.co2     1 GTP        -0.8487
     13 O5'         0.0178    3.5131    1.4595 O.3       1 GTP        -0.5474
     14 C5'        -0.8811    2.4285    1.6206 C.3       1 GTP         0.2547
     15 C4'        -0.1994    1.3333    2.4288 C.3       1 GTP         0.0926
     16 O4'        -1.1285    0.2356    2.5840 O.3       1 GTP        -0.3593
     17 C3'         1.0324    0.7610    1.7344 C.3       1 GTP         0.0907
     18 O3'         1.9175    0.2377    2.7247 O.3       1 GTP        -0.5209
     19 C2'         0.4468   -0.3802    0.9263 C.3       1 GTP         0.0305
     20 O2'         1.3993   -1.3703    0.5961 O.3       1 GTP        -0.5978
     21 C1'        -0.6159   -0.9100    1.8769 C.3       1 GTP         0.2339
     22 N9         -1.7127   -1.6108    1.2130 N.pl3     1 GTP        -0.1765
     23 C8         -1.7789   -2.9564    0.9503 C.ar      1 GTP         0.4947
     24 N7         -2.8980   -3.2916    0.3377 N.2       1 GTP        -0.5802
     25 C5         -3.5824   -2.1127    0.2000 C.ar      1 GTP         0.2279
     26 C6         -4.8740   -1.9471   -0.4133 C.ar      1 GTP         0.6513
     27 O6         -5.5366   -2.8529   -0.8978 O.2       1 GTP        -0.5111
     28 N1         -5.3036   -0.5645   -0.3916 N.pl3     1 GTP        -0.4713
     29 C2         -4.5545    0.4997    0.1619 C.ar      1 GTP         0.5256
     30 N2         -5.0561    1.7921    0.1348 N.pl3     1 GTP        -0.8665
     31 N3         -3.2977    0.2393    0.7420 N.pl3     1 GTP        -0.5398
     32 C4         -2.8643   -1.0716    0.7336 C.ar      1 GTP        -0.0275
     33 HOG3        2.9604    6.8753   -2.8164 H         1 GTP         0.4161
     34 H5'        -1.7771    2.7849    2.1387 H         1 GTP         0.0348
     35 H5''       -1.1654    2.0541    0.6320 H         1 GTP         0.0348
     36 H4'         0.0403    1.7078    3.4343 H         1 GTP         0.1215
     37 H3'         1.5907    1.4859    1.1353 H         1 GTP         0.0576
     38 HO3'        2.6839   -0.1150    2.2479 H         1 GTP         0.3842
     39 H2'        -0.0017    0.0018    0.0005 H         1 GTP         0.0252
     40 HO2'        2.0953   -0.9375    0.0709 H         1 GTP         0.4224
     41 H1'        -0.1998   -1.6319    2.6178 H         1 GTP         0.0745
     42 H8         -0.9852   -3.6367    1.2276 H         1 GTP         0.1522
     43 HN1        -6.2089   -0.3428   -0.8039 H         1 GTP         0.3518
     44 HN21       -4.4981    2.4933    0.5311 H         1 GTP         0.4761
     45 HN22       -5.9352    1.9183   -0.2793 H         1 GTP         0.4761
     46 H46        -2.7541    1.0010    1.1428 H         1 GTP         0.5030
@<TRIPOS>BOND
     1    1    2 2
     2    1    3 1
     3    1    4 1
     4    1    5 1
     5    4   33 1
     6    5    6 1
     7    6    7 2
     8    6    8 1
     9    6    9 1
    10    9   10 1
    11   10   11 2
    12   10   12 1
    13   10   13 1
    14   13   14 1
    15   14   15 1
    16   14   34 1
    17   14   35 1
    18   15   16 1
    19   15   17 1
    20   15   36 1
    21   16   21 1
    22   17   18 1
    23   17   19 1
    24   17   37 1
    25   18   38 1
    26   19   20 1
    27   19   21 1
    28   19   39 1
    29   20   40 1
    30   21   22 1
    31   21   41 1
    32   22   23 ar
    33   22   32 ar
    34   23   24 ar
    35   23   42 1
    36   24   25 ar
    37   25   26 ar
    38   25   32 ar
    39   26   27 2
    40   26   28 ar
    41   28   29 ar
    42   28   43 1
    43   29   30 1
    44   29   31 ar
    45   30   44 1
    46   30   45 1
    47   31   32 ar
    48   31   46 1
@<TRIPOS>SUBSTRUCTURE
     1 GTP         1 GROUP 0 A     ****
@<TRIPOS>MOLECULE
[[[5-(2-amino-6-oxo-1,3-dihydropurin-2-ylium-9-yl)-3,4-dihydroxy-tetrahydrofuran-2-yl]methoxy-oxido-phosphoryl]oxy-oxido-phosphoryl] hydrogen phosphate
   46    48     1     0     0
SMALL
USER_CHARGES

@<TRIPOS>ATOM
      1 PG          1.0089    6.7431   -2.7923 P.3       1 GTP         1.5400
      2 O1G         2.4906    6.9997   -2.6310 O.co2     1 GTP        -0.8909
      3 O2G         0.3550    6.7944   -4.1553 O.co2     1 GTP        -0.8909
      4 O3G         0.1969    7.7438   -1.7898 O.3       1 GTP        -0.7980
      5 O3B         0.6350    5.3233   -2.0795 O.3       1 GTP        -0.7612
      6 PB          1.0699    3.8028   -2.4851 P.3       1 GTP         1.5847
      7 O1B         0.4479    3.4604   -3.8205 O.co2     1 GTP        -0.8859
      8 O2B         2.5514    3.6300   -2.2342 O.co2     1 GTP        -0.8859
      9 O3A         0.3009    2.9854   -1.2996 O.3       1 GTP        -0.7486
     10 PA         -1.2907    2.9172   -0.9365 P.3       1 GTP         1.5001
     11 O1A        -1.7514    4.2936   -0.5082 O.co2     1 GTP        -0.8487
     12 O2A        -2.0058    2.1592   -2.0337 O.co2     1 GTP        -0.8487
     13 O5'        -1.2434    1.9104    0.3515 O.3       1 GTP        -0.5474
     14 C5'        -0.8811    2.4285    1.6206 C.3       1 GTP         0.2547
     15 C4'        -0.1994    1.3333    2.4288 C.3       1 GTP         0.0926
     16 O4'        -1.1285    0.2356    2.5840 O.3       1 GTP        -0.3593
     17 C3'         1.0324    0.7610    1.7344 C.3       1 GTP         0.0907
     18 O3'         1.9175    0.2377    2.7247 O.3       1 GTP        -0.5209
     19 C2'         0.4468   -0.3802    0.9263 C.3       1 GTP         0.0305
     20 O2'         1.3993   -1.3703    0.5961 O.3       1 GTP        -0.5978
     21 C1'        -0.6159   -0.9100    1.8769 C.3       1 GTP         0.2339
     22 N9         -1.7127   -1.6108    1.2130 N.pl3     1 GTP        -0.1765
     23 C8         -2.8692   -1.0463    0.7355 C.ar      1 GTP         0.4947
     24 N7         -3.6707   -1.9381    0.1856 N.2       1 GTP        -0.5802
     25 C5         -3.0027   -3.1275    0.3134 C.ar      1 GTP         0.2279
     26 C6         -3.4659   -4.4142   -0.1355 C.ar      1 GTP         0.6513
     27 O6         -4.5328   -4.6133   -0.6980 O.2       1 GTP        -0.5111
     28 N1         -2.5102   -5.4606    0.1612 N.pl3     1 GTP        -0.4713
     29 C2         -1.2711   -5.2547    0.8113 C.ar      1 GTP         0.5256
     30 N2         -0.4228   -6.3256    1.0482 N.pl3     1 GTP        -0.8665
     31 N3         -0.9033   -3.9563    1.2146 N.pl3     1 GTP        -0.5398
     32 C4         -1.7979   -2.9400    0.9438 C.ar      1 GTP        -0.0275
     33 HOG3       -0.7829    7.6984   -1.7776 H         1 GTP         0.4161
     34 H5'        -0.2033    3.2760    1.4769 H         1 GTP         0.0348
     35 H5''       -1.7841    2.7762    2.1323 H         1 GTP         0.0348
     36 H4'         0.0403    1.7078    3.4343 H         1 GTP         0.1215
     37 H3'         1.5907    1.4859    1.1353 H         1 GTP         0.0576
     38 HO3'        2.6839   -0.1150    2.2479 H         1 GTP         0.3842
     39 H2'        -0.0017    0.0018    0.0005 H         1 GTP         0.0252
     40 HO2'        2.0953   -0.9375    0.0709 H         1 GTP         0.4224
     41 H1'        -0.1998   -1.6319    2.6178 H         1 GTP         0.0745
     42 H8         -3.0691    0.0134    0.8177 H         1 GTP         0.1522
     43 HN1        -2.7468   -6.4119   -0.1177 H         1 GTP         0.3518
     44 HN21        0.4233   -6.1297    1.5018 H         1 GTP         0.4761
     45 HN22       -0.7261   -7.2071    0.7466 H         1 GTP         0.4761
     46 H46        -0.0124   -3.8015    1.6821 H         1 GTP         0.5030
@<TRIPOS>BOND
     1    1    2 2
     2    1    3 1
     3    1    4 1
     4    1    5 1
     5    4   33 1
     6    5    6 1
     7    6    7 2
     8    6    8 1
     9    6    9 1
    10    9   10 1
    11   10   11 2
    12   10   12 1
    13   10   13 1
    14   13   14 1
    15   14   15 1
    16   14   34 1
    17   14   35 1
    18   15   16 1
    19   15   17 1
    20   15   36 1
    21   16   21 1
    22   17   18 1
    23   17   19 1
    24   17   37 1
    25   18   38 1
    26   19   20 1
    27   19   21 1
    28   19   39 1
    29   20   40 1
    30   21   22 1
    31   21   41 1
    32   22   23 ar
    33   22   32 ar
    34   23   24 ar
    35   23   42 1
    36   24   25 ar
    37   25   26 ar
    38   25   32 ar
    39   26   27 2
    40   26   28 ar
    41   28   29 ar
    42   28   43 1
    43   29   30 1
    44   29   31 ar
    45   30   44 1
    46   30   45 1
    47   31   32 ar
    48   31   46 1
@<TRIPOS>SUBSTRUCTURE
     1 GTP         1 GROUP 0 A     ****
@<TRIPOS>MOLECULE
[[[5-(2-amino-6-oxo-1,3-dihydropurin-2-ylium-9-yl)-3,4-dihydroxy-tetrahydrofuran-2-yl]methoxy-oxido-phosphoryl]oxy-oxido-phosphoryl] hydrogen phosphate
   46    48     1     0     0
SMALL
USER_CHARGES

@<TRIPOS>ATOM
      1 PG         -4.6830    5.0266    2.9789 P.3       1 GTP         1.5400
      2 O1G        -4.7454    4.6637    1.5119 O.co2     1 GTP        -0.8909
      3 O2G        -4.6826    3.9542    4.0455 O.co2     1 GTP        -0.8909
      4 O3G        -5.8868    6.0807    3.3040 O.3       1 GTP        -0.7980
      5 O3B        -3.4118    6.0197    3.2268 O.3       1 GTP        -0.7612
      6 PB         -1.8115    5.7208    3.1040 P.3       1 GTP         1.5847
      7 O1B        -1.0593    7.0177    3.3033 O.co2     1 GTP        -0.8859
      8 O2B        -1.4784    4.4814    3.9043 O.co2     1 GTP        -0.8859
      9 O3A        -1.7457    5.2883    1.5313 O.3       1 GTP        -0.7486
     10 PA         -0.4665    4.8322    0.6228 P.3       1 GTP         1.5001
     11 O1A        -0.9631    4.4288   -0.7487 O.co2     1 GTP        -0.8487
     12 O2A         0.6338    5.8580    0.7859 O.co2     1 GTP        -0.8487
     13 O5'         0.0178    3.5131    1.4595 O.3       1 GTP        -0.5474
     14 C5'        -0.8811    2.4285    1.6206 C.3       1 GTP         0.2547
     15 C4'        -0.1994    1.3333    2.4288 C.3       1 GTP         0.0926
     16 O4'        -1.1285    0.2356    2.5840 O.3       1 GTP        -0.3593
     17 C3'         1.0324    0.7610    1.7344 C.3       1 GTP         0.0907
     18 O3'         1.9175    0.2377    2.7247 O.3       1 GTP        -0.5209
     19 C2'         0.4468   -0.3802    0.9263 C.3       1 GTP         0.0305
     20 O2'         1.3993   -1.3703    0.5961 O.3       1 GTP        -0.5978
     21 C1'        -0.6159   -0.9100    1.8769 C.3       1 GTP         0.2339
     22 N9         -1.7127   -1.6108    1.2130 N.pl3     1 GTP        -0.1765
     23 C8         -1.6092   -2.7449    0.4467 C.ar      1 GTP         0.4947
     24 N7         -2.7778   -3.1416   -0.0191 N.2       1 GTP        -0.5802
     25 C5         -3.6725   -2.2253    0.4675 C.ar      1 GTP         0.2279
     26 C6         -5.0932   -2.2202    0.2371 C.ar      1 GTP         0.6513
     27 O6         -5.6933   -3.0474   -0.4337 O.2       1 GTP        -0.5111
     28 N1         -5.7390   -1.1061    0.8992 N.pl3     1 GTP        -0.4713
     29 C2         -5.0661   -0.1368    1.6789 C.ar      1 GTP         0.5256
     30 N2         -5.7774    0.8934    2.2749 N.pl3     1 GTP        -0.8665
     31 N3         -3.6705   -0.2251    1.8481 N.pl3     1 GTP        -0.5398
     32 C4         -3.0303   -1.2785    1.2262 C.ar      1 GTP        -0.0275
     33 HOG3       -5.9804    6.4139    4.2219 H         1 GTP         0.4161
     34 H5'        -1.7771    2.7849    2.1387 H         1 GTP         0.0348
     35 H5''       -1.1654    2.0541    0.6320 H         1 GTP         0.0348
     36 H4'         0.0403    1.7078    3.4343 H         1 GTP         0.1215
     37 H3'         1.5907    1.4859    1.1353 H         1 GTP         0.0576
     38 HO3'        2.6839   -0.1150    2.2479 H         1 GTP         0.3842
     39 H2'        -0.0017    0.0018    0.0005 H         1 GTP         0.0252
     40 HO2'        2.0953   -0.9375    0.0709 H         1 GTP         0.4224
     41 H1'        -0.1998   -1.6319    2.6178 H         1 GTP         0.0745
     42 H8         -0.6610   -3.2324    0.2653 H         1 GTP         0.1522
     43 HN1        -6.7487   -1.0139    0.7961 H         1 GTP         0.3518
     44 HN21       -5.2644    1.5388    2.8044 H         1 GTP         0.4761
     45 HN22       -6.7459    0.9078    2.1265 H         1 GTP         0.4761
     46 H46        -3.1807    0.4690    2.4089 H         1 GTP         0.5030
@<TRIPOS>BOND
     1    1    2 2
     2    1    3 1
     3    1    4 1
     4    1    5 1
     5    4   33 1
     6    5    6 1
     7    6    7 2
     8    6    8 1
     9    6    9 1
    10    9   10 1
    11   10   11 2
    12   10   12 1
    13   10   13 1
    14   13   14 1
    15   14   15 1
    16   14   34 1
    17   14   35 1
    18   15   16 1
    19   15   17 1
    20   15   36 1
    21   16   21 1
    22   17   18 1
    23   17   19 1
    24   17   37 1
    25   18   38 1
    26   19   20 1
    27   19   21 1
    28   19   39 1
    29   20   40 1
    30   21   22 1
    31   21   41 1
    32   22   23 ar
    33   22   32 ar
    34   23   24 ar
    35   23   42 1
    36   24   25 ar
    37   25   26 ar
    38   25   32 ar
    39   26   27 2
    40   26   28 ar
    41   28   29 ar
    42   28   43 1
    43   29   30 1
    44   29   31 ar
    45   30   44 1
    46   30   45 1
    47   31   32 ar
    48   31   46 1
@<TRIPOS>SUBSTRUCTURE
     1 GTP         1 GROUP 0 A     ****
@<TRIPOS>MOLECULE
[[[5-(2-amino-6-oxo-1,3-dihydropurin-2-ylium-9-yl)-3,4-dihydroxy-tetrahydrofuran-2-yl]methoxy-oxido-phosphoryl]oxy-oxido-phosphoryl] hydrogen phosphate
   46    48     1     0     0
SMALL
USER_CHARGES

@<TRIPOS>ATOM
      1 PG          7.0077    4.9241   -5.4705 P.3       1 GTP         1.5400
      2 O1G         8.4684    4.5329   -5.4974 O.co2     1 GTP        -0.8909
      3 O2G         6.1222    4.7057   -6.6771 O.co2     1 GTP        -0.8909
      4 O3G         6.8986    6.4909   -5.0242 O.3       1 GTP        -0.7980
      5 O3B         6.3001    4.2460   -4.1654 O.3       1 GTP        -0.7612
      6 PB          6.0145    2.6741   -3.8289 P.3       1 GTP         1.5847
      7 O1B         5.0139    2.1384   -4.8286 O.co2     1 GTP        -0.8859
      8 O2B         7.3324    1.9764   -3.5763 O.co2     1 GTP        -0.8859
      9 O3A         5.2941    2.8444   -2.3740 O.3       1 GTP        -0.7486
     10 PA          5.8655    3.5044   -0.9928 P.3       1 GTP         1.5001
     11 O1A         7.0286    2.6708   -0.5002 O.co2     1 GTP        -0.8487
     12 O2A         6.0020    4.9984   -1.1902 O.co2     1 GTP        -0.8487
     13 O5'         4.5670    3.2937   -0.0211 O.3       1 GTP        -0.5474
     14 C5'         4.0922    1.9801    0.2227 C.3       1 GTP         0.2547
     15 C4'         2.5944    2.0310    0.4653 C.3       1 GTP         0.0926
     16 O4'         1.9327    2.5740   -0.6889 O.3       1 GTP        -0.3593
     17 C3'         1.9685    0.6634    0.6767 C.3       1 GTP         0.0907
     18 O3'         2.1425    0.1975    1.9977 O.3       1 GTP        -0.5209
     19 C2'         0.5176    0.9128    0.3099 C.3       1 GTP         0.0305
     20 O2'        -0.2103    1.4454    1.4152 O.3       1 GTP        -0.5978
     21 C1'         0.6219    1.9765   -0.7844 C.3       1 GTP         0.2339
     22 N9          0.4237    1.4496   -2.1357 N.pl3     1 GTP        -0.1765
     23 C8          1.3988    0.9691   -2.9736 C.ar      1 GTP         0.4947
     24 N7          0.9092    0.5634   -4.1293 N.2       1 GTP        -0.5802
     25 C5         -0.4383    0.7914   -4.0325 C.ar      1 GTP         0.2279
     26 C6         -1.4217    0.5138   -5.0461 C.ar      1 GTP         0.6513
     27 O6         -1.1759    0.0306   -6.1417 O.2       1 GTP        -0.5111
     28 N1         -2.7543    0.8794   -4.6134 N.pl3     1 GTP        -0.4713
     29 C2         -3.0626    1.4402   -3.3523 C.ar      1 GTP         0.5256
     30 N2         -4.3747    1.7544   -3.0321 N.pl3     1 GTP        -0.8665
     31 N3         -2.0304    1.6759   -2.4233 N.pl3     1 GTP        -0.5398
     32 C4         -0.7497    1.3366   -2.8118 C.ar      1 GTP        -0.0275
     33 HOG3        6.0079    6.8969   -4.9594 H         1 GTP         0.4161
     34 H5'         4.3179    1.3548   -0.6470 H         1 GTP         0.0348
     35 H5''        4.6083    1.5737    1.0983 H         1 GTP         0.0348
     36 H4'         2.3752    2.7029    1.3156 H         1 GTP         0.1215
     37 H3'         2.4336   -0.1217   -0.0015 H         1 GTP         0.0576
     38 HO3'        1.7160   -0.6716    2.0397 H         1 GTP         0.3842
     39 H2'         0.0316    0.0155   -0.0339 H         1 GTP         0.0252
     40 HO2'       -0.1608    0.7921    2.1351 H         1 GTP         0.4224
     41 H1'        -0.1474    2.7798   -0.6651 H         1 GTP         0.0745
     42 H8          2.4413    0.9409   -2.6872 H         1 GTP         0.1522
     43 HN1        -3.5236    0.7214   -5.2629 H         1 GTP         0.3518
     44 HN21       -4.5350    2.1409   -2.1461 H         1 GTP         0.4761
     45 HN22       -5.0542    1.5695   -3.7134 H         1 GTP         0.4761
     46 H46        -2.2462    2.0786   -1.5136 H         1 GTP         0.5030
@<TRIPOS>BOND
     1    1    2 2
     2    1    3 1
     3    1    4 1
     4    1    5 1
     5    4   33 1
     6    5    6 1
     7    6    7 2
     8    6    8 1
     9    6    9 1
    10    9   10 1
    11   10   11 2
    12   10   12 1
    13   10   13 1
    14   13   14 1
    15   14   15 1
    16   14   34 1
    17   14   35 1
    18   15   16 1
    19   15   17 1
    20   15   36 1
    21   16   21 1
    22   17   18 1
    23   17   19 1
    24   17   37 1
    25   18   38 1
    26   19   20 1
    27   19   21 1
    28   19   39 1
    29   20   40 1
    30   21   22 1
    31   21   41 1
    32   22   23 ar
    33   22   32 ar
    34   23   24 ar
    35   23   42 1
    36   24   25 ar
    37   25   26 ar
    38   25   32 ar
    39   26   27 2
    40   26   28 ar
    41   28   29 ar
    42   28   43 1
    43   29   30 1
    44   29   31 ar
    45   30   44 1
    46   30   45 1
    47   31   32 ar
    48   31   46 1
@<TRIPOS>SUBSTRUCTURE
     1 GTP         1 GROUP 0 A     ****
@<TRIPOS>MOLECULE
[[[5-(2-amino-6-oxo-1,3-dihydropurin-2-ylium-9-yl)-3,4-dihydroxy-tetrahydrofuran-2-yl]methoxy-oxido-phosphoryl]oxy-oxido-phosphoryl] hydrogen phosphate
   46    48     1     0     0
SMALL
USER_CHARGES

@<TRIPOS>ATOM
      1 PG         -3.7254    6.3170   -2.5383 P.3       1 GTP         1.5400
      2 O1G        -3.5806    5.6623   -3.8940 O.co2     1 GTP        -0.8909
      3 O2G        -4.9711    7.0969   -2.1809 O.co2     1 GTP        -0.8909
      4 O3G        -2.4252    7.2705   -2.2812 O.3       1 GTP        -0.7980
      5 O3B        -3.4477    5.2032   -1.3781 O.3       1 GTP        -0.7612
      6 PB         -4.3123    3.8795   -0.9705 P.3       1 GTP         1.5847
      7 O1B        -5.6509    4.3239   -0.4245 O.co2     1 GTP        -0.8859
      8 O2B        -4.2100    2.8614   -2.0843 O.co2     1 GTP        -0.8859
      9 O3A        -3.3820    3.3250    0.2509 O.3       1 GTP        -0.7486
     10 PA         -2.9646    4.0418    1.6587 P.3       1 GTP         1.5001
     11 O1A        -2.1198    5.2596    1.3528 O.co2     1 GTP        -0.8487
     12 O2A        -4.1947    4.1429    2.5341 O.co2     1 GTP        -0.8487
     13 O5'        -2.0401    2.8620    2.3128 O.3       1 GTP        -0.5474
     14 C5'        -0.8811    2.4285    1.6206 C.3       1 GTP         0.2547
     15 C4'        -0.1994    1.3333    2.4288 C.3       1 GTP         0.0926
     16 O4'        -1.1285    0.2356    2.5840 O.3       1 GTP        -0.3593
     17 C3'         1.0324    0.7610    1.7344 C.3       1 GTP         0.0907
     18 O3'         1.9175    0.2377    2.7247 O.3       1 GTP        -0.5209
     19 C2'         0.4468   -0.3802    0.9263 C.3       1 GTP         0.0305
     20 O2'         1.3993   -1.3703    0.5961 O.3       1 GTP        -0.5978
     21 C1'        -0.6159   -0.9100    1.8769 C.3       1 GTP         0.2339
     22 N9         -1.7127   -1.6108    1.2130 N.pl3     1 GTP        -0.1765
     23 C8         -1.6311   -2.3341    0.0493 C.ar      1 GTP         0.4947
     24 N7         -2.7933   -2.8506   -0.3007 N.2       1 GTP        -0.5802
     25 C5         -3.6607   -2.4436    0.6786 C.ar      1 GTP         0.2279
     26 C6         -5.0651   -2.7506    0.7505 C.ar      1 GTP         0.6513
     27 O6         -5.6735   -3.4256   -0.0671 O.2       1 GTP        -0.5111
     28 N1         -5.6834   -2.1585    1.9182 N.pl3     1 GTP        -0.4713
     29 C2         -5.0007   -1.3738    2.8765 C.ar      1 GTP         0.5256
     30 N2         -5.6847   -0.8521    3.9640 N.pl3     1 GTP        -0.8665
     31 N3         -3.6227   -1.1271    2.7212 N.pl3     1 GTP        -0.5398
     32 C4         -3.0090   -1.6802    1.6149 C.ar      1 GTP        -0.0275
     33 HOG3       -2.3707    7.7682   -1.4376 H         1 GTP         0.4161
     34 H5'        -1.1767    2.0502    0.6368 H         1 GTP         0.0348
     35 H5''       -0.2080    3.2814    1.4876 H         1 GTP         0.0348
     36 H4'         0.0403    1.7078    3.4343 H         1 GTP         0.1215
     37 H3'         1.5907    1.4859    1.1353 H         1 GTP         0.0576
     38 HO3'        2.1521    0.9800    3.3017 H         1 GTP         0.3842
     39 H2'        -0.0017    0.0018    0.0005 H         1 GTP         0.0252
     40 HO2'        2.0953   -0.9375    0.0709 H         1 GTP         0.4224
     41 H1'        -0.1998   -1.6319    2.6178 H         1 GTP         0.0745
     42 H8         -0.7029   -2.4474   -0.4941 H         1 GTP         0.1522
     43 HN1        -6.6800   -2.3183    2.0594 H         1 GTP         0.3518
     44 HN21       -5.1660   -0.3153    4.5987 H         1 GTP         0.4761
     45 HN22       -6.6415   -1.0545    4.0252 H         1 GTP         0.4761
     46 H46        -3.1256   -0.5638    3.4080 H         1 GTP         0.5030
@<TRIPOS>BOND
     1    1    2 2
     2    1    3 1
     3    1    4 1
     4    1    5 1
     5    4   33 1
     6    5    6 1
     7    6    7 2
     8    6    8 1
     9    6    9 1
    10    9   10 1
    11   10   11 2
    12   10   12 1
    13   10   13 1
    14   13   14 1
    15   14   15 1
    16   14   34 1
    17   14   35 1
    18   15   16 1
    19   15   17 1
    20   15   36 1
    21   16   21 1
    22   17   18 1
    23   17   19 1
    24   17   37 1
    25   18   38 1
    26   19   20 1
    27   19   21 1
    28   19   39 1
    29   20   40 1
    30   21   22 1
    31   21   41 1
    32   22   23 ar
    33   22   32 ar
    34   23   24 ar
    35   23   42 1
    36   24   25 ar
    37   25   26 ar
    38   25   32 ar
    39   26   27 2
    40   26   28 ar
    41   28   29 ar
    42   28   43 1
    43   29   30 1
    44   29   31 ar
    45   30   44 1
    46   30   45 1
    47   31   32 ar
    48   31   46 1
@<TRIPOS>SUBSTRUCTURE
     1 GTP         1 GROUP 0 A     ****
@<TRIPOS>MOLECULE
[[[5-(2-amino-6-oxo-1,3-dihydropurin-2-ylium-9-yl)-3,4-dihydroxy-tetrahydrofuran-2-yl]methoxy-oxido-phosphoryl]oxy-oxido-phosphoryl] hydrogen phosphate
   46    48     1     0     0
SMALL
USER_CHARGES

@<TRIPOS>ATOM
      1 PG         -2.8734    7.5656   -1.5650 P.3       1 GTP         1.5400
      2 O1G        -4.1681    7.7151   -0.7977 O.co2     1 GTP        -0.8909
      3 O2G        -1.8150    8.6453   -1.5216 O.co2     1 GTP        -0.8909
      4 O3G        -3.2296    7.2514   -3.1271 O.3       1 GTP        -0.7980
      5 O3B        -2.1874    6.1366   -1.1762 O.3       1 GTP        -0.7612
      6 PB         -0.8755    5.3994   -1.8096 P.3       1 GTP         1.5847
      7 O1B        -1.1734    5.0291   -3.2454 O.co2     1 GTP        -0.8859
      8 O2B         0.3610    6.1857   -1.4349 O.co2     1 GTP        -0.8859
      9 O3A        -0.8634    4.0508   -0.8898 O.3       1 GTP        -0.7486
     10 PA         -1.9976    2.8867   -0.7222 P.3       1 GTP         1.5001
     11 O1A        -3.2328    3.4974   -0.0965 O.co2     1 GTP        -0.8487
     12 O2A        -2.0811    2.1024   -2.0136 O.co2     1 GTP        -0.8487
     13 O5'        -1.2434    1.9104    0.3515 O.3       1 GTP        -0.5474
     14 C5'        -0.8811    2.4285    1.6206 C.3       1 GTP         0.2547
     15 C4'        -0.1994    1.3333    2.4288 C.3       1 GTP         0.0926
     16 O4'        -1.1285    0.2356    2.5840 O.3       1 GTP        -0.3593
     17 C3'         1.0324    0.7610    1.7344 C.3       1 GTP         0.0907
     18 O3'         1.9175    0.2377    2.7247 O.3       1 GTP        -0.5209
     19 C2'         0.4468   -0.3802    0.9263 C.3       1 GTP         0.0305
     20 O2'         1.3993   -1.3703    0.5961 O.3       1 GTP        -0.5978
     21 C1'        -0.6159   -0.9100    1.8769 C.3       1 GTP         0.2339
     22 N9         -1.7127   -1.6108    1.2130 N.pl3     1 GTP        -0.1765
     23 C8         -2.8692   -1.0463    0.7355 C.ar      1 GTP         0.4947
     24 N7         -3.6707   -1.9381    0.1856 N.2       1 GTP        -0.5802
     25 C5         -3.0027   -3.1275    0.3134 C.ar      1 GTP         0.2279
     26 C6         -3.4659   -4.4142   -0.1355 C.ar      1 GTP         0.6513
     27 O6         -4.5328   -4.6133   -0.6980 O.2       1 GTP        -0.5111
     28 N1         -2.5102   -5.4606    0.1612 N.pl3     1 GTP        -0.4713
     29 C2         -1.2711   -5.2547    0.8113 C.ar      1 GTP         0.5256
     30 N2         -0.4228   -6.3256    1.0482 N.pl3     1 GTP        -0.8665
     31 N3         -0.9033   -3.9563    1.2146 N.pl3     1 GTP        -0.5398
     32 C4         -1.7979   -2.9400    0.9438 C.ar      1 GTP        -0.0275
     33 HOG3       -2.4895    7.1272   -3.7589 H         1 GTP         0.4161
     34 H5'        -0.2033    3.2760    1.4769 H         1 GTP         0.0348
     35 H5''       -1.7841    2.7762    2.1323 H         1 GTP         0.0348
     36 H4'         0.0403    1.7078    3.4343 H         1 GTP         0.1215
     37 H3'         1.5907    1.4859    1.1353 H         1 GTP         0.0576
     38 HO3'        2.6839   -0.1150    2.2479 H         1 GTP         0.3842
     39 H2'        -0.0017    0.0018    0.0005 H         1 GTP         0.0252
     40 HO2'        2.0953   -0.9375    0.0709 H         1 GTP         0.4224
     41 H1'        -0.1998   -1.6319    2.6178 H         1 GTP         0.0745
     42 H8         -3.0691    0.0134    0.8177 H         1 GTP         0.1522
     43 HN1        -2.7468   -6.4119   -0.1177 H         1 GTP         0.3518
     44 HN21        0.4233   -6.1297    1.5018 H         1 GTP         0.4761
     45 HN22       -0.7261   -7.2071    0.7466 H         1 GTP         0.4761
     46 H46        -0.0124   -3.8015    1.6821 H         1 GTP         0.5030
@<TRIPOS>BOND
     1    1    2 2
     2    1    3 1
     3    1    4 1
     4    1    5 1
     5    4   33 1
     6    5    6 1
     7    6    7 2
     8    6    8 1
     9    6    9 1
    10    9   10 1
    11   10   11 2
    12   10   12 1
    13   10   13 1
    14   13   14 1
    15   14   15 1
    16   14   34 1
    17   14   35 1
    18   15   16 1
    19   15   17 1
    20   15   36 1
    21   16   21 1
    22   17   18 1
    23   17   19 1
    24   17   37 1
    25   18   38 1
    26   19   20 1
    27   19   21 1
    28   19   39 1
    29   20   40 1
    30   21   22 1
    31   21   41 1
    32   22   23 ar
    33   22   32 ar
    34   23   24 ar
    35   23   42 1
    36   24   25 ar
    37   25   26 ar
    38   25   32 ar
    39   26   27 2
    40   26   28 ar
    41   28   29 ar
    42   28   43 1
    43   29   30 1
    44   29   31 ar
    45   30   44 1
    46   30   45 1
    47   31   32 ar
    48   31   46 1
@<TRIPOS>SUBSTRUCTURE
     1 GTP         1 GROUP 0 A     ****
@<TRIPOS>MOLECULE
[[[5-(2-amino-6-oxo-1,3-dihydropurin-2-ylium-9-yl)-3,4-dihydroxy-tetrahydrofuran-2-yl]methoxy-oxido-phosphoryl]oxy-oxido-phosphoryl] hydrogen phosphate
   46    48     1     0     0
SMALL
USER_CHARGES

@<TRIPOS>ATOM
      1 PG          6.8252   -1.9459    2.3877 P.3       1 GTP         1.5400
      2 O1G         5.3941   -1.4842    2.2265 O.co2     1 GTP        -0.8909
      3 O2G         7.2716   -3.2920    1.8620 O.co2     1 GTP        -0.8909
      4 O3G         7.2273   -1.8469    3.9671 O.3       1 GTP        -0.7980
      5 O3B         7.8239   -0.7934    1.8063 O.3       1 GTP        -0.7612
      6 PB          8.0344   -0.2669    0.2752 P.3       1 GTP         1.5847
      7 O1B         8.9791    0.9140    0.2941 O.co2     1 GTP        -0.8859
      8 O2B         8.2726   -1.4570   -0.6272 O.co2     1 GTP        -0.8859
      9 O3A         6.5180    0.2527   -0.0338 O.3       1 GTP        -0.7486
     10 PA          5.8979    0.9309   -1.3848 P.3       1 GTP         1.5001
     11 O1A         6.5752    2.2645   -1.6146 O.co2     1 GTP        -0.8487
     12 O2A         5.8467   -0.1185   -2.4739 O.co2     1 GTP        -0.8487
     13 O5'         4.3516    1.1575   -0.9026 O.3       1 GTP        -0.5474
     14 C5'         4.0922    1.9801    0.2227 C.3       1 GTP         0.2547
     15 C4'         2.5944    2.0310    0.4653 C.3       1 GTP         0.0926
     16 O4'         1.9327    2.5740   -0.6889 O.3       1 GTP        -0.3593
     17 C3'         1.9685    0.6634    0.6767 C.3       1 GTP         0.0907
     18 O3'         2.1425    0.1975    1.9977 O.3       1 GTP        -0.5209
     19 C2'         0.5176    0.9128    0.3099 C.3       1 GTP         0.0305
     20 O2'        -0.2103    1.4454    1.4152 O.3       1 GTP        -0.5978
     21 C1'         0.6219    1.9765   -0.7844 C.3       1 GTP         0.2339
     22 N9          0.4237    1.4496   -2.1357 N.pl3     1 GTP        -0.1765
     23 C8          1.3988    0.9691   -2.9736 C.ar      1 GTP         0.4947
     24 N7          0.9092    0.5634   -4.1293 N.2       1 GTP        -0.5802
     25 C5         -0.4383    0.7914   -4.0325 C.ar      1 GTP         0.2279
     26 C6         -1.4217    0.5138   -5.0461 C.ar      1 GTP         0.6513
     27 O6         -1.1759    0.0306   -6.1417 O.2       1 GTP        -0.5111
     28 N1         -2.7543    0.8794   -4.6134 N.pl3     1 GTP        -0.4713
     29 C2         -3.0626    1.4402   -3.3523 C.ar      1 GTP         0.5256
     30 N2         -4.3747    1.7544   -3.0321 N.pl3     1 GTP        -0.8665
     31 N3         -2.0304    1.6759   -2.4233 N.pl3     1 GTP        -0.5398
     32 C4         -0.7497    1.3366   -2.8118 C.ar      1 GTP        -0.0275
     33 HOG3        8.1321   -2.1139    4.2362 H         1 GTP         0.4161
     34 H5'         4.6069    1.5618    1.0936 H         1 GTP         0.0348
     35 H5''        4.4824    2.9837    0.0254 H         1 GTP         0.0348
     36 H4'         2.3752    2.7029    1.3156 H         1 GTP         0.1215
     37 H3'         2.4336   -0.1217   -0.0015 H         1 GTP         0.0576
     38 HO3'        1.7160   -0.6716    2.0397 H         1 GTP         0.3842
     39 H2'         0.0316    0.0155   -0.0339 H         1 GTP         0.0252
     40 HO2'       -1.1270    1.5823    1.1180 H         1 GTP         0.4224
     41 H1'        -0.1474    2.7798   -0.6651 H         1 GTP         0.0745
     42 H8          2.4413    0.9409   -2.6872 H         1 GTP         0.1522
     43 HN1        -3.5236    0.7214   -5.2629 H         1 GTP         0.3518
     44 HN21       -4.5350    2.1409   -2.1461 H         1 GTP         0.4761
     45 HN22       -5.0542    1.5695   -3.7134 H         1 GTP         0.4761
     46 H46        -2.2462    2.0786   -1.5136 H         1 GTP         0.5030
@<TRIPOS>BOND
     1    1    2 2
     2    1    3 1
     3    1    4 1
     4    1    5 1
     5    4   33 1
     6    5    6 1
     7    6    7 2
     8    6    8 1
     9    6    9 1
    10    9   10 1
    11   10   11 2
    12   10   12 1
    13   10   13 1
    14   13   14 1
    15   14   15 1
    16   14   34 1
    17   14   35 1
    18   15   16 1
    19   15   17 1
    20   15   36 1
    21   16   21 1
    22   17   18 1
    23   17   19 1
    24   17   37 1
    25   18   38 1
    26   19   20 1
    27   19   21 1
    28   19   39 1
    29   20   40 1
    30   21   22 1
    31   21   41 1
    32   22   23 ar
    33   22   32 ar
    34   23   24 ar
    35   23   42 1
    36   24   25 ar
    37   25   26 ar
    38   25   32 ar
    39   26   27 2
    40   26   28 ar
    41   28   29 ar
    42   28   43 1
    43   29   30 1
    44   29   31 ar
    45   30   44 1
    46   30   45 1
    47   31   32 ar
    48   31   46 1
@<TRIPOS>SUBSTRUCTURE
     1 GTP         1 GROUP 0 A     ****
@<TRIPOS>MOLECULE
[[[5-(2-amino-6-oxo-1,3-dihydropurin-2-ylium-9-yl)-3,4-dihydroxy-tetrahydrofuran-2-yl]methoxy-oxido-phosphoryl]oxy-oxido-phosphoryl] hydrogen phosphate
   46    48     1     0     0
SMALL
USER_CHARGES

@<TRIPOS>ATOM
      1 PG         -2.2681    2.1420   -2.9667 P.3       1 GTP         1.5400
      2 O1G        -1.9531    0.6909   -2.6794 O.co2     1 GTP        -0.8909
      3 O2G        -3.2677    2.9020   -2.1237 O.co2     1 GTP        -0.8909
      4 O3G        -2.7029    2.2776   -4.5347 O.3       1 GTP        -0.7980
      5 O3B        -0.8731    2.9872   -3.0237 O.3       1 GTP        -0.7612
      6 PB          0.1949    3.3242   -1.8356 P.3       1 GTP         1.5847
      7 O1B         0.6205    2.0274   -1.1840 O.co2     1 GTP        -0.8859
      8 O2B         1.2086    4.3210   -2.3518 O.co2     1 GTP        -0.8859
      9 O3A        -0.7889    4.1455   -0.8244 O.3       1 GTP        -0.7486
     10 PA         -0.4665    4.8322    0.6228 P.3       1 GTP         1.5001
     11 O1A         0.6860    5.7988    0.4566 O.co2     1 GTP        -0.8487
     12 O2A        -1.7709    5.2708    1.2521 O.co2     1 GTP        -0.8487
     13 O5'         0.0178    3.5131    1.4595 O.3       1 GTP        -0.5474
     14 C5'        -0.8811    2.4285    1.6206 C.3       1 GTP         0.2547
     15 C4'        -0.1994    1.3333    2.4288 C.3       1 GTP         0.0926
     16 O4'        -1.1285    0.2356    2.5840 O.3       1 GTP        -0.3593
     17 C3'         1.0324    0.7610    1.7344 C.3       1 GTP         0.0907
     18 O3'         1.9175    0.2377    2.7247 O.3       1 GTP        -0.5209
     19 C2'         0.4468   -0.3802    0.9263 C.3       1 GTP         0.0305
     20 O2'         1.3993   -1.3703    0.5961 O.3       1 GTP        -0.5978
     21 C1'        -0.6159   -0.9100    1.8769 C.3       1 GTP         0.2339
     22 N9         -1.7127   -1.6108    1.2130 N.pl3     1 GTP        -0.1765
     23 C8         -1.7789   -2.9564    0.9503 C.ar      1 GTP         0.4947
     24 N7         -2.8980   -3.2916    0.3377 N.2       1 GTP        -0.5802
     25 C5         -3.5824   -2.1127    0.2000 C.ar      1 GTP         0.2279
     26 C6         -4.8740   -1.9471   -0.4133 C.ar      1 GTP         0.6513
     27 O6         -5.5366   -2.8529   -0.8978 O.2       1 GTP        -0.5111
     28 N1         -5.3036   -0.5645   -0.3916 N.pl3     1 GTP        -0.4713
     29 C2         -4.5545    0.4997    0.1619 C.ar      1 GTP         0.5256
     30 N2         -5.0561    1.7921    0.1348 N.pl3     1 GTP        -0.8665
     31 N3         -3.2977    0.2393    0.7420 N.pl3     1 GTP        -0.5398
     32 C4         -2.8643   -1.0716    0.7336 C.ar      1 GTP        -0.0275
     33 HOG3       -2.9398    3.1654   -4.8784 H         1 GTP         0.4161
     34 H5'        -1.7771    2.7849    2.1387 H         1 GTP         0.0348
     35 H5''       -1.1654    2.0541    0.6320 H         1 GTP         0.0348
     36 H4'         0.0403    1.7078    3.4343 H         1 GTP         0.1215
     37 H3'         1.5907    1.4859    1.1353 H         1 GTP         0.0576
     38 HO3'        2.6839   -0.1150    2.2479 H         1 GTP         0.3842
     39 H2'        -0.0017    0.0018    0.0005 H         1 GTP         0.0252
     40 HO2'        0.9369   -2.0558    0.0825 H         1 GTP         0.4224
     41 H1'        -0.1998   -1.6319    2.6178 H         1 GTP         0.0745
     42 H8         -0.9852   -3.6367    1.2276 H         1 GTP         0.1522
     43 HN1        -6.2089   -0.3428   -0.8039 H         1 GTP         0.3518
     44 HN21       -4.4981    2.4933    0.5311 H         1 GTP         0.4761
     45 HN22       -5.9352    1.9183   -0.2793 H         1 GTP         0.4761
     46 H46        -2.7541    1.0010    1.1428 H         1 GTP         0.5030
@<TRIPOS>BOND
     1    1    2 2
     2    1    3 1
     3    1    4 1
     4    1    5 1
     5    4   33 1
     6    5    6 1
     7    6    7 2
     8    6    8 1
     9    6    9 1
    10    9   10 1
    11   10   11 2
    12   10   12 1
    13   10   13 1
    14   13   14 1
    15   14   15 1
    16   14   34 1
    17   14   35 1
    18   15   16 1
    19   15   17 1
    20   15   36 1
    21   16   21 1
    22   17   18 1
    23   17   19 1
    24   17   37 1
    25   18   38 1
    26   19   20 1
    27   19   21 1
    28   19   39 1
    29   20   40 1
    30   21   22 1
    31   21   41 1
    32   22   23 ar
    33   22   32 ar
    34   23   24 ar
    35   23   42 1
    36   24   25 ar
    37   25   26 ar
    38   25   32 ar
    39   26   27 2
    40   26   28 ar
    41   28   29 ar
    42   28   43 1
    43   29   30 1
    44   29   31 ar
    45   30   44 1
    46   30   45 1
    47   31   32 ar
    48   31   46 1
@<TRIPOS>SUBSTRUCTURE
     1 GTP         1 GROUP 0 A     ****
@<TRIPOS>MOLECULE
[[[5-(2-amino-6-oxo-1,3-dihydropurin-2-ylium-9-yl)-3,4-dihydroxy-tetrahydrofuran-2-yl]methoxy-oxido-phosphoryl]oxy-oxido-phosphoryl] hydrogen phosphate
   46    48     1     0     0
SMALL
USER_CHARGES

@<TRIPOS>ATOM
      1 PG         -4.1788    5.5291   -2.9948 P.3       1 GTP         1.5400
      2 O1G        -3.9803    7.0004   -3.2836 O.co2     1 GTP        -0.8909
      3 O2G        -4.2800    4.5229   -4.1195 O.co2     1 GTP        -0.8909
      4 O3G        -5.4855    5.3617   -2.0302 O.3       1 GTP        -0.7980
      5 O3B        -3.0318    5.0346   -1.9443 O.3       1 GTP        -0.7612
      6 PB         -1.4165    4.9058   -2.1436 P.3       1 GTP         1.5847
      7 O1B        -1.1390    3.8334   -3.1734 O.co2     1 GTP        -0.8859
      8 O2B        -0.8222    6.2914   -2.2635 O.co2     1 GTP        -0.8859
      9 O3A        -1.0127    4.3553   -0.6607 O.3       1 GTP        -0.7486
     10 PA          0.4528    3.9705   -0.0493 P.3       1 GTP         1.5001
     11 O1A         1.0046    2.7881   -0.8159 O.co2     1 GTP        -0.8487
     12 O2A         1.2580    5.2411    0.1148 O.co2     1 GTP        -0.8487
     13 O5'         0.0178    3.5131    1.4595 O.3       1 GTP        -0.5474
     14 C5'        -0.8811    2.4285    1.6206 C.3       1 GTP         0.2547
     15 C4'        -0.1994    1.3333    2.4288 C.3       1 GTP         0.0926
     16 O4'        -1.1285    0.2356    2.5840 O.3       1 GTP        -0.3593
     17 C3'         1.0324    0.7610    1.7344 C.3       1 GTP         0.0907
     18 O3'         1.9175    0.2377    2.7247 O.3       1 GTP        -0.5209
     19 C2'         0.4468   -0.3802    0.9263 C.3       1 GTP         0.0305
     20 O2'         1.3993   -1.3703    0.5961 O.3       1 GTP        -0.5978
     21 C1'        -0.6159   -0.9100    1.8769 C.3       1 GTP         0.2339
     22 N9         -1.7127   -1.6108    1.2130 N.pl3     1 GTP        -0.1765
     23 C8         -2.8692   -1.0463    0.7355 C.ar      1 GTP         0.4947
     24 N7         -3.6707   -1.9381    0.1856 N.2       1 GTP        -0.5802
     25 C5         -3.0027   -3.1275    0.3134 C.ar      1 GTP         0.2279
     26 C6         -3.4659   -4.4142   -0.1355 C.ar      1 GTP         0.6513
     27 O6         -4.5328   -4.6133   -0.6980 O.2       1 GTP        -0.5111
     28 N1         -2.5102   -5.4606    0.1612 N.pl3     1 GTP        -0.4713
     29 C2         -1.2711   -5.2547    0.8113 C.ar      1 GTP         0.5256
     30 N2         -0.4228   -6.3256    1.0482 N.pl3     1 GTP        -0.8665
     31 N3         -0.9033   -3.9563    1.2146 N.pl3     1 GTP        -0.5398
     32 C4         -1.7979   -2.9400    0.9438 C.ar      1 GTP        -0.0275
     33 HOG3       -5.7473    4.4583   -1.7514 H         1 GTP         0.4161
     34 H5'        -1.7771    2.7849    2.1387 H         1 GTP         0.0348
     35 H5''       -1.1654    2.0541    0.6320 H         1 GTP         0.0348
     36 H4'         0.0403    1.7078    3.4343 H         1 GTP         0.1215
     37 H3'         1.5907    1.4859    1.1353 H         1 GTP         0.0576
     38 HO3'        2.6839   -0.1150    2.2479 H         1 GTP         0.3842
     39 H2'        -0.0017    0.0018    0.0005 H         1 GTP         0.0252
     40 HO2'        0.9369   -2.0558    0.0825 H         1 GTP         0.4224
     41 H1'        -0.1998   -1.6319    2.6178 H         1 GTP         0.0745
     42 H8         -3.0691    0.0134    0.8177 H         1 GTP         0.1522
     43 HN1        -2.7468   -6.4119   -0.1177 H         1 GTP         0.3518
     44 HN21        0.4233   -6.1297    1.5018 H         1 GTP         0.4761
     45 HN22       -0.7261   -7.2071    0.7466 H         1 GTP         0.4761
     46 H46        -0.0124   -3.8015    1.6821 H         1 GTP         0.5030
@<TRIPOS>BOND
     1    1    2 2
     2    1    3 1
     3    1    4 1
     4    1    5 1
     5    4   33 1
     6    5    6 1
     7    6    7 2
     8    6    8 1
     9    6    9 1
    10    9   10 1
    11   10   11 2
    12   10   12 1
    13   10   13 1
    14   13   14 1
    15   14   15 1
    16   14   34 1
    17   14   35 1
    18   15   16 1
    19   15   17 1
    20   15   36 1
    21   16   21 1
    22   17   18 1
    23   17   19 1
    24   17   37 1
    25   18   38 1
    26   19   20 1
    27   19   21 1
    28   19   39 1
    29   20   40 1
    30   21   22 1
    31   21   41 1
    32   22   23 ar
    33   22   32 ar
    34   23   24 ar
    35   23   42 1
    36   24   25 ar
    37   25   26 ar
    38   25   32 ar
    39   26   27 2
    40   26   28 ar
    41   28   29 ar
    42   28   43 1
    43   29   30 1
    44   29   31 ar
    45   30   44 1
    46   30   45 1
    47   31   32 ar
    48   31   46 1
@<TRIPOS>SUBSTRUCTURE
     1 GTP         1 GROUP 0 A     ****
@<TRIPOS>MOLECULE
[[[5-(2-amino-6-oxo-1,3-dihydropurin-2-ylium-9-yl)-3,4-dihydroxy-tetrahydrofuran-2-yl]methoxy-oxido-phosphoryl]oxy-oxido-phosphoryl] hydrogen phosphate
   46    48     1     0     0
SMALL
USER_CHARGES

@<TRIPOS>ATOM
      1 PG         10.1417    1.0691   -1.5329 P.3       1 GTP         1.5400
      2 O1G        10.1425   -0.1544   -2.4219 O.co2     1 GTP        -0.8909
      3 O2G        11.0793    2.2253   -1.8009 O.co2     1 GTP        -0.8909
      4 O3G        10.3427    0.5865    0.0139 O.3       1 GTP        -0.7980
      5 O3B         8.6172    1.6404   -1.4168 O.3       1 GTP        -0.7612
      6 PB          7.6631    2.3143   -2.5576 P.3       1 GTP         1.5847
      7 O1B         8.2759    3.6284   -2.9877 O.co2     1 GTP        -0.8859
      8 O2B         7.2745    1.2547   -3.5645 O.co2     1 GTP        -0.8859
      9 O3A         6.3356    2.6020   -1.6521 O.3       1 GTP        -0.7486
     10 PA          6.1593    3.5241   -0.3148 P.3       1 GTP         1.5001
     11 O1A         6.9890    2.9266    0.8010 O.co2     1 GTP        -0.8487
     12 O2A         6.3061    4.9783   -0.7063 O.co2     1 GTP        -0.8487
     13 O5'         4.5670    3.2937   -0.0211 O.3       1 GTP        -0.5474
     14 C5'         4.0922    1.9801    0.2227 C.3       1 GTP         0.2547
     15 C4'         2.5944    2.0310    0.4653 C.3       1 GTP         0.0926
     16 O4'         1.9327    2.5740   -0.6889 O.3       1 GTP        -0.3593
     17 C3'         1.9685    0.6634    0.6767 C.3       1 GTP         0.0907
     18 O3'         2.1425    0.1975    1.9977 O.3       1 GTP        -0.5209
     19 C2'         0.5176    0.9128    0.3099 C.3       1 GTP         0.0305
     20 O2'        -0.2103    1.4454    1.4152 O.3       1 GTP        -0.5978
     21 C1'         0.6219    1.9765   -0.7844 C.3       1 GTP         0.2339
     22 N9          0.4237    1.4496   -2.1357 N.pl3     1 GTP        -0.1765
     23 C8          1.3988    0.9691   -2.9736 C.ar      1 GTP         0.4947
     24 N7          0.9092    0.5634   -4.1293 N.2       1 GTP        -0.5802
     25 C5         -0.4383    0.7914   -4.0325 C.ar      1 GTP         0.2279
     26 C6         -1.4217    0.5138   -5.0461 C.ar      1 GTP         0.6513
     27 O6         -1.1759    0.0306   -6.1417 O.2       1 GTP        -0.5111
     28 N1         -2.7543    0.8794   -4.6134 N.pl3     1 GTP        -0.4713
     29 C2         -3.0626    1.4402   -3.3523 C.ar      1 GTP         0.5256
     30 N2         -4.3747    1.7544   -3.0321 N.pl3     1 GTP        -0.8665
     31 N3         -2.0304    1.6759   -2.4233 N.pl3     1 GTP        -0.5398
     32 C4         -0.7497    1.3366   -2.8118 C.ar      1 GTP        -0.0275
     33 HOG3       10.3641    1.2700    0.7172 H         1 GTP         0.4161
     34 H5'         4.3179    1.3548   -0.6470 H         1 GTP         0.0348
     35 H5''        4.6083    1.5737    1.0983 H         1 GTP         0.0348
     36 H4'         2.3752    2.7029    1.3156 H         1 GTP         0.1215
     37 H3'         2.4336   -0.1217   -0.0015 H         1 GTP         0.0576
     38 HO3'        1.7160   -0.6716    2.0397 H         1 GTP         0.3842
     39 H2'         0.0316    0.0155   -0.0339 H         1 GTP         0.0252
     40 HO2'       -0.1608    0.7921    2.1351 H         1 GTP         0.4224
     41 H1'        -0.1474    2.7798   -0.6651 H         1 GTP         0.0745
     42 H8          2.4413    0.9409   -2.6872 H         1 GTP         0.1522
     43 HN1        -3.5236    0.7214   -5.2629 H         1 GTP         0.3518
     44 HN21       -4.5350    2.1409   -2.1461 H         1 GTP         0.4761
     45 HN22       -5.0542    1.5695   -3.7134 H         1 GTP         0.4761
     46 H46        -2.2462    2.0786   -1.5136 H         1 GTP         0.5030
@<TRIPOS>BOND
     1    1    2 2
     2    1    3 1
     3    1    4 1
     4    1    5 1
     5    4   33 1
     6    5    6 1
     7    6    7 2
     8    6    8 1
     9    6    9 1
    10    9   10 1
    11   10   11 2
    12   10   12 1
    13   10   13 1
    14   13   14 1
    15   14   15 1
    16   14   34 1
    17   14   35 1
    18   15   16 1
    19   15   17 1
    20   15   36 1
    21   16   21 1
    22   17   18 1
    23   17   19 1
    24   17   37 1
    25   18   38 1
    26   19   20 1
    27   19   21 1
    28   19   39 1
    29   20   40 1
    30   21   22 1
    31   21   41 1
    32   22   23 ar
    33   22   32 ar
    34   23   24 ar
    35   23   42 1
    36   24   25 ar
    37   25   26 ar
    38   25   32 ar
    39   26   27 2
    40   26   28 ar
    41   28   29 ar
    42   28   43 1
    43   29   30 1
    44   29   31 ar
    45   30   44 1
    46   30   45 1
    47   31   32 ar
    48   31   46 1
@<TRIPOS>SUBSTRUCTURE
     1 GTP         1 GROUP 0 A     ****
@<TRIPOS>MOLECULE
[[[5-(2-amino-6-oxo-1,3-dihydropurin-2-ylium-9-yl)-3,4-dihydroxy-tetrahydrofuran-2-yl]methoxy-oxido-phosphoryl]oxy-oxido-phosphoryl] hydrogen phosphate
   46    48     1     0     0
SMALL
USER_CHARGES

@<TRIPOS>ATOM
      1 PG         -3.2549    4.1755    5.9661 P.3       1 GTP         1.5400
      2 O1G        -2.1808    3.1958    5.5492 O.co2     1 GTP        -0.8909
      3 O2G        -2.9442    5.3128    6.9136 O.co2     1 GTP        -0.8909
      4 O3G        -4.5206    3.3344    6.5632 O.3       1 GTP        -0.7980
      5 O3B        -3.9695    4.7808    4.6295 O.3       1 GTP        -0.7612
      6 PB         -3.3605    5.7510    3.4661 P.3       1 GTP         1.5847
      7 O1B        -4.3955    5.9075    2.3744 O.co2     1 GTP        -0.8859
      8 O2B        -2.7076    6.9505    4.1159 O.co2     1 GTP        -0.8859
      9 O3A        -2.1486    4.7947    2.9355 O.3       1 GTP        -0.7486
     10 PA         -1.0483    5.0551    1.7560 P.3       1 GTP         1.5001
     11 O1A        -1.7704    5.1510    0.4295 O.co2     1 GTP        -0.8487
     12 O2A        -0.0993    6.1426    2.2105 O.co2     1 GTP        -0.8487
     13 O5'        -0.2062    3.6557    1.8417 O.3       1 GTP        -0.5474
     14 C5'        -0.8811    2.4285    1.6206 C.3       1 GTP         0.2547
     15 C4'        -0.1994    1.3333    2.4288 C.3       1 GTP         0.0926
     16 O4'        -1.1285    0.2356    2.5840 O.3       1 GTP        -0.3593
     17 C3'         1.0324    0.7610    1.7344 C.3       1 GTP         0.0907
     18 O3'         1.9175    0.2377    2.7247 O.3       1 GTP        -0.5209
     19 C2'         0.4468   -0.3802    0.9263 C.3       1 GTP         0.0305
     20 O2'         1.3993   -1.3703    0.5961 O.3       1 GTP        -0.5978
     21 C1'        -0.6159   -0.9100    1.8769 C.3       1 GTP         0.2339
     22 N9         -1.7127   -1.6108    1.2130 N.pl3     1 GTP        -0.1765
     23 C8         -2.5534   -1.0907    0.2607 C.ar      1 GTP         0.4947
     24 N7         -3.4469   -1.9695   -0.1508 N.2       1 GTP        -0.5802
     25 C5         -3.1705   -3.1041    0.5657 C.ar      1 GTP         0.2279
     26 C6         -3.8738   -4.3568    0.4777 C.ar      1 GTP         0.6513
     27 O6         -4.8240   -4.5720   -0.2607 O.2       1 GTP        -0.5111
     28 N1         -3.3198   -5.3462    1.3780 N.pl3     1 GTP        -0.4713
     29 C2         -2.2226   -5.1203    2.2413 C.ar      1 GTP         0.5256
     30 N2         -1.7649   -6.1367    3.0659 N.pl3     1 GTP        -0.8665
     31 N3         -1.5969   -3.8585    2.2574 N.pl3     1 GTP        -0.5398
     32 C4         -2.1068   -2.8965    1.4082 C.ar      1 GTP        -0.0275
     33 HOG3       -5.3046    3.8322    6.8791 H         1 GTP         0.4161
     34 H5'        -1.9256    2.5380    1.9293 H         1 GTP         0.0348
     35 H5''       -0.8474    2.1930    0.5521 H         1 GTP         0.0348
     36 H4'         0.0403    1.7078    3.4343 H         1 GTP         0.1215
     37 H3'         1.5907    1.4859    1.1353 H         1 GTP         0.0576
     38 HO3'        2.6839   -0.1150    2.2479 H         1 GTP         0.3842
     39 H2'        -0.0017    0.0018    0.0005 H         1 GTP         0.0252
     40 HO2'        0.9369   -2.0558    0.0825 H         1 GTP         0.4224
     41 H1'        -0.1998   -1.6319    2.6178 H         1 GTP         0.0745
     42 H8         -2.4657   -0.0713   -0.0897 H         1 GTP         0.1522
     43 HN1        -3.7505   -6.2699    1.3904 H         1 GTP         0.3518
     44 HN21       -1.0023   -5.9289    3.6451 H         1 GTP         0.4761
     45 HN22       -2.2347   -6.9951    3.0150 H         1 GTP         0.4761
     46 H46        -0.8062   -3.6900    2.8760 H         1 GTP         0.5030
@<TRIPOS>BOND
     1    1    2 2
     2    1    3 1
     3    1    4 1
     4    1    5 1
     5    4   33 1
     6    5    6 1
     7    6    7 2
     8    6    8 1
     9    6    9 1
    10    9   10 1
    11   10   11 2
    12   10   12 1
    13   10   13 1
    14   13   14 1
    15   14   15 1
    16   14   34 1
    17   14   35 1
    18   15   16 1
    19   15   17 1
    20   15   36 1
    21   16   21 1
    22   17   18 1
    23   17   19 1
    24   17   37 1
    25   18   38 1
    26   19   20 1
    27   19   21 1
    28   19   39 1
    29   20   40 1
    30   21   22 1
    31   21   41 1
    32   22   23 ar
    33   22   32 ar
    34   23   24 ar
    35   23   42 1
    36   24   25 ar
    37   25   26 ar
    38   25   32 ar
    39   26   27 2
    40   26   28 ar
    41   28   29 ar
    42   28   43 1
    43   29   30 1
    44   29   31 ar
    45   30   44 1
    46   30   45 1
    47   31   32 ar
    48   31   46 1
@<TRIPOS>SUBSTRUCTURE
     1 GTP         1 GROUP 0 A     ****
@<TRIPOS>MOLECULE
[[[5-(2-amino-6-oxo-1,3-dihydropurin-2-ylium-9-yl)-3,4-dihydroxy-tetrahydrofuran-2-yl]methoxy-oxido-phosphoryl]oxy-oxido-phosphoryl] hydrogen phosphate
   46    48     1     0     0
SMALL
USER_CHARGES

@<TRIPOS>ATOM
      1 PG         -1.6810    8.7759   -1.3204 P.3       1 GTP         1.5400
      2 O1G        -1.5455    8.6128   -2.8178 O.co2     1 GTP        -0.8909
      3 O2G        -2.8792    9.4772   -0.7202 O.co2     1 GTP        -0.8909
      4 O3G        -0.3256    9.4866   -0.7513 O.3       1 GTP        -0.7980
      5 O3B        -1.5113    7.3166   -0.6095 O.3       1 GTP        -0.7612
      6 PB         -2.4753    6.0007   -0.6794 P.3       1 GTP         1.5847
      7 O1B        -3.7942    6.3301   -0.0166 O.co2     1 GTP        -0.8859
      8 O2B        -2.4137    5.4176   -2.0736 O.co2     1 GTP        -0.8859
      9 O3A        -1.6181    4.9968    0.2809 O.3       1 GTP        -0.7486
     10 PA         -0.0889    4.4444    0.1193 P.3       1 GTP         1.5001
     11 O1A        -0.0111    3.5842   -1.1233 O.co2     1 GTP        -0.8487
     12 O2A         0.8677    5.5971    0.3340 O.co2     1 GTP        -0.8487
     13 O5'         0.0178    3.5131    1.4595 O.3       1 GTP        -0.5474
     14 C5'        -0.8811    2.4285    1.6206 C.3       1 GTP         0.2547
     15 C4'        -0.1994    1.3333    2.4288 C.3       1 GTP         0.0926
     16 O4'        -1.1285    0.2356    2.5840 O.3       1 GTP        -0.3593
     17 C3'         1.0324    0.7610    1.7344 C.3       1 GTP         0.0907
     18 O3'         1.9175    0.2377    2.7247 O.3       1 GTP        -0.5209
     19 C2'         0.4468   -0.3802    0.9263 C.3       1 GTP         0.0305
     20 O2'         1.3993   -1.3703    0.5961 O.3       1 GTP        -0.5978
     21 C1'        -0.6159   -0.9100    1.8769 C.3       1 GTP         0.2339
     22 N9         -1.7127   -1.6108    1.2130 N.pl3     1 GTP        -0.1765
     23 C8         -3.0389   -1.2578    1.2391 C.ar      1 GTP         0.4947
     24 N7         -3.7909   -2.0880    0.5425 N.2       1 GTP        -0.5802
     25 C5         -2.9127   -3.0150    0.0458 C.ar      1 GTP         0.2279
     26 C6         -3.2467   -4.1411   -0.7860 C.ar      1 GTP         0.6513
     27 O6         -4.3761   -4.4189   -1.1621 O.2       1 GTP        -0.5111
     28 N1         -2.0748   -4.9191   -1.1296 N.pl3     1 GTP        -0.4713
     29 C2         -0.7595   -4.6181   -0.7058 C.ar      1 GTP         0.5256
     30 N2          0.2985   -5.4268   -1.0920 N.pl3     1 GTP        -0.8665
     31 N3         -0.5304   -3.4919    0.1084 N.pl3     1 GTP        -0.5398
     32 C4         -1.6318   -2.7332    0.4512 C.ar      1 GTP        -0.0275
     33 HOG3       -0.2595    9.6622    0.2116 H         1 GTP         0.4161
     34 H5'        -1.7771    2.7849    2.1387 H         1 GTP         0.0348
     35 H5''       -1.1654    2.0541    0.6320 H         1 GTP         0.0348
     36 H4'         0.0403    1.7078    3.4343 H         1 GTP         0.1215
     37 H3'         1.5907    1.4859    1.1353 H         1 GTP         0.0576
     38 HO3'        2.6839   -0.1150    2.2479 H         1 GTP         0.3842
     39 H2'        -0.0017    0.0018    0.0005 H         1 GTP         0.0252
     40 HO2'        2.0953   -0.9375    0.0709 H         1 GTP         0.4224
     41 H1'        -0.1998   -1.6319    2.6178 H         1 GTP         0.0745
     42 H8         -3.3933   -0.3909    1.7800 H         1 GTP         0.1522
     43 HN1        -2.2071   -5.7408   -1.7178 H         1 GTP         0.3518
     44 HN21        1.1896   -5.1751   -0.7715 H         1 GTP         0.4761
     45 HN22        0.0846   -6.1966   -1.6593 H         1 GTP         0.4761
     46 H46         0.4142   -3.2695    0.4160 H         1 GTP         0.5030
@<TRIPOS>BOND
     1    1    2 2
     2    1    3 1
     3    1    4 1
     4    1    5 1
     5    4   33 1
     6    5    6 1
     7    6    7 2
     8    6    8 1
     9    6    9 1
    10    9   10 1
    11   10   11 2
    12   10   12 1
    13   10   13 1
    14   13   14 1
    15   14   15 1
    16   14   34 1
    17   14   35 1
    18   15   16 1
    19   15   17 1
    20   15   36 1
    21   16   21 1
    22   17   18 1
    23   17   19 1
    24   17   37 1
    25   18   38 1
    26   19   20 1
    27   19   21 1
    28   19   39 1
    29   20   40 1
    30   21   22 1
    31   21   41 1
    32   22   23 ar
    33   22   32 ar
    34   23   24 ar
    35   23   42 1
    36   24   25 ar
    37   25   26 ar
    38   25   32 ar
    39   26   27 2
    40   26   28 ar
    41   28   29 ar
    42   28   43 1
    43   29   30 1
    44   29   31 ar
    45   30   44 1
    46   30   45 1
    47   31   32 ar
    48   31   46 1
@<TRIPOS>SUBSTRUCTURE
     1 GTP         1 GROUP 0 A     ****
@<TRIPOS>MOLECULE
[[[5-(2-amino-6-oxo-1,3-dihydropurin-2-ylium-9-yl)-3,4-dihydroxy-tetrahydrofuran-2-yl]methoxy-oxido-phosphoryl]oxy-oxido-phosphoryl] hydrogen phosphate
   46    48     1     0     0
SMALL
USER_CHARGES

@<TRIPOS>ATOM
      1 PG         -2.1732    4.9797    5.8894 P.3       1 GTP         1.5400
      2 O1G        -3.6677    5.2114    5.8750 O.co2     1 GTP        -0.8909
      3 O2G        -1.5814    3.6901    5.3653 O.co2     1 GTP        -0.8909
      4 O3G        -1.6255    5.2217    7.4084 O.3       1 GTP        -0.7980
      5 O3B        -1.4336    6.2370    5.1574 O.3       1 GTP        -0.7612
      6 PB         -1.4719    6.7071    3.5943 P.3       1 GTP         1.5847
      7 O1B        -2.9147    6.8833    3.1762 O.co2     1 GTP        -0.8859
      8 O2B        -0.4472    7.7992    3.3825 O.co2     1 GTP        -0.8859
      9 O3A        -0.8637    5.3603    2.9008 O.3       1 GTP        -0.7486
     10 PA         -0.5790    5.0299    1.3261 P.3       1 GTP         1.5001
     11 O1A        -1.8994    5.0096    0.5869 O.co2     1 GTP        -0.8487
     12 O2A         0.5706    5.8913    0.8506 O.co2     1 GTP        -0.8487
     13 O5'         0.0178    3.5131    1.4595 O.3       1 GTP        -0.5474
     14 C5'        -0.8811    2.4285    1.6206 C.3       1 GTP         0.2547
     15 C4'        -0.1994    1.3333    2.4288 C.3       1 GTP         0.0926
     16 O4'        -1.1285    0.2356    2.5840 O.3       1 GTP        -0.3593
     17 C3'         1.0324    0.7610    1.7344 C.3       1 GTP         0.0907
     18 O3'         1.9175    0.2377    2.7247 O.3       1 GTP        -0.5209
     19 C2'         0.4468   -0.3802    0.9263 C.3       1 GTP         0.0305
     20 O2'         1.3993   -1.3703    0.5961 O.3       1 GTP        -0.5978
     21 C1'        -0.6159   -0.9100    1.8769 C.3       1 GTP         0.2339
     22 N9         -1.7127   -1.6108    1.2130 N.pl3     1 GTP        -0.1765
     23 C8         -1.7789   -2.9564    0.9503 C.ar      1 GTP         0.4947
     24 N7         -2.8980   -3.2916    0.3377 N.2       1 GTP        -0.5802
     25 C5         -3.5824   -2.1127    0.2000 C.ar      1 GTP         0.2279
     26 C6         -4.8740   -1.9471   -0.4133 C.ar      1 GTP         0.6513
     27 O6         -5.5366   -2.8529   -0.8978 O.2       1 GTP        -0.5111
     28 N1         -5.3036   -0.5645   -0.3916 N.pl3     1 GTP        -0.4713
     29 C2         -4.5545    0.4997    0.1619 C.ar      1 GTP         0.5256
     30 N2         -5.0561    1.7921    0.1348 N.pl3     1 GTP        -0.8665
     31 N3         -3.2977    0.2393    0.7420 N.pl3     1 GTP        -0.5398
     32 C4         -2.8643   -1.0716    0.7336 C.ar      1 GTP        -0.0275
     33 HOG3       -0.6667    5.1087    7.5826 H         1 GTP         0.4161
     34 H5'        -1.7771    2.7849    2.1387 H         1 GTP         0.0348
     35 H5''       -1.1654    2.0541    0.6320 H         1 GTP         0.0348
     36 H4'         0.0403    1.7078    3.4343 H         1 GTP         0.1215
     37 H3'         1.5907    1.4859    1.1353 H         1 GTP         0.0576
     38 HO3'        2.6839   -0.1150    2.2479 H         1 GTP         0.3842
     39 H2'        -0.0017    0.0018    0.0005 H         1 GTP         0.0252
     40 HO2'        2.0953   -0.9375    0.0709 H         1 GTP         0.4224
     41 H1'        -0.1998   -1.6319    2.6178 H         1 GTP         0.0745
     42 H8         -0.9852   -3.6367    1.2276 H         1 GTP         0.1522
     43 HN1        -6.2089   -0.3428   -0.8039 H         1 GTP         0.3518
     44 HN21       -4.4981    2.4933    0.5311 H         1 GTP         0.4761
     45 HN22       -5.9352    1.9183   -0.2793 H         1 GTP         0.4761
     46 H46        -2.7541    1.0010    1.1428 H         1 GTP         0.5030
@<TRIPOS>BOND
     1    1    2 2
     2    1    3 1
     3    1    4 1
     4    1    5 1
     5    4   33 1
     6    5    6 1
     7    6    7 2
     8    6    8 1
     9    6    9 1
    10    9   10 1
    11   10   11 2
    12   10   12 1
    13   10   13 1
    14   13   14 1
    15   14   15 1
    16   14   34 1
    17   14   35 1
    18   15   16 1
    19   15   17 1
    20   15   36 1
    21   16   21 1
    22   17   18 1
    23   17   19 1
    24   17   37 1
    25   18   38 1
    26   19   20 1
    27   19   21 1
    28   19   39 1
    29   20   40 1
    30   21   22 1
    31   21   41 1
    32   22   23 ar
    33   22   32 ar
    34   23   24 ar
    35   23   42 1
    36   24   25 ar
    37   25   26 ar
    38   25   32 ar
    39   26   27 2
    40   26   28 ar
    41   28   29 ar
    42   28   43 1
    43   29   30 1
    44   29   31 ar
    45   30   44 1
    46   30   45 1
    47   31   32 ar
    48   31   46 1
@<TRIPOS>SUBSTRUCTURE
     1 GTP         1 GROUP 0 A     ****
@<TRIPOS>MOLECULE
[[[5-(2-amino-6-oxo-1,3-dihydropurin-2-ylium-9-yl)-3,4-dihydroxy-tetrahydrofuran-2-yl]methoxy-oxido-phosphoryl]oxy-oxido-phosphoryl] hydrogen phosphate
   46    48     1     0     0
SMALL
USER_CHARGES

@<TRIPOS>ATOM
      1 PG         -4.3734    7.0910   -0.9430 P.3       1 GTP         1.5400
      2 O1G        -4.9001    7.0124   -2.3585 O.co2     1 GTP        -0.8909
      3 O2G        -5.2323    7.6352    0.1768 O.co2     1 GTP        -0.8909
      4 O3G        -2.9620    7.9117   -0.9595 O.3       1 GTP        -0.7980
      5 O3B        -3.8016    5.6259   -0.5069 O.3       1 GTP        -0.7612
      6 PB         -4.5985    4.2215   -0.2657 P.3       1 GTP         1.5847
      7 O1B        -5.5106    4.3807    0.9302 O.co2     1 GTP        -0.8859
      8 O2B        -5.1151    3.7132   -1.5933 O.co2     1 GTP        -0.8859
      9 O3A        -3.3350    3.2688    0.1351 O.3       1 GTP        -0.7486
     10 PA         -1.9976    2.8867   -0.7222 P.3       1 GTP         1.5001
     11 O1A        -2.4126    2.0977   -1.9452 O.co2     1 GTP        -0.8487
     12 O2A        -1.1315    4.1214   -0.8447 O.co2     1 GTP        -0.8487
     13 O5'        -1.2434    1.9104    0.3515 O.3       1 GTP        -0.5474
     14 C5'        -0.8811    2.4285    1.6206 C.3       1 GTP         0.2547
     15 C4'        -0.1994    1.3333    2.4288 C.3       1 GTP         0.0926
     16 O4'        -1.1285    0.2356    2.5840 O.3       1 GTP        -0.3593
     17 C3'         1.0324    0.7610    1.7344 C.3       1 GTP         0.0907
     18 O3'         1.9175    0.2377    2.7247 O.3       1 GTP        -0.5209
     19 C2'         0.4468   -0.3802    0.9263 C.3       1 GTP         0.0305
     20 O2'         1.3993   -1.3703    0.5961 O.3       1 GTP        -0.5978
     21 C1'        -0.6159   -0.9100    1.8769 C.3       1 GTP         0.2339
     22 N9         -1.7127   -1.6108    1.2130 N.pl3     1 GTP        -0.1765
     23 C8         -2.8692   -1.0463    0.7355 C.ar      1 GTP         0.4947
     24 N7         -3.6707   -1.9381    0.1856 N.2       1 GTP        -0.5802
     25 C5         -3.0027   -3.1275    0.3134 C.ar      1 GTP         0.2279
     26 C6         -3.4659   -4.4142   -0.1355 C.ar      1 GTP         0.6513
     27 O6         -4.5328   -4.6133   -0.6980 O.2       1 GTP        -0.5111
     28 N1         -2.5102   -5.4606    0.1612 N.pl3     1 GTP        -0.4713
     29 C2         -1.2711   -5.2547    0.8113 C.ar      1 GTP         0.5256
     30 N2         -0.4228   -6.3256    1.0482 N.pl3     1 GTP        -0.8665
     31 N3         -0.9033   -3.9563    1.2146 N.pl3     1 GTP        -0.5398
     32 C4         -1.7979   -2.9400    0.9438 C.ar      1 GTP        -0.0275
     33 HOG3       -2.4914    8.0484   -0.1097 H         1 GTP         0.4161
     34 H5'        -0.2033    3.2760    1.4769 H         1 GTP         0.0348
     35 H5''       -1.7841    2.7762    2.1323 H         1 GTP         0.0348
     36 H4'         0.0403    1.7078    3.4343 H         1 GTP         0.1215
     37 H3'         1.5907    1.4859    1.1353 H         1 GTP         0.0576
     38 HO3'        2.6839   -0.1150    2.2479 H         1 GTP         0.3842
     39 H2'        -0.0017    0.0018    0.0005 H         1 GTP         0.0252
     40 HO2'        2.0953   -0.9375    0.0709 H         1 GTP         0.4224
     41 H1'        -0.1998   -1.6319    2.6178 H         1 GTP         0.0745
     42 H8         -3.0691    0.0134    0.8177 H         1 GTP         0.1522
     43 HN1        -2.7468   -6.4119   -0.1177 H         1 GTP         0.3518
     44 HN21        0.4233   -6.1297    1.5018 H         1 GTP         0.4761
     45 HN22       -0.7261   -7.2071    0.7466 H         1 GTP         0.4761
     46 H46        -0.0124   -3.8015    1.6821 H         1 GTP         0.5030
@<TRIPOS>BOND
     1    1    2 2
     2    1    3 1
     3    1    4 1
     4    1    5 1
     5    4   33 1
     6    5    6 1
     7    6    7 2
     8    6    8 1
     9    6    9 1
    10    9   10 1
    11   10   11 2
    12   10   12 1
    13   10   13 1
    14   13   14 1
    15   14   15 1
    16   14   34 1
    17   14   35 1
    18   15   16 1
    19   15   17 1
    20   15   36 1
    21   16   21 1
    22   17   18 1
    23   17   19 1
    24   17   37 1
    25   18   38 1
    26   19   20 1
    27   19   21 1
    28   19   39 1
    29   20   40 1
    30   21   22 1
    31   21   41 1
    32   22   23 ar
    33   22   32 ar
    34   23   24 ar
    35   23   42 1
    36   24   25 ar
    37   25   26 ar
    38   25   32 ar
    39   26   27 2
    40   26   28 ar
    41   28   29 ar
    42   28   43 1
    43   29   30 1
    44   29   31 ar
    45   30   44 1
    46   30   45 1
    47   31   32 ar
    48   31   46 1
@<TRIPOS>SUBSTRUCTURE
     1 GTP         1 GROUP 0 A     ****
@<TRIPOS>MOLECULE
[[[5-(2-amino-6-oxo-1,3-dihydropurin-2-ylium-9-yl)-3,4-dihydroxy-tetrahydrofuran-2-yl]methoxy-oxido-phosphoryl]oxy-oxido-phosphoryl] hydrogen phosphate
   46    48     1     0     0
SMALL
USER_CHARGES

@<TRIPOS>ATOM
      1 PG         -4.8090    4.6957    0.0886 P.3       1 GTP         1.5400
      2 O1G        -3.9358    3.4666   -0.0313 O.co2     1 GTP        -0.8909
      3 O2G        -5.8297    4.8188    1.1979 O.co2     1 GTP        -0.8909
      4 O3G        -5.5633    4.9374   -1.3392 O.3       1 GTP        -0.7980
      5 O3B        -3.8596    6.0233    0.0936 O.3       1 GTP        -0.7612
      6 PB         -2.7767    6.5305    1.2053 P.3       1 GTP         1.5847
      7 O1B        -2.0624    7.7495    0.6654 O.co2     1 GTP        -0.8859
      8 O2B        -3.4341    6.5366    2.5674 O.co2     1 GTP        -0.8859
      9 O3A        -1.7628    5.2512    1.1860 O.3       1 GTP        -0.7486
     10 PA         -0.3962    4.9846    2.0409 P.3       1 GTP         1.5001
     11 O1A         0.6371    6.0152    1.6404 O.co2     1 GTP        -0.8487
     12 O2A        -0.7667    4.7715    3.4925 O.co2     1 GTP        -0.8487
     13 O5'         0.0178    3.5131    1.4595 O.3       1 GTP        -0.5474
     14 C5'        -0.8811    2.4285    1.6206 C.3       1 GTP         0.2547
     15 C4'        -0.1994    1.3333    2.4288 C.3       1 GTP         0.0926
     16 O4'        -1.1285    0.2356    2.5840 O.3       1 GTP        -0.3593
     17 C3'         1.0324    0.7610    1.7344 C.3       1 GTP         0.0907
     18 O3'         1.9175    0.2377    2.7247 O.3       1 GTP        -0.5209
     19 C2'         0.4468   -0.3802    0.9263 C.3       1 GTP         0.0305
     20 O2'         1.3993   -1.3703    0.5961 O.3       1 GTP        -0.5978
     21 C1'        -0.6159   -0.9100    1.8769 C.3       1 GTP         0.2339
     22 N9         -1.7127   -1.6108    1.2130 N.pl3     1 GTP        -0.1765
     23 C8         -1.6092   -2.7449    0.4467 C.ar      1 GTP         0.4947
     24 N7         -2.7778   -3.1416   -0.0191 N.2       1 GTP        -0.5802
     25 C5         -3.6725   -2.2253    0.4675 C.ar      1 GTP         0.2279
     26 C6         -5.0932   -2.2202    0.2371 C.ar      1 GTP         0.6513
     27 O6         -5.6933   -3.0474   -0.4337 O.2       1 GTP        -0.5111
     28 N1         -5.7390   -1.1061    0.8992 N.pl3     1 GTP        -0.4713
     29 C2         -5.0661   -0.1368    1.6789 C.ar      1 GTP         0.5256
     30 N2         -5.7774    0.8934    2.2749 N.pl3     1 GTP        -0.8665
     31 N3         -3.6705   -0.2251    1.8481 N.pl3     1 GTP        -0.5398
     32 C4         -3.0303   -1.2785    1.2262 C.ar      1 GTP        -0.0275
     33 HOG3       -6.1707    5.7031   -1.4226 H         1 GTP         0.4161
     34 H5'        -1.7771    2.7849    2.1387 H         1 GTP         0.0348
     35 H5''       -1.1654    2.0541    0.6320 H         1 GTP         0.0348
     36 H4'         0.0403    1.7078    3.4343 H         1 GTP         0.1215
     37 H3'         1.5907    1.4859    1.1353 H         1 GTP         0.0576
     38 HO3'        2.6839   -0.1150    2.2479 H         1 GTP         0.3842
     39 H2'        -0.0017    0.0018    0.0005 H         1 GTP         0.0252
     40 HO2'        2.0953   -0.9375    0.0709 H         1 GTP         0.4224
     41 H1'        -0.1998   -1.6319    2.6178 H         1 GTP         0.0745
     42 H8         -0.6610   -3.2324    0.2653 H         1 GTP         0.1522
     43 HN1        -6.7487   -1.0139    0.7961 H         1 GTP         0.3518
     44 HN21       -5.2644    1.5388    2.8044 H         1 GTP         0.4761
     45 HN22       -6.7459    0.9078    2.1265 H         1 GTP         0.4761
     46 H46        -3.1807    0.4690    2.4089 H         1 GTP         0.5030
@<TRIPOS>BOND
     1    1    2 2
     2    1    3 1
     3    1    4 1
     4    1    5 1
     5    4   33 1
     6    5    6 1
     7    6    7 2
     8    6    8 1
     9    6    9 1
    10    9   10 1
    11   10   11 2
    12   10   12 1
    13   10   13 1
    14   13   14 1
    15   14   15 1
    16   14   34 1
    17   14   35 1
    18   15   16 1
    19   15   17 1
    20   15   36 1
    21   16   21 1
    22   17   18 1
    23   17   19 1
    24   17   37 1
    25   18   38 1
    26   19   20 1
    27   19   21 1
    28   19   39 1
    29   20   40 1
    30   21   22 1
    31   21   41 1
    32   22   23 ar
    33   22   32 ar
    34   23   24 ar
    35   23   42 1
    36   24   25 ar
    37   25   26 ar
    38   25   32 ar
    39   26   27 2
    40   26   28 ar
    41   28   29 ar
    42   28   43 1
    43   29   30 1
    44   29   31 ar
    45   30   44 1
    46   30   45 1
    47   31   32 ar
    48   31   46 1
@<TRIPOS>SUBSTRUCTURE
     1 GTP         1 GROUP 0 A     ****
@<TRIPOS>MOLECULE
[[[5-(2-amino-6-oxo-1,3-dihydropurin-2-ylium-9-yl)-3,4-dihydroxy-tetrahydrofuran-2-yl]methoxy-oxido-phosphoryl]oxy-oxido-phosphoryl] hydrogen phosphate
   46    48     1     0     0
SMALL
USER_CHARGES

@<TRIPOS>ATOM
      1 PG         -1.8330    3.3303   -4.7096 P.3       1 GTP         1.5400
      2 O1G        -1.0479    4.3120   -5.5505 O.co2     1 GTP        -0.8909
      3 O2G        -1.8679    1.8596   -5.0613 O.co2     1 GTP        -0.8909
      4 O3G        -3.3689    3.8692   -4.5815 O.3       1 GTP        -0.7980
      5 O3B        -1.3844    3.4903   -3.1485 O.3       1 GTP        -0.7612
      6 PB         -1.3288    4.8235   -2.2077 P.3       1 GTP         1.5847
      7 O1B        -0.2754    5.7602   -2.7559 O.co2     1 GTP        -0.8859
      8 O2B        -2.7401    5.2929   -1.9334 O.co2     1 GTP        -0.8859
      9 O3A        -0.7889    4.1455   -0.8244 O.3       1 GTP        -0.7486
     10 PA         -0.4665    4.8322    0.6228 P.3       1 GTP         1.5001
     11 O1A         0.6860    5.7988    0.4566 O.co2     1 GTP        -0.8487
     12 O2A        -1.7709    5.2708    1.2521 O.co2     1 GTP        -0.8487
     13 O5'         0.0178    3.5131    1.4595 O.3       1 GTP        -0.5474
     14 C5'        -0.8811    2.4285    1.6206 C.3       1 GTP         0.2547
     15 C4'        -0.1994    1.3333    2.4288 C.3       1 GTP         0.0926
     16 O4'        -1.1285    0.2356    2.5840 O.3       1 GTP        -0.3593
     17 C3'         1.0324    0.7610    1.7344 C.3       1 GTP         0.0907
     18 O3'         1.9175    0.2377    2.7247 O.3       1 GTP        -0.5209
     19 C2'         0.4468   -0.3802    0.9263 C.3       1 GTP         0.0305
     20 O2'         1.3993   -1.3703    0.5961 O.3       1 GTP        -0.5978
     21 C1'        -0.6159   -0.9100    1.8769 C.3       1 GTP         0.2339
     22 N9         -1.7127   -1.6108    1.2130 N.pl3     1 GTP        -0.1765
     23 C8         -1.7789   -2.9564    0.9503 C.ar      1 GTP         0.4947
     24 N7         -2.8980   -3.2916    0.3377 N.2       1 GTP        -0.5802
     25 C5         -3.5824   -2.1127    0.2000 C.ar      1 GTP         0.2279
     26 C6         -4.8740   -1.9471   -0.4133 C.ar      1 GTP         0.6513
     27 O6         -5.5366   -2.8529   -0.8978 O.2       1 GTP        -0.5111
     28 N1         -5.3036   -0.5645   -0.3916 N.pl3     1 GTP        -0.4713
     29 C2         -4.5545    0.4997    0.1619 C.ar      1 GTP         0.5256
     30 N2         -5.0561    1.7921    0.1348 N.pl3     1 GTP        -0.8665
     31 N3         -3.2977    0.2393    0.7420 N.pl3     1 GTP        -0.5398
     32 C4         -2.8643   -1.0716    0.7336 C.ar      1 GTP        -0.0275
     33 HOG3       -4.0085    3.3373   -4.0616 H         1 GTP         0.4161
     34 H5'        -1.7771    2.7849    2.1387 H         1 GTP         0.0348
     35 H5''       -1.1654    2.0541    0.6320 H         1 GTP         0.0348
     36 H4'         0.0403    1.7078    3.4343 H         1 GTP         0.1215
     37 H3'         1.5907    1.4859    1.1353 H         1 GTP         0.0576
     38 HO3'        2.6839   -0.1150    2.2479 H         1 GTP         0.3842
     39 H2'        -0.0017    0.0018    0.0005 H         1 GTP         0.0252
     40 HO2'        2.0953   -0.9375    0.0709 H         1 GTP         0.4224
     41 H1'        -0.1998   -1.6319    2.6178 H         1 GTP         0.0745
     42 H8         -0.9852   -3.6367    1.2276 H         1 GTP         0.1522
     43 HN1        -6.2089   -0.3428   -0.8039 H         1 GTP         0.3518
     44 HN21       -4.4981    2.4933    0.5311 H         1 GTP         0.4761
     45 HN22       -5.9352    1.9183   -0.2793 H         1 GTP         0.4761
     46 H46        -2.7541    1.0010    1.1428 H         1 GTP         0.5030
@<TRIPOS>BOND
     1    1    2 2
     2    1    3 1
     3    1    4 1
     4    1    5 1
     5    4   33 1
     6    5    6 1
     7    6    7 2
     8    6    8 1
     9    6    9 1
    10    9   10 1
    11   10   11 2
    12   10   12 1
    13   10   13 1
    14   13   14 1
    15   14   15 1
    16   14   34 1
    17   14   35 1
    18   15   16 1
    19   15   17 1
    20   15   36 1
    21   16   21 1
    22   17   18 1
    23   17   19 1
    24   17   37 1
    25   18   38 1
    26   19   20 1
    27   19   21 1
    28   19   39 1
    29   20   40 1
    30   21   22 1
    31   21   41 1
    32   22   23 ar
    33   22   32 ar
    34   23   24 ar
    35   23   42 1
    36   24   25 ar
    37   25   26 ar
    38   25   32 ar
    39   26   27 2
    40   26   28 ar
    41   28   29 ar
    42   28   43 1
    43   29   30 1
    44   29   31 ar
    45   30   44 1
    46   30   45 1
    47   31   32 ar
    48   31   46 1
@<TRIPOS>SUBSTRUCTURE
     1 GTP         1 GROUP 0 A     ****
@<TRIPOS>MOLECULE
[[[5-(2-amino-6-oxo-1,3-dihydropurin-2-ylium-9-yl)-3,4-dihydroxy-tetrahydrofuran-2-yl]methoxy-oxido-phosphoryl]oxy-oxido-phosphoryl] hydrogen phosphate
   46    48     1     0     0
SMALL
USER_CHARGES

@<TRIPOS>ATOM
      1 PG         -5.0270    7.1455    3.1542 P.3       1 GTP         1.5400
      2 O1G        -5.6725    6.4052    4.3042 O.co2     1 GTP        -0.8909
      3 O2G        -4.6365    8.6006    3.2879 O.co2     1 GTP        -0.8909
      4 O3G        -5.9750    6.9822    1.8349 O.3       1 GTP        -0.7980
      5 O3B        -3.7335    6.2963    2.6350 O.3       1 GTP        -0.7612
      6 PB         -2.7700    6.5451    1.3406 P.3       1 GTP         1.5847
      7 O1B        -3.5862    6.3453    0.0831 O.co2     1 GTP        -0.8859
      8 O2B        -1.9562    7.8000    1.5654 O.co2     1 GTP        -0.8859
      9 O3A        -1.7457    5.2883    1.5313 O.3       1 GTP        -0.7486
     10 PA         -0.4665    4.8322    0.6228 P.3       1 GTP         1.5001
     11 O1A        -0.9631    4.4288   -0.7487 O.co2     1 GTP        -0.8487
     12 O2A         0.6338    5.8580    0.7859 O.co2     1 GTP        -0.8487
     13 O5'         0.0178    3.5131    1.4595 O.3       1 GTP        -0.5474
     14 C5'        -0.8811    2.4285    1.6206 C.3       1 GTP         0.2547
     15 C4'        -0.1994    1.3333    2.4288 C.3       1 GTP         0.0926
     16 O4'        -1.1285    0.2356    2.5840 O.3       1 GTP        -0.3593
     17 C3'         1.0324    0.7610    1.7344 C.3       1 GTP         0.0907
     18 O3'         1.9175    0.2377    2.7247 O.3       1 GTP        -0.5209
     19 C2'         0.4468   -0.3802    0.9263 C.3       1 GTP         0.0305
     20 O2'         1.3993   -1.3703    0.5961 O.3       1 GTP        -0.5978
     21 C1'        -0.6159   -0.9100    1.8769 C.3       1 GTP         0.2339
     22 N9         -1.7127   -1.6108    1.2130 N.pl3     1 GTP        -0.1765
     23 C8         -1.7789   -2.9564    0.9503 C.ar      1 GTP         0.4947
     24 N7         -2.8980   -3.2916    0.3377 N.2       1 GTP        -0.5802
     25 C5         -3.5824   -2.1127    0.2000 C.ar      1 GTP         0.2279
     26 C6         -4.8740   -1.9471   -0.4133 C.ar      1 GTP         0.6513
     27 O6         -5.5366   -2.8529   -0.8978 O.2       1 GTP        -0.5111
     28 N1         -5.3036   -0.5645   -0.3916 N.pl3     1 GTP        -0.4713
     29 C2         -4.5545    0.4997    0.1619 C.ar      1 GTP         0.5256
     30 N2         -5.0561    1.7921    0.1348 N.pl3     1 GTP        -0.8665
     31 N3         -3.2977    0.2393    0.7420 N.pl3     1 GTP        -0.5398
     32 C4         -2.8643   -1.0716    0.7336 C.ar      1 GTP        -0.0275
     33 HOG3       -5.6899    7.4098    0.9993 H         1 GTP         0.4161
     34 H5'        -1.7771    2.7849    2.1387 H         1 GTP         0.0348
     35 H5''       -1.1654    2.0541    0.6320 H         1 GTP         0.0348
     36 H4'         0.0403    1.7078    3.4343 H         1 GTP         0.1215
     37 H3'         1.5907    1.4859    1.1353 H         1 GTP         0.0576
     38 HO3'        2.6839   -0.1150    2.2479 H         1 GTP         0.3842
     39 H2'        -0.0017    0.0018    0.0005 H         1 GTP         0.0252
     40 HO2'        0.9369   -2.0558    0.0825 H         1 GTP         0.4224
     41 H1'        -0.1998   -1.6319    2.6178 H         1 GTP         0.0745
     42 H8         -0.9852   -3.6367    1.2276 H         1 GTP         0.1522
     43 HN1        -6.2089   -0.3428   -0.8039 H         1 GTP         0.3518
     44 HN21       -4.4981    2.4933    0.5311 H         1 GTP         0.4761
     45 HN22       -5.9352    1.9183   -0.2793 H         1 GTP         0.4761
     46 H46        -2.7541    1.0010    1.1428 H         1 GTP         0.5030
@<TRIPOS>BOND
     1    1    2 2
     2    1    3 1
     3    1    4 1
     4    1    5 1
     5    4   33 1
     6    5    6 1
     7    6    7 2
     8    6    8 1
     9    6    9 1
    10    9   10 1
    11   10   11 2
    12   10   12 1
    13   10   13 1
    14   13   14 1
    15   14   15 1
    16   14   34 1
    17   14   35 1
    18   15   16 1
    19   15   17 1
    20   15   36 1
    21   16   21 1
    22   17   18 1
    23   17   19 1
    24   17   37 1
    25   18   38 1
    26   19   20 1
    27   19   21 1
    28   19   39 1
    29   20   40 1
    30   21   22 1
    31   21   41 1
    32   22   23 ar
    33   22   32 ar
    34   23   24 ar
    35   23   42 1
    36   24   25 ar
    37   25   26 ar
    38   25   32 ar
    39   26   27 2
    40   26   28 ar
    41   28   29 ar
    42   28   43 1
    43   29   30 1
    44   29   31 ar
    45   30   44 1
    46   30   45 1
    47   31   32 ar
    48   31   46 1
@<TRIPOS>SUBSTRUCTURE
     1 GTP         1 GROUP 0 A     ****
@<TRIPOS>MOLECULE
[[[5-(2-amino-6-oxo-1,3-dihydropurin-2-ylium-9-yl)-3,4-dihydroxy-tetrahydrofuran-2-yl]methoxy-oxido-phosphoryl]oxy-oxido-phosphoryl] hydrogen phosphate
   46    48     1     0     0
SMALL
USER_CHARGES

@<TRIPOS>ATOM
      1 PG         -7.1486    4.6640   -0.6817 P.3       1 GTP         1.5400
      2 O1G        -7.0044    6.1157   -1.0805 O.co2     1 GTP        -0.8909
      3 O2G        -7.7410    3.6509   -1.6358 O.co2     1 GTP        -0.8909
      4 O3G        -7.9713    4.5924    0.7269 O.3       1 GTP        -0.7980
      5 O3B        -5.7062    4.1125   -0.1531 O.3       1 GTP        -0.7612
      6 PB         -4.3123    3.8795   -0.9705 P.3       1 GTP         1.5847
      7 O1B        -4.5235    2.7779   -1.9851 O.co2     1 GTP        -0.8859
      8 O2B        -3.7429    5.2232   -1.3678 O.co2     1 GTP        -0.8859
      9 O3A        -3.3820    3.3250    0.2509 O.3       1 GTP        -0.7486
     10 PA         -2.9646    4.0418    1.6587 P.3       1 GTP         1.5001
     11 O1A        -2.1198    5.2596    1.3528 O.co2     1 GTP        -0.8487
     12 O2A        -4.1947    4.1429    2.5341 O.co2     1 GTP        -0.8487
     13 O5'        -2.0401    2.8620    2.3128 O.3       1 GTP        -0.5474
     14 C5'        -0.8811    2.4285    1.6206 C.3       1 GTP         0.2547
     15 C4'        -0.1994    1.3333    2.4288 C.3       1 GTP         0.0926
     16 O4'        -1.1285    0.2356    2.5840 O.3       1 GTP        -0.3593
     17 C3'         1.0324    0.7610    1.7344 C.3       1 GTP         0.0907
     18 O3'         1.9175    0.2377    2.7247 O.3       1 GTP        -0.5209
     19 C2'         0.4468   -0.3802    0.9263 C.3       1 GTP         0.0305
     20 O2'         1.3993   -1.3703    0.5961 O.3       1 GTP        -0.5978
     21 C1'        -0.6159   -0.9100    1.8769 C.3       1 GTP         0.2339
     22 N9         -1.7127   -1.6108    1.2130 N.pl3     1 GTP        -0.1765
     23 C8         -1.6311   -2.3341    0.0493 C.ar      1 GTP         0.4947
     24 N7         -2.7933   -2.8506   -0.3007 N.2       1 GTP        -0.5802
     25 C5         -3.6607   -2.4436    0.6786 C.ar      1 GTP         0.2279
     26 C6         -5.0651   -2.7506    0.7505 C.ar      1 GTP         0.6513
     27 O6         -5.6735   -3.4256   -0.0671 O.2       1 GTP        -0.5111
     28 N1         -5.6834   -2.1585    1.9182 N.pl3     1 GTP        -0.4713
     29 C2         -5.0007   -1.3738    2.8765 C.ar      1 GTP         0.5256
     30 N2         -5.6847   -0.8521    3.9640 N.pl3     1 GTP        -0.8665
     31 N3         -3.6227   -1.1271    2.7212 N.pl3     1 GTP        -0.5398
     32 C4         -3.0090   -1.6802    1.6149 C.ar      1 GTP        -0.0275
     33 HOG3       -8.1476    3.7112    1.1203 H         1 GTP         0.4161
     34 H5'        -1.1767    2.0502    0.6368 H         1 GTP         0.0348
     35 H5''       -0.2080    3.2814    1.4876 H         1 GTP         0.0348
     36 H4'         0.0403    1.7078    3.4343 H         1 GTP         0.1215
     37 H3'         1.5907    1.4859    1.1353 H         1 GTP         0.0576
     38 HO3'        2.1521    0.9800    3.3017 H         1 GTP         0.3842
     39 H2'        -0.0017    0.0018    0.0005 H         1 GTP         0.0252
     40 HO2'        2.0953   -0.9375    0.0709 H         1 GTP         0.4224
     41 H1'        -0.1998   -1.6319    2.6178 H         1 GTP         0.0745
     42 H8         -0.7029   -2.4474   -0.4941 H         1 GTP         0.1522
     43 HN1        -6.6800   -2.3183    2.0594 H         1 GTP         0.3518
     44 HN21       -5.1660   -0.3153    4.5987 H         1 GTP         0.4761
     45 HN22       -6.6415   -1.0545    4.0252 H         1 GTP         0.4761
     46 H46        -3.1256   -0.5638    3.4080 H         1 GTP         0.5030
@<TRIPOS>BOND
     1    1    2 2
     2    1    3 1
     3    1    4 1
     4    1    5 1
     5    4   33 1
     6    5    6 1
     7    6    7 2
     8    6    8 1
     9    6    9 1
    10    9   10 1
    11   10   11 2
    12   10   12 1
    13   10   13 1
    14   13   14 1
    15   14   15 1
    16   14   34 1
    17   14   35 1
    18   15   16 1
    19   15   17 1
    20   15   36 1
    21   16   21 1
    22   17   18 1
    23   17   19 1
    24   17   37 1
    25   18   38 1
    26   19   20 1
    27   19   21 1
    28   19   39 1
    29   20   40 1
    30   21   22 1
    31   21   41 1
    32   22   23 ar
    33   22   32 ar
    34   23   24 ar
    35   23   42 1
    36   24   25 ar
    37   25   26 ar
    38   25   32 ar
    39   26   27 2
    40   26   28 ar
    41   28   29 ar
    42   28   43 1
    43   29   30 1
    44   29   31 ar
    45   30   44 1
    46   30   45 1
    47   31   32 ar
    48   31   46 1
@<TRIPOS>SUBSTRUCTURE
     1 GTP         1 GROUP 0 A     ****
@<TRIPOS>MOLECULE
[[[5-(2-amino-6-oxo-1,3-dihydropurin-2-ylium-9-yl)-3,4-dihydroxy-tetrahydrofuran-2-yl]methoxy-oxido-phosphoryl]oxy-oxido-phosphoryl] hydrogen phosphate
   46    48     1     0     0
SMALL
USER_CHARGES

@<TRIPOS>ATOM
      1 PG          3.7529    5.6282    4.7954 P.3       1 GTP         1.5400
      2 O1G         3.4941    6.5413    5.9730 O.co2     1 GTP        -0.8909
      3 O2G         4.6862    4.4445    4.9200 O.co2     1 GTP        -0.8909
      4 O3G         4.2367    6.5388    3.5295 O.3       1 GTP        -0.7980
      5 O3B         2.3238    5.1143    4.1976 O.3       1 GTP        -0.7612
      6 PB          1.0195    5.9733    3.7217 P.3       1 GTP         1.5847
      7 O1B         0.4284    6.6664    4.9291 O.co2     1 GTP        -0.8859
      8 O2B         1.3636    6.7350    2.4612 O.co2     1 GTP        -0.8859
      9 O3A         0.0468    4.7431    3.2686 O.3       1 GTP        -0.7486
     10 PA         -1.4709    4.7755    2.6641 P.3       1 GTP         1.5001
     11 O1A        -2.4018    5.3379    3.7164 O.co2     1 GTP        -0.8487
     12 O2A        -1.4241    5.3590    1.2687 O.co2     1 GTP        -0.8487
     13 O5'        -1.7336    3.1724    2.4750 O.3       1 GTP        -0.5474
     14 C5'        -0.8811    2.4285    1.6206 C.3       1 GTP         0.2547
     15 C4'        -0.1994    1.3333    2.4288 C.3       1 GTP         0.0926
     16 O4'        -1.1285    0.2356    2.5840 O.3       1 GTP        -0.3593
     17 C3'         1.0324    0.7610    1.7344 C.3       1 GTP         0.0907
     18 O3'         1.9175    0.2377    2.7247 O.3       1 GTP        -0.5209
     19 C2'         0.4468   -0.3802    0.9263 C.3       1 GTP         0.0305
     20 O2'         1.3993   -1.3703    0.5961 O.3       1 GTP        -0.5978
     21 C1'        -0.6159   -0.9100    1.8769 C.3       1 GTP         0.2339
     22 N9         -1.7127   -1.6108    1.2130 N.pl3     1 GTP        -0.1765
     23 C8         -2.8692   -1.0463    0.7355 C.ar      1 GTP         0.4947
     24 N7         -3.6707   -1.9381    0.1856 N.2       1 GTP        -0.5802
     25 C5         -3.0027   -3.1275    0.3134 C.ar      1 GTP         0.2279
     26 C6         -3.4659   -4.4142   -0.1355 C.ar      1 GTP         0.6513
     27 O6         -4.5328   -4.6133   -0.6980 O.2       1 GTP        -0.5111
     28 N1         -2.5102   -5.4606    0.1612 N.pl3     1 GTP        -0.4713
     29 C2         -1.2711   -5.2547    0.8113 C.ar      1 GTP         0.5256
     30 N2         -0.4228   -6.3256    1.0482 N.pl3     1 GTP        -0.8665
     31 N3         -0.9033   -3.9563    1.2146 N.pl3     1 GTP        -0.5398
     32 C4         -1.7979   -2.9400    0.9438 C.ar      1 GTP        -0.0275
     33 HOG3        4.4451    6.0887    2.6832 H         1 GTP         0.4161
     34 H5'        -1.4800    1.9927    0.8146 H         1 GTP         0.0348
     35 H5''       -0.1367    3.1040    1.1872 H         1 GTP         0.0348
     36 H4'         0.0403    1.7078    3.4343 H         1 GTP         0.1215
     37 H3'         1.5907    1.4859    1.1353 H         1 GTP         0.0576
     38 HO3'        2.6839   -0.1150    2.2479 H         1 GTP         0.3842
     39 H2'        -0.0017    0.0018    0.0005 H         1 GTP         0.0252
     40 HO2'        1.7495   -1.7243    1.4324 H         1 GTP         0.4224
     41 H1'        -0.1998   -1.6319    2.6178 H         1 GTP         0.0745
     42 H8         -3.0691    0.0134    0.8177 H         1 GTP         0.1522
     43 HN1        -2.7468   -6.4119   -0.1177 H         1 GTP         0.3518
     44 HN21       -0.7258   -7.2071    0.7462 H         1 GTP         0.4761
     45 HN22        0.4235   -6.1295    1.5014 H         1 GTP         0.4761
     46 H46        -0.0124   -3.8015    1.6821 H         1 GTP         0.5030
@<TRIPOS>BOND
     1    1    2 2
     2    1    3 1
     3    1    4 1
     4    1    5 1
     5    4   33 1
     6    5    6 1
     7    6    7 2
     8    6    8 1
     9    6    9 1
    10    9   10 1
    11   10   11 2
    12   10   12 1
    13   10   13 1
    14   13   14 1
    15   14   15 1
    16   14   34 1
    17   14   35 1
    18   15   16 1
    19   15   17 1
    20   15   36 1
    21   16   21 1
    22   17   18 1
    23   17   19 1
    24   17   37 1
    25   18   38 1
    26   19   20 1
    27   19   21 1
    28   19   39 1
    29   20   40 1
    30   21   22 1
    31   21   41 1
    32   22   23 ar
    33   22   32 ar
    34   23   24 ar
    35   23   42 1
    36   24   25 ar
    37   25   26 ar
    38   25   32 ar
    39   26   27 2
    40   26   28 ar
    41   28   29 ar
    42   28   43 1
    43   29   30 1
    44   29   31 ar
    45   30   44 1
    46   30   45 1
    47   31   32 ar
    48   31   46 1
@<TRIPOS>SUBSTRUCTURE
     1 GTP         1 GROUP 0 A     ****
@<TRIPOS>MOLECULE
[[[5-(2-amino-6-oxo-1,3-dihydropurin-2-ylium-9-yl)-3,4-dihydroxy-tetrahydrofuran-2-yl]methoxy-oxido-phosphoryl]oxy-oxido-phosphoryl] hydrogen phosphate
   46    48     1     0     0
SMALL
USER_CHARGES

@<TRIPOS>ATOM
      1 PG         -3.6832    8.1539    3.9660 P.3       1 GTP         1.5400
      2 O1G        -2.8986    9.4389    4.1094 O.co2     1 GTP        -0.8909
      3 O2G        -5.0508    8.1461    3.3199 O.co2     1 GTP        -0.8909
      4 O3G        -3.7997    7.4506    5.4349 O.3       1 GTP        -0.7980
      5 O3B        -2.7452    7.0379    3.2321 O.3       1 GTP        -0.7612
      6 PB         -2.1636    7.0000    1.7070 P.3       1 GTP         1.5847
      7 O1B        -3.3254    6.8630    0.7483 O.co2     1 GTP        -0.8859
      8 O2B        -1.1291    8.0916    1.5463 O.co2     1 GTP        -0.8859
      9 O3A        -1.3431    5.5904    1.7745 O.3       1 GTP        -0.7486
     10 PA         -0.4665    4.8322    0.6228 P.3       1 GTP         1.5001
     11 O1A        -1.3914    4.4265   -0.5043 O.co2     1 GTP        -0.8487
     12 O2A         0.7845    5.6405    0.3557 O.co2     1 GTP        -0.8487
     13 O5'         0.0178    3.5131    1.4595 O.3       1 GTP        -0.5474
     14 C5'        -0.8811    2.4285    1.6206 C.3       1 GTP         0.2547
     15 C4'        -0.1994    1.3333    2.4288 C.3       1 GTP         0.0926
     16 O4'        -1.1285    0.2356    2.5840 O.3       1 GTP        -0.3593
     17 C3'         1.0324    0.7610    1.7344 C.3       1 GTP         0.0907
     18 O3'         1.9175    0.2377    2.7247 O.3       1 GTP        -0.5209
     19 C2'         0.4468   -0.3802    0.9263 C.3       1 GTP         0.0305
     20 O2'         1.3993   -1.3703    0.5961 O.3       1 GTP        -0.5978
     21 C1'        -0.6159   -0.9100    1.8769 C.3       1 GTP         0.2339
     22 N9         -1.7127   -1.6108    1.2130 N.pl3     1 GTP        -0.1765
     23 C8         -1.7789   -2.9564    0.9503 C.ar      1 GTP         0.4947
     24 N7         -2.8980   -3.2916    0.3377 N.2       1 GTP        -0.5802
     25 C5         -3.5824   -2.1127    0.2000 C.ar      1 GTP         0.2279
     26 C6         -4.8740   -1.9471   -0.4133 C.ar      1 GTP         0.6513
     27 O6         -5.5366   -2.8529   -0.8978 O.2       1 GTP        -0.5111
     28 N1         -5.3036   -0.5645   -0.3916 N.pl3     1 GTP        -0.4713
     29 C2         -4.5545    0.4997    0.1619 C.ar      1 GTP         0.5256
     30 N2         -5.0561    1.7921    0.1348 N.pl3     1 GTP        -0.8665
     31 N3         -3.2977    0.2393    0.7420 N.pl3     1 GTP        -0.5398
     32 C4         -2.8643   -1.0716    0.7336 C.ar      1 GTP        -0.0275
     33 HOG3       -4.2844    6.6009    5.5086 H         1 GTP         0.4161
     34 H5'        -1.7771    2.7849    2.1387 H         1 GTP         0.0348
     35 H5''       -1.1654    2.0541    0.6320 H         1 GTP         0.0348
     36 H4'         0.0403    1.7078    3.4343 H         1 GTP         0.1215
     37 H3'         1.5907    1.4859    1.1353 H         1 GTP         0.0576
     38 HO3'        2.6839   -0.1150    2.2479 H         1 GTP         0.3842
     39 H2'        -0.0017    0.0018    0.0005 H         1 GTP         0.0252
     40 HO2'        2.0953   -0.9375    0.0709 H         1 GTP         0.4224
     41 H1'        -0.1998   -1.6319    2.6178 H         1 GTP         0.0745
     42 H8         -0.9852   -3.6367    1.2276 H         1 GTP         0.1522
     43 HN1        -6.2089   -0.3428   -0.8039 H         1 GTP         0.3518
     44 HN21       -4.4981    2.4933    0.5311 H         1 GTP         0.4761
     45 HN22       -5.9352    1.9183   -0.2793 H         1 GTP         0.4761
     46 H46        -2.7541    1.0010    1.1428 H         1 GTP         0.5030
@<TRIPOS>BOND
     1    1    2 2
     2    1    3 1
     3    1    4 1
     4    1    5 1
     5    4   33 1
     6    5    6 1
     7    6    7 2
     8    6    8 1
     9    6    9 1
    10    9   10 1
    11   10   11 2
    12   10   12 1
    13   10   13 1
    14   13   14 1
    15   14   15 1
    16   14   34 1
    17   14   35 1
    18   15   16 1
    19   15   17 1
    20   15   36 1
    21   16   21 1
    22   17   18 1
    23   17   19 1
    24   17   37 1
    25   18   38 1
    26   19   20 1
    27   19   21 1
    28   19   39 1
    29   20   40 1
    30   21   22 1
    31   21   41 1
    32   22   23 ar
    33   22   32 ar
    34   23   24 ar
    35   23   42 1
    36   24   25 ar
    37   25   26 ar
    38   25   32 ar
    39   26   27 2
    40   26   28 ar
    41   28   29 ar
    42   28   43 1
    43   29   30 1
    44   29   31 ar
    45   30   44 1
    46   30   45 1
    47   31   32 ar
    48   31   46 1
@<TRIPOS>SUBSTRUCTURE
     1 GTP         1 GROUP 0 A     ****
@<TRIPOS>MOLECULE
[[[5-(2-amino-6-oxo-1,3-dihydropurin-2-ylium-9-yl)-3,4-dihydroxy-tetrahydrofuran-2-yl]methoxy-oxido-phosphoryl]oxy-oxido-phosphoryl] hydrogen phosphate
   46    48     1     0     0
SMALL
USER_CHARGES

@<TRIPOS>ATOM
      1 PG         -1.6810    8.7759   -1.3204 P.3       1 GTP         1.5400
      2 O1G        -1.5455    8.6128   -2.8178 O.co2     1 GTP        -0.8909
      3 O2G        -2.8792    9.4772   -0.7202 O.co2     1 GTP        -0.8909
      4 O3G        -0.3256    9.4866   -0.7513 O.3       1 GTP        -0.7980
      5 O3B        -1.5113    7.3166   -0.6095 O.3       1 GTP        -0.7612
      6 PB         -2.4753    6.0007   -0.6794 P.3       1 GTP         1.5847
      7 O1B        -3.7942    6.3301   -0.0166 O.co2     1 GTP        -0.8859
      8 O2B        -2.4137    5.4176   -2.0736 O.co2     1 GTP        -0.8859
      9 O3A        -1.6181    4.9968    0.2809 O.3       1 GTP        -0.7486
     10 PA         -0.0889    4.4444    0.1193 P.3       1 GTP         1.5001
     11 O1A        -0.0111    3.5842   -1.1233 O.co2     1 GTP        -0.8487
     12 O2A         0.8677    5.5971    0.3340 O.co2     1 GTP        -0.8487
     13 O5'         0.0178    3.5131    1.4595 O.3       1 GTP        -0.5474
     14 C5'        -0.8811    2.4285    1.6206 C.3       1 GTP         0.2547
     15 C4'        -0.1994    1.3333    2.4288 C.3       1 GTP         0.0926
     16 O4'        -1.1285    0.2356    2.5840 O.3       1 GTP        -0.3593
     17 C3'         1.0324    0.7610    1.7344 C.3       1 GTP         0.0907
     18 O3'         1.9175    0.2377    2.7247 O.3       1 GTP        -0.5209
     19 C2'         0.4468   -0.3802    0.9263 C.3       1 GTP         0.0305
     20 O2'         1.3993   -1.3703    0.5961 O.3       1 GTP        -0.5978
     21 C1'        -0.6159   -0.9100    1.8769 C.3       1 GTP         0.2339
     22 N9         -1.7127   -1.6108    1.2130 N.pl3     1 GTP        -0.1765
     23 C8         -1.6092   -2.7449    0.4467 C.ar      1 GTP         0.4947
     24 N7         -2.7778   -3.1416   -0.0191 N.2       1 GTP        -0.5802
     25 C5         -3.6725   -2.2253    0.4675 C.ar      1 GTP         0.2279
     26 C6         -5.0932   -2.2202    0.2371 C.ar      1 GTP         0.6513
     27 O6         -5.6933   -3.0474   -0.4337 O.2       1 GTP        -0.5111
     28 N1         -5.7390   -1.1061    0.8992 N.pl3     1 GTP        -0.4713
     29 C2         -5.0661   -0.1368    1.6789 C.ar      1 GTP         0.5256
     30 N2         -5.7774    0.8934    2.2749 N.pl3     1 GTP        -0.8665
     31 N3         -3.6705   -0.2251    1.8481 N.pl3     1 GTP        -0.5398
     32 C4         -3.0303   -1.2785    1.2262 C.ar      1 GTP        -0.0275
     33 HOG3       -0.2595    9.6622    0.2116 H         1 GTP         0.4161
     34 H5'        -1.7771    2.7849    2.1387 H         1 GTP         0.0348
     35 H5''       -1.1654    2.0541    0.6320 H         1 GTP         0.0348
     36 H4'         0.0403    1.7078    3.4343 H         1 GTP         0.1215
     37 H3'         1.5907    1.4859    1.1353 H         1 GTP         0.0576
     38 HO3'        2.6839   -0.1150    2.2479 H         1 GTP         0.3842
     39 H2'        -0.0017    0.0018    0.0005 H         1 GTP         0.0252
     40 HO2'        2.0953   -0.9375    0.0709 H         1 GTP         0.4224
     41 H1'        -0.1998   -1.6319    2.6178 H         1 GTP         0.0745
     42 H8         -0.6610   -3.2324    0.2653 H         1 GTP         0.1522
     43 HN1        -6.7487   -1.0139    0.7961 H         1 GTP         0.3518
     44 HN21       -5.2644    1.5388    2.8044 H         1 GTP         0.4761
     45 HN22       -6.7459    0.9078    2.1265 H         1 GTP         0.4761
     46 H46        -3.1807    0.4690    2.4089 H         1 GTP         0.5030
@<TRIPOS>BOND
     1    1    2 2
     2    1    3 1
     3    1    4 1
     4    1    5 1
     5    4   33 1
     6    5    6 1
     7    6    7 2
     8    6    8 1
     9    6    9 1
    10    9   10 1
    11   10   11 2
    12   10   12 1
    13   10   13 1
    14   13   14 1
    15   14   15 1
    16   14   34 1
    17   14   35 1
    18   15   16 1
    19   15   17 1
    20   15   36 1
    21   16   21 1
    22   17   18 1
    23   17   19 1
    24   17   37 1
    25   18   38 1
    26   19   20 1
    27   19   21 1
    28   19   39 1
    29   20   40 1
    30   21   22 1
    31   21   41 1
    32   22   23 ar
    33   22   32 ar
    34   23   24 ar
    35   23   42 1
    36   24   25 ar
    37   25   26 ar
    38   25   32 ar
    39   26   27 2
    40   26   28 ar
    41   28   29 ar
    42   28   43 1
    43   29   30 1
    44   29   31 ar
    45   30   44 1
    46   30   45 1
    47   31   32 ar
    48   31   46 1
@<TRIPOS>SUBSTRUCTURE
     1 GTP         1 GROUP 0 A     ****
@<TRIPOS>MOLECULE
[[[5-(2-amino-6-oxo-1,3-dihydropurin-2-ylium-9-yl)-3,4-dihydroxy-tetrahydrofuran-2-yl]methoxy-oxido-phosphoryl]oxy-oxido-phosphoryl] hydrogen phosphate
   46    48     1     0     0
SMALL
USER_CHARGES

@<TRIPOS>ATOM
      1 PG          2.4414    5.9778    3.6040 P.3       1 GTP         1.5400
      2 O1G         2.3160    6.9752    4.7340 O.co2     1 GTP        -0.8909
      3 O2G         2.0417    4.5317    3.7957 O.co2     1 GTP        -0.8909
      4 O3G         3.9734    6.0219    3.0410 O.3       1 GTP        -0.7980
      5 O3B         1.6778    6.5676    2.2877 O.3       1 GTP        -0.7612
      6 PB          0.0882    6.8422    2.0360 P.3       1 GTP         1.5847
      7 O1B        -0.4322    7.7290    3.1451 O.co2     1 GTP        -0.8859
      8 O2B        -0.1283    7.1867    0.5793 O.co2     1 GTP        -0.8859
      9 O3A        -0.4755    5.3240    2.2417 O.3       1 GTP        -0.7486
     10 PA         -2.0037    4.7528    2.1522 P.3       1 GTP         1.5001
     11 O1A        -2.8233    5.3804    3.2590 O.co2     1 GTP        -0.8487
     12 O2A        -2.4597    4.8131    0.7107 O.co2     1 GTP        -0.8487
     13 O5'        -1.7336    3.1724    2.4750 O.3       1 GTP        -0.5474
     14 C5'        -0.8811    2.4285    1.6206 C.3       1 GTP         0.2547
     15 C4'        -0.1994    1.3333    2.4288 C.3       1 GTP         0.0926
     16 O4'        -1.1285    0.2356    2.5840 O.3       1 GTP        -0.3593
     17 C3'         1.0324    0.7610    1.7344 C.3       1 GTP         0.0907
     18 O3'         1.9175    0.2377    2.7247 O.3       1 GTP        -0.5209
     19 C2'         0.4468   -0.3802    0.9263 C.3       1 GTP         0.0305
     20 O2'         1.3993   -1.3703    0.5961 O.3       1 GTP        -0.5978
     21 C1'        -0.6159   -0.9100    1.8769 C.3       1 GTP         0.2339
     22 N9         -1.7127   -1.6108    1.2130 N.pl3     1 GTP        -0.1765
     23 C8         -3.0389   -1.2578    1.2391 C.ar      1 GTP         0.4947
     24 N7         -3.7909   -2.0880    0.5425 N.2       1 GTP        -0.5802
     25 C5         -2.9127   -3.0150    0.0458 C.ar      1 GTP         0.2279
     26 C6         -3.2467   -4.1411   -0.7860 C.ar      1 GTP         0.6513
     27 O6         -4.3761   -4.4189   -1.1621 O.2       1 GTP        -0.5111
     28 N1         -2.0748   -4.9191   -1.1296 N.pl3     1 GTP        -0.4713
     29 C2         -0.7595   -4.6181   -0.7058 C.ar      1 GTP         0.5256
     30 N2          0.2985   -5.4268   -1.0920 N.pl3     1 GTP        -0.8665
     31 N3         -0.5304   -3.4919    0.1084 N.pl3     1 GTP        -0.5398
     32 C4         -1.6318   -2.7332    0.4512 C.ar      1 GTP        -0.0275
     33 HOG3        4.2158    5.4267    2.2998 H         1 GTP         0.4161
     34 H5'        -1.4800    1.9927    0.8146 H         1 GTP         0.0348
     35 H5''       -0.1367    3.1040    1.1872 H         1 GTP         0.0348
     36 H4'         0.0403    1.7078    3.4343 H         1 GTP         0.1215
     37 H3'         1.5907    1.4859    1.1353 H         1 GTP         0.0576
     38 HO3'        2.1521    0.9800    3.3017 H         1 GTP         0.3842
     39 H2'        -0.0017    0.0018    0.0005 H         1 GTP         0.0252
     40 HO2'        2.0953   -0.9375    0.0709 H         1 GTP         0.4224
     41 H1'        -0.1998   -1.6319    2.6178 H         1 GTP         0.0745
     42 H8         -3.3933   -0.3909    1.7800 H         1 GTP         0.1522
     43 HN1        -2.2071   -5.7408   -1.7178 H         1 GTP         0.3518
     44 HN21        1.1896   -5.1751   -0.7715 H         1 GTP         0.4761
     45 HN22        0.0846   -6.1966   -1.6593 H         1 GTP         0.4761
     46 H46         0.4142   -3.2695    0.4160 H         1 GTP         0.5030
@<TRIPOS>BOND
     1    1    2 2
     2    1    3 1
     3    1    4 1
     4    1    5 1
     5    4   33 1
     6    5    6 1
     7    6    7 2
     8    6    8 1
     9    6    9 1
    10    9   10 1
    11   10   11 2
    12   10   12 1
    13   10   13 1
    14   13   14 1
    15   14   15 1
    16   14   34 1
    17   14   35 1
    18   15   16 1
    19   15   17 1
    20   15   36 1
    21   16   21 1
    22   17   18 1
    23   17   19 1
    24   17   37 1
    25   18   38 1
    26   19   20 1
    27   19   21 1
    28   19   39 1
    29   20   40 1
    30   21   22 1
    31   21   41 1
    32   22   23 ar
    33   22   32 ar
    34   23   24 ar
    35   23   42 1
    36   24   25 ar
    37   25   26 ar
    38   25   32 ar
    39   26   27 2
    40   26   28 ar
    41   28   29 ar
    42   28   43 1
    43   29   30 1
    44   29   31 ar
    45   30   44 1
    46   30   45 1
    47   31   32 ar
    48   31   46 1
@<TRIPOS>SUBSTRUCTURE
     1 GTP         1 GROUP 0 A     ****
@<TRIPOS>MOLECULE
[[[5-(2-amino-6-oxo-1,3-dihydropurin-2-ylium-9-yl)-3,4-dihydroxy-tetrahydrofuran-2-yl]methoxy-oxido-phosphoryl]oxy-oxido-phosphoryl] hydrogen phosphate
   46    48     1     0     0
SMALL
USER_CHARGES

@<TRIPOS>ATOM
      1 PG         -5.0270    7.1455    3.1542 P.3       1 GTP         1.5400
      2 O1G        -6.0115    7.2883    2.0150 O.co2     1 GTP        -0.8909
      3 O2G        -5.4644    6.6012    4.4959 O.co2     1 GTP        -0.8909
      4 O3G        -4.2968    8.5863    3.3923 O.3       1 GTP        -0.7980
      5 O3B        -3.7335    6.2963    2.6350 O.3       1 GTP        -0.7612
      6 PB         -2.7700    6.5451    1.3406 P.3       1 GTP         1.5847
      7 O1B        -3.5862    6.3453    0.0831 O.co2     1 GTP        -0.8859
      8 O2B        -1.9562    7.8000    1.5654 O.co2     1 GTP        -0.8859
      9 O3A        -1.7457    5.2883    1.5313 O.3       1 GTP        -0.7486
     10 PA         -0.4665    4.8322    0.6228 P.3       1 GTP         1.5001
     11 O1A        -0.9631    4.4288   -0.7487 O.co2     1 GTP        -0.8487
     12 O2A         0.6338    5.8580    0.7859 O.co2     1 GTP        -0.8487
     13 O5'         0.0178    3.5131    1.4595 O.3       1 GTP        -0.5474
     14 C5'        -0.8811    2.4285    1.6206 C.3       1 GTP         0.2547
     15 C4'        -0.1994    1.3333    2.4288 C.3       1 GTP         0.0926
     16 O4'        -1.1285    0.2356    2.5840 O.3       1 GTP        -0.3593
     17 C3'         1.0324    0.7610    1.7344 C.3       1 GTP         0.0907
     18 O3'         1.9175    0.2377    2.7247 O.3       1 GTP        -0.5209
     19 C2'         0.4468   -0.3802    0.9263 C.3       1 GTP         0.0305
     20 O2'         1.3993   -1.3703    0.5961 O.3       1 GTP        -0.5978
     21 C1'        -0.6159   -0.9100    1.8769 C.3       1 GTP         0.2339
     22 N9         -1.7127   -1.6108    1.2130 N.pl3     1 GTP        -0.1765
     23 C8         -1.6092   -2.7449    0.4467 C.ar      1 GTP         0.4947
     24 N7         -2.7778   -3.1416   -0.0191 N.2       1 GTP        -0.5802
     25 C5         -3.6725   -2.2253    0.4675 C.ar      1 GTP         0.2279
     26 C6         -5.0932   -2.2202    0.2371 C.ar      1 GTP         0.6513
     27 O6         -5.6933   -3.0474   -0.4337 O.2       1 GTP        -0.5111
     28 N1         -5.7390   -1.1061    0.8992 N.pl3     1 GTP        -0.4713
     29 C2         -5.0661   -0.1368    1.6789 C.ar      1 GTP         0.5256
     30 N2         -5.7774    0.8934    2.2749 N.pl3     1 GTP        -0.8665
     31 N3         -3.6705   -0.2251    1.8481 N.pl3     1 GTP        -0.5398
     32 C4         -3.0303   -1.2785    1.2262 C.ar      1 GTP        -0.0275
     33 HOG3       -3.6249    8.6574    4.1036 H         1 GTP         0.4161
     34 H5'        -1.7771    2.7849    2.1387 H         1 GTP         0.0348
     35 H5''       -1.1654    2.0541    0.6320 H         1 GTP         0.0348
     36 H4'         0.0403    1.7078    3.4343 H         1 GTP         0.1215
     37 H3'         1.5907    1.4859    1.1353 H         1 GTP         0.0576
     38 HO3'        2.6839   -0.1150    2.2479 H         1 GTP         0.3842
     39 H2'        -0.0017    0.0018    0.0005 H         1 GTP         0.0252
     40 HO2'        2.0953   -0.9375    0.0709 H         1 GTP         0.4224
     41 H1'        -0.1998   -1.6319    2.6178 H         1 GTP         0.0745
     42 H8         -0.6610   -3.2324    0.2653 H         1 GTP         0.1522
     43 HN1        -6.7487   -1.0139    0.7961 H         1 GTP         0.3518
     44 HN21       -5.2644    1.5388    2.8044 H         1 GTP         0.4761
     45 HN22       -6.7459    0.9078    2.1265 H         1 GTP         0.4761
     46 H46        -3.1807    0.4690    2.4089 H         1 GTP         0.5030
@<TRIPOS>BOND
     1    1    2 2
     2    1    3 1
     3    1    4 1
     4    1    5 1
     5    4   33 1
     6    5    6 1
     7    6    7 2
     8    6    8 1
     9    6    9 1
    10    9   10 1
    11   10   11 2
    12   10   12 1
    13   10   13 1
    14   13   14 1
    15   14   15 1
    16   14   34 1
    17   14   35 1
    18   15   16 1
    19   15   17 1
    20   15   36 1
    21   16   21 1
    22   17   18 1
    23   17   19 1
    24   17   37 1
    25   18   38 1
    26   19   20 1
    27   19   21 1
    28   19   39 1
    29   20   40 1
    30   21   22 1
    31   21   41 1
    32   22   23 ar
    33   22   32 ar
    34   23   24 ar
    35   23   42 1
    36   24   25 ar
    37   25   26 ar
    38   25   32 ar
    39   26   27 2
    40   26   28 ar
    41   28   29 ar
    42   28   43 1
    43   29   30 1
    44   29   31 ar
    45   30   44 1
    46   30   45 1
    47   31   32 ar
    48   31   46 1
@<TRIPOS>SUBSTRUCTURE
     1 GTP         1 GROUP 0 A     ****
@<TRIPOS>MOLECULE
[[[5-(2-amino-6-oxo-1,3-dihydropurin-2-ylium-9-yl)-3,4-dihydroxy-tetrahydrofuran-2-yl]methoxy-oxido-phosphoryl]oxy-oxido-phosphoryl] hydrogen phosphate
   46    48     1     0     0
SMALL
USER_CHARGES

@<TRIPOS>ATOM
      1 PG         -1.9184    7.7971   -1.8280 P.3       1 GTP         1.5400
      2 O1G        -0.8501    8.8016   -1.4580 O.co2     1 GTP        -0.8909
      3 O2G        -1.9412    7.1556   -3.1976 O.co2     1 GTP        -0.8909
      4 O3G        -3.3804    8.4666   -1.5448 O.3       1 GTP        -0.7980
      5 O3B        -1.9604    6.6242   -0.6939 O.3       1 GTP        -0.7612
      6 PB         -2.1077    6.7422    0.9279 P.3       1 GTP         1.5847
      7 O1B        -0.8773    7.4287    1.4777 O.co2     1 GTP        -0.8859
      8 O2B        -3.5008    7.2265    1.2627 O.co2     1 GTP        -0.8859
      9 O3A        -2.0640    5.1559    1.3109 O.3       1 GTP        -0.7486
     10 PA         -2.1561    4.4278    2.7707 P.3       1 GTP         1.5001
     11 O1A        -0.9467    4.8245    3.5894 O.co2     1 GTP        -0.8487
     12 O2A        -3.5584    4.6024    3.3116 O.co2     1 GTP        -0.8487
     13 O5'        -2.0401    2.8620    2.3128 O.3       1 GTP        -0.5474
     14 C5'        -0.8811    2.4285    1.6206 C.3       1 GTP         0.2547
     15 C4'        -0.1994    1.3333    2.4288 C.3       1 GTP         0.0926
     16 O4'        -1.1285    0.2356    2.5840 O.3       1 GTP        -0.3593
     17 C3'         1.0324    0.7610    1.7344 C.3       1 GTP         0.0907
     18 O3'         1.9175    0.2377    2.7247 O.3       1 GTP        -0.5209
     19 C2'         0.4468   -0.3802    0.9263 C.3       1 GTP         0.0305
     20 O2'         1.3993   -1.3703    0.5961 O.3       1 GTP        -0.5978
     21 C1'        -0.6159   -0.9100    1.8769 C.3       1 GTP         0.2339
     22 N9         -1.7127   -1.6108    1.2130 N.pl3     1 GTP        -0.1765
     23 C8         -1.7789   -2.9564    0.9503 C.ar      1 GTP         0.4947
     24 N7         -2.8980   -3.2916    0.3377 N.2       1 GTP        -0.5802
     25 C5         -3.5824   -2.1127    0.2000 C.ar      1 GTP         0.2279
     26 C6         -4.8740   -1.9471   -0.4133 C.ar      1 GTP         0.6513
     27 O6         -5.5366   -2.8529   -0.8978 O.2       1 GTP        -0.5111
     28 N1         -5.3036   -0.5645   -0.3916 N.pl3     1 GTP        -0.4713
     29 C2         -4.5545    0.4997    0.1619 C.ar      1 GTP         0.5256
     30 N2         -5.0561    1.7921    0.1348 N.pl3     1 GTP        -0.8665
     31 N3         -3.2977    0.2393    0.7420 N.pl3     1 GTP        -0.5398
     32 C4         -2.8643   -1.0716    0.7336 C.ar      1 GTP        -0.0275
     33 HOG3       -4.1824    7.9352   -1.7365 H         1 GTP         0.4161
     34 H5'        -1.1767    2.0502    0.6368 H         1 GTP         0.0348
     35 H5''       -0.2080    3.2814    1.4876 H         1 GTP         0.0348
     36 H4'         0.0403    1.7078    3.4343 H         1 GTP         0.1215
     37 H3'         1.5907    1.4859    1.1353 H         1 GTP         0.0576
     38 HO3'        2.6839   -0.1150    2.2479 H         1 GTP         0.3842
     39 H2'        -0.0017    0.0018    0.0005 H         1 GTP         0.0252
     40 HO2'        2.0953   -0.9375    0.0709 H         1 GTP         0.4224
     41 H1'        -0.1998   -1.6319    2.6178 H         1 GTP         0.0745
     42 H8         -0.9852   -3.6367    1.2276 H         1 GTP         0.1522
     43 HN1        -6.2089   -0.3428   -0.8039 H         1 GTP         0.3518
     44 HN21       -5.9354    1.9184   -0.2788 H         1 GTP         0.4761
     45 HN22       -4.4982    2.4931    0.5316 H         1 GTP         0.4761
     46 H46        -2.7541    1.0010    1.1428 H         1 GTP         0.5030
@<TRIPOS>BOND
     1    1    2 2
     2    1    3 1
     3    1    4 1
     4    1    5 1
     5    4   33 1
     6    5    6 1
     7    6    7 2
     8    6    8 1
     9    6    9 1
    10    9   10 1
    11   10   11 2
    12   10   12 1
    13   10   13 1
    14   13   14 1
    15   14   15 1
    16   14   34 1
    17   14   35 1
    18   15   16 1
    19   15   17 1
    20   15   36 1
    21   16   21 1
    22   17   18 1
    23   17   19 1
    24   17   37 1
    25   18   38 1
    26   19   20 1
    27   19   21 1
    28   19   39 1
    29   20   40 1
    30   21   22 1
    31   21   41 1
    32   22   23 ar
    33   22   32 ar
    34   23   24 ar
    35   23   42 1
    36   24   25 ar
    37   25   26 ar
    38   25   32 ar
    39   26   27 2
    40   26   28 ar
    41   28   29 ar
    42   28   43 1
    43   29   30 1
    44   29   31 ar
    45   30   44 1
    46   30   45 1
    47   31   32 ar
    48   31   46 1
@<TRIPOS>SUBSTRUCTURE
     1 GTP         1 GROUP 0 A     ****
@<TRIPOS>MOLECULE
[[[5-(2-amino-6-oxo-1,3-dihydropurin-2-ylium-9-yl)-3,4-dihydroxy-tetrahydrofuran-2-yl]methoxy-oxido-phosphoryl]oxy-oxido-phosphoryl] hydrogen phosphate
   46    48     1     0     0
SMALL
USER_CHARGES

@<TRIPOS>ATOM
      1 PG         -2.9199    5.8719   -1.7789 P.3       1 GTP         1.5400
      2 O1G        -2.8486    4.3790   -1.5473 O.co2     1 GTP        -0.8909
      3 O2G        -4.2515    6.5871   -1.8345 O.co2     1 GTP        -0.8909
      4 O3G        -2.0837    6.2269   -3.1356 O.3       1 GTP        -0.7980
      5 O3B        -1.9604    6.6242   -0.6939 O.3       1 GTP        -0.7612
      6 PB         -2.1077    6.7422    0.9279 P.3       1 GTP         1.5847
      7 O1B        -0.8773    7.4287    1.4777 O.co2     1 GTP        -0.8859
      8 O2B        -3.5008    7.2265    1.2627 O.co2     1 GTP        -0.8859
      9 O3A        -2.0640    5.1559    1.3109 O.3       1 GTP        -0.7486
     10 PA         -2.1561    4.4278    2.7707 P.3       1 GTP         1.5001
     11 O1A        -0.9467    4.8245    3.5894 O.co2     1 GTP        -0.8487
     12 O2A        -3.5584    4.6024    3.3116 O.co2     1 GTP        -0.8487
     13 O5'        -2.0401    2.8620    2.3128 O.3       1 GTP        -0.5474
     14 C5'        -0.8811    2.4285    1.6206 C.3       1 GTP         0.2547
     15 C4'        -0.1994    1.3333    2.4288 C.3       1 GTP         0.0926
     16 O4'        -1.1285    0.2356    2.5840 O.3       1 GTP        -0.3593
     17 C3'         1.0324    0.7610    1.7344 C.3       1 GTP         0.0907
     18 O3'         1.9175    0.2377    2.7247 O.3       1 GTP        -0.5209
     19 C2'         0.4468   -0.3802    0.9263 C.3       1 GTP         0.0305
     20 O2'         1.3993   -1.3703    0.5961 O.3       1 GTP        -0.5978
     21 C1'        -0.6159   -0.9100    1.8769 C.3       1 GTP         0.2339
     22 N9         -1.7127   -1.6108    1.2130 N.pl3     1 GTP        -0.1765
     23 C8         -3.0389   -1.2578    1.2391 C.ar      1 GTP         0.4947
     24 N7         -3.7909   -2.0880    0.5425 N.2       1 GTP        -0.5802
     25 C5         -2.9127   -3.0150    0.0458 C.ar      1 GTP         0.2279
     26 C6         -3.2467   -4.1411   -0.7860 C.ar      1 GTP         0.6513
     27 O6         -4.3761   -4.4189   -1.1621 O.2       1 GTP        -0.5111
     28 N1         -2.0748   -4.9191   -1.1296 N.pl3     1 GTP        -0.4713
     29 C2         -0.7595   -4.6181   -0.7058 C.ar      1 GTP         0.5256
     30 N2          0.2985   -5.4268   -1.0920 N.pl3     1 GTP        -0.8665
     31 N3         -0.5304   -3.4919    0.1084 N.pl3     1 GTP        -0.5398
     32 C4         -1.6318   -2.7332    0.4512 C.ar      1 GTP        -0.0275
     33 HOG3       -2.0356    7.1637   -3.4227 H         1 GTP         0.4161
     34 H5'        -1.1767    2.0502    0.6368 H         1 GTP         0.0348
     35 H5''       -0.2080    3.2814    1.4876 H         1 GTP         0.0348
     36 H4'         0.0403    1.7078    3.4343 H         1 GTP         0.1215
     37 H3'         1.5907    1.4859    1.1353 H         1 GTP         0.0576
     38 HO3'        2.1521    0.9800    3.3017 H         1 GTP         0.3842
     39 H2'        -0.0017    0.0018    0.0005 H         1 GTP         0.0252
     40 HO2'        2.0953   -0.9375    0.0709 H         1 GTP         0.4224
     41 H1'        -0.1998   -1.6319    2.6178 H         1 GTP         0.0745
     42 H8         -3.3933   -0.3909    1.7800 H         1 GTP         0.1522
     43 HN1        -2.2071   -5.7408   -1.7178 H         1 GTP         0.3518
     44 HN21        1.1896   -5.1751   -0.7715 H         1 GTP         0.4761
     45 HN22        0.0846   -6.1966   -1.6593 H         1 GTP         0.4761
     46 H46         0.4142   -3.2695    0.4160 H         1 GTP         0.5030
@<TRIPOS>BOND
     1    1    2 2
     2    1    3 1
     3    1    4 1
     4    1    5 1
     5    4   33 1
     6    5    6 1
     7    6    7 2
     8    6    8 1
     9    6    9 1
    10    9   10 1
    11   10   11 2
    12   10   12 1
    13   10   13 1
    14   13   14 1
    15   14   15 1
    16   14   34 1
    17   14   35 1
    18   15   16 1
    19   15   17 1
    20   15   36 1
    21   16   21 1
    22   17   18 1
    23   17   19 1
    24   17   37 1
    25   18   38 1
    26   19   20 1
    27   19   21 1
    28   19   39 1
    29   20   40 1
    30   21   22 1
    31   21   41 1
    32   22   23 ar
    33   22   32 ar
    34   23   24 ar
    35   23   42 1
    36   24   25 ar
    37   25   26 ar
    38   25   32 ar
    39   26   27 2
    40   26   28 ar
    41   28   29 ar
    42   28   43 1
    43   29   30 1
    44   29   31 ar
    45   30   44 1
    46   30   45 1
    47   31   32 ar
    48   31   46 1
@<TRIPOS>SUBSTRUCTURE
     1 GTP         1 GROUP 0 A     ****
@<TRIPOS>MOLECULE
[[[5-(2-amino-6-oxo-1,3-dihydropurin-2-ylium-9-yl)-3,4-dihydroxy-tetrahydrofuran-2-yl]methoxy-oxido-phosphoryl]oxy-oxido-phosphoryl] hydrogen phosphate
   46    48     1     0     0
SMALL
USER_CHARGES

@<TRIPOS>ATOM
      1 PG          0.6445    6.7604    0.2705 P.3       1 GTP         1.5400
      2 O1G         1.9782    7.0852    0.9054 O.co2     1 GTP        -0.8909
      3 O2G         0.3124    5.3495   -0.1616 O.co2     1 GTP        -0.8909
      4 O3G         0.4187    7.7589   -1.0015 O.3       1 GTP        -0.7980
      5 O3B        -0.5512    7.3139    1.2337 O.3       1 GTP        -0.7612
      6 PB         -1.0016    6.8281    2.7259 P.3       1 GTP         1.5847
      7 O1B         0.2052    6.8760    3.6363 O.co2     1 GTP        -0.8859
      8 O2B        -2.2999    7.5101    3.0957 O.co2     1 GTP        -0.8859
      9 O3A        -1.3731    5.2735    2.3942 O.3       1 GTP        -0.7486
     10 PA         -1.9156    4.0918    3.3837 P.3       1 GTP         1.5001
     11 O1A        -0.8453    3.7865    4.4092 O.co2     1 GTP        -0.8487
     12 O2A        -3.3304    4.4243    3.8049 O.co2     1 GTP        -0.8487
     13 O5'        -2.0401    2.8620    2.3128 O.3       1 GTP        -0.5474
     14 C5'        -0.8811    2.4285    1.6206 C.3       1 GTP         0.2547
     15 C4'        -0.1994    1.3333    2.4288 C.3       1 GTP         0.0926
     16 O4'        -1.1285    0.2356    2.5840 O.3       1 GTP        -0.3593
     17 C3'         1.0324    0.7610    1.7344 C.3       1 GTP         0.0907
     18 O3'         1.9175    0.2377    2.7247 O.3       1 GTP        -0.5209
     19 C2'         0.4468   -0.3802    0.9263 C.3       1 GTP         0.0305
     20 O2'         1.3993   -1.3703    0.5961 O.3       1 GTP        -0.5978
     21 C1'        -0.6159   -0.9100    1.8769 C.3       1 GTP         0.2339
     22 N9         -1.7127   -1.6108    1.2130 N.pl3     1 GTP        -0.1765
     23 C8         -2.5534   -1.0907    0.2607 C.ar      1 GTP         0.4947
     24 N7         -3.4469   -1.9695   -0.1508 N.2       1 GTP        -0.5802
     25 C5         -3.1705   -3.1041    0.5657 C.ar      1 GTP         0.2279
     26 C6         -3.8738   -4.3568    0.4777 C.ar      1 GTP         0.6513
     27 O6         -4.8240   -4.5720   -0.2607 O.2       1 GTP        -0.5111
     28 N1         -3.3198   -5.3462    1.3780 N.pl3     1 GTP        -0.4713
     29 C2         -2.2226   -5.1203    2.2413 C.ar      1 GTP         0.5256
     30 N2         -1.7649   -6.1367    3.0659 N.pl3     1 GTP        -0.8665
     31 N3         -1.5969   -3.8585    2.2574 N.pl3     1 GTP        -0.5398
     32 C4         -2.1068   -2.8965    1.4082 C.ar      1 GTP        -0.0275
     33 HOG3       -0.4083    7.6722   -1.5220 H         1 GTP         0.4161
     34 H5'        -1.1767    2.0502    0.6368 H         1 GTP         0.0348
     35 H5''       -0.2080    3.2814    1.4876 H         1 GTP         0.0348
     36 H4'         0.0403    1.7078    3.4343 H         1 GTP         0.1215
     37 H3'         1.5907    1.4859    1.1353 H         1 GTP         0.0576
     38 HO3'        2.6839   -0.1150    2.2479 H         1 GTP         0.3842
     39 H2'        -0.0017    0.0018    0.0005 H         1 GTP         0.0252
     40 HO2'        2.0953   -0.9375    0.0709 H         1 GTP         0.4224
     41 H1'        -0.1998   -1.6319    2.6178 H         1 GTP         0.0745
     42 H8         -2.4657   -0.0713   -0.0897 H         1 GTP         0.1522
     43 HN1        -3.7505   -6.2699    1.3904 H         1 GTP         0.3518
     44 HN21       -1.0023   -5.9289    3.6451 H         1 GTP         0.4761
     45 HN22       -2.2347   -6.9951    3.0150 H         1 GTP         0.4761
     46 H46        -0.8062   -3.6900    2.8760 H         1 GTP         0.5030
@<TRIPOS>BOND
     1    1    2 2
     2    1    3 1
     3    1    4 1
     4    1    5 1
     5    4   33 1
     6    5    6 1
     7    6    7 2
     8    6    8 1
     9    6    9 1
    10    9   10 1
    11   10   11 2
    12   10   12 1
    13   10   13 1
    14   13   14 1
    15   14   15 1
    16   14   34 1
    17   14   35 1
    18   15   16 1
    19   15   17 1
    20   15   36 1
    21   16   21 1
    22   17   18 1
    23   17   19 1
    24   17   37 1
    25   18   38 1
    26   19   20 1
    27   19   21 1
    28   19   39 1
    29   20   40 1
    30   21   22 1
    31   21   41 1
    32   22   23 ar
    33   22   32 ar
    34   23   24 ar
    35   23   42 1
    36   24   25 ar
    37   25   26 ar
    38   25   32 ar
    39   26   27 2
    40   26   28 ar
    41   28   29 ar
    42   28   43 1
    43   29   30 1
    44   29   31 ar
    45   30   44 1
    46   30   45 1
    47   31   32 ar
    48   31   46 1
@<TRIPOS>SUBSTRUCTURE
     1 GTP         1 GROUP 0 A     ****
@<TRIPOS>MOLECULE
[[[5-(2-amino-6-oxo-1,3-dihydropurin-2-ylium-9-yl)-3,4-dihydroxy-tetrahydrofuran-2-yl]methoxy-oxido-phosphoryl]oxy-oxido-phosphoryl] hydrogen phosphate
   46    48     1     0     0
SMALL
USER_CHARGES

@<TRIPOS>ATOM
      1 PG          2.1506    5.7272    6.2810 P.3       1 GTP         1.5400
      2 O1G         2.9587    6.7675    5.5380 O.co2     1 GTP        -0.8909
      3 O2G         1.4896    6.0537    7.6016 O.co2     1 GTP        -0.8909
      4 O3G         3.0755    4.3963    6.4793 O.3       1 GTP        -0.7980
      5 O3B         1.0322    5.1018    5.2700 O.3       1 GTP        -0.7612
      6 PB         -0.2716    5.8082    4.5869 P.3       1 GTP         1.5847
      7 O1B        -1.2533    6.1725    5.6783 O.co2     1 GTP        -0.8859
      8 O2B         0.1949    6.8256    3.5697 O.co2     1 GTP        -0.8859
      9 O3A        -0.8451    4.5359    3.7400 O.3       1 GTP        -0.7486
     10 PA         -2.1561    4.4278    2.7707 P.3       1 GTP         1.5001
     11 O1A        -3.3990    4.6374    3.6082 O.co2     1 GTP        -0.8487
     12 O2A        -1.9055    5.2477    1.5239 O.co2     1 GTP        -0.8487
     13 O5'        -2.0401    2.8620    2.3128 O.3       1 GTP        -0.5474
     14 C5'        -0.8811    2.4285    1.6206 C.3       1 GTP         0.2547
     15 C4'        -0.1994    1.3333    2.4288 C.3       1 GTP         0.0926
     16 O4'        -1.1285    0.2356    2.5840 O.3       1 GTP        -0.3593
     17 C3'         1.0324    0.7610    1.7344 C.3       1 GTP         0.0907
     18 O3'         1.9175    0.2377    2.7247 O.3       1 GTP        -0.5209
     19 C2'         0.4468   -0.3802    0.9263 C.3       1 GTP         0.0305
     20 O2'         1.3993   -1.3703    0.5961 O.3       1 GTP        -0.5978
     21 C1'        -0.6159   -0.9100    1.8769 C.3       1 GTP         0.2339
     22 N9         -1.7127   -1.6108    1.2130 N.pl3     1 GTP        -0.1765
     23 C8         -1.7789   -2.9564    0.9503 C.ar      1 GTP         0.4947
     24 N7         -2.8980   -3.2916    0.3377 N.2       1 GTP        -0.5802
     25 C5         -3.5824   -2.1127    0.2000 C.ar      1 GTP         0.2279
     26 C6         -4.8740   -1.9471   -0.4133 C.ar      1 GTP         0.6513
     27 O6         -5.5366   -2.8529   -0.8978 O.2       1 GTP        -0.5111
     28 N1         -5.3036   -0.5645   -0.3916 N.pl3     1 GTP        -0.4713
     29 C2         -4.5545    0.4997    0.1619 C.ar      1 GTP         0.5256
     30 N2         -5.0561    1.7921    0.1348 N.pl3     1 GTP        -0.8665
     31 N3         -3.2977    0.2393    0.7420 N.pl3     1 GTP        -0.5398
     32 C4         -2.8643   -1.0716    0.7336 C.ar      1 GTP        -0.0275
     33 HOG3        2.6901    3.6254    6.9478 H         1 GTP         0.4161
     34 H5'        -1.1767    2.0502    0.6368 H         1 GTP         0.0348
     35 H5''       -0.2080    3.2814    1.4876 H         1 GTP         0.0348
     36 H4'         0.0403    1.7078    3.4343 H         1 GTP         0.1215
     37 H3'         1.5907    1.4859    1.1353 H         1 GTP         0.0576
     38 HO3'        2.6839   -0.1150    2.2479 H         1 GTP         0.3842
     39 H2'        -0.0017    0.0018    0.0005 H         1 GTP         0.0252
     40 HO2'        2.0953   -0.9375    0.0709 H         1 GTP         0.4224
     41 H1'        -0.1998   -1.6319    2.6178 H         1 GTP         0.0745
     42 H8         -0.9852   -3.6367    1.2276 H         1 GTP         0.1522
     43 HN1        -6.2089   -0.3428   -0.8039 H         1 GTP         0.3518
     44 HN21       -5.9354    1.9184   -0.2788 H         1 GTP         0.4761
     45 HN22       -4.4982    2.4931    0.5316 H         1 GTP         0.4761
     46 H46        -2.7541    1.0010    1.1428 H         1 GTP         0.5030
@<TRIPOS>BOND
     1    1    2 2
     2    1    3 1
     3    1    4 1
     4    1    5 1
     5    4   33 1
     6    5    6 1
     7    6    7 2
     8    6    8 1
     9    6    9 1
    10    9   10 1
    11   10   11 2
    12   10   12 1
    13   10   13 1
    14   13   14 1
    15   14   15 1
    16   14   34 1
    17   14   35 1
    18   15   16 1
    19   15   17 1
    20   15   36 1
    21   16   21 1
    22   17   18 1
    23   17   19 1
    24   17   37 1
    25   18   38 1
    26   19   20 1
    27   19   21 1
    28   19   39 1
    29   20   40 1
    30   21   22 1
    31   21   41 1
    32   22   23 ar
    33   22   32 ar
    34   23   24 ar
    35   23   42 1
    36   24   25 ar
    37   25   26 ar
    38   25   32 ar
    39   26   27 2
    40   26   28 ar
    41   28   29 ar
    42   28   43 1
    43   29   30 1
    44   29   31 ar
    45   30   44 1
    46   30   45 1
    47   31   32 ar
    48   31   46 1
@<TRIPOS>SUBSTRUCTURE
     1 GTP         1 GROUP 0 A     ****
@<TRIPOS>MOLECULE
[[[5-(2-amino-6-oxo-1,3-dihydropurin-2-ylium-9-yl)-3,4-dihydroxy-tetrahydrofuran-2-yl]methoxy-oxido-phosphoryl]oxy-oxido-phosphoryl] hydrogen phosphate
   46    48     1     0     0
SMALL
USER_CHARGES

@<TRIPOS>ATOM
      1 PG         -1.2098    9.3110    3.0706 P.3       1 GTP         1.5400
      2 O1G        -0.1361    9.6212    4.0897 O.co2     1 GTP        -0.8909
      3 O2G        -1.3171   10.1056    1.7882 O.co2     1 GTP        -0.8909
      4 O3G        -2.6599    9.3385    3.8204 O.3       1 GTP        -0.7980
      5 O3B        -1.1515    7.7215    2.7047 O.3       1 GTP        -0.7612
      6 PB          0.0055    6.8681    1.9308 P.3       1 GTP         1.5847
      7 O1B         0.0852    7.3475    0.4986 O.co2     1 GTP        -0.8859
      8 O2B         1.2338    6.7924    2.8100 O.co2     1 GTP        -0.8859
      9 O3A        -0.6866    5.3902    1.9734 O.3       1 GTP        -0.7486
     10 PA         -1.1369    4.4808    3.2540 P.3       1 GTP         1.5001
     11 O1A         0.0993    4.1026    4.0409 O.co2     1 GTP        -0.8487
     12 O2A        -2.3199    5.1428    3.9262 O.co2     1 GTP        -0.8487
     13 O5'        -1.7336    3.1724    2.4750 O.3       1 GTP        -0.5474
     14 C5'        -0.8811    2.4285    1.6206 C.3       1 GTP         0.2547
     15 C4'        -0.1994    1.3333    2.4288 C.3       1 GTP         0.0926
     16 O4'        -1.1285    0.2356    2.5840 O.3       1 GTP        -0.3593
     17 C3'         1.0324    0.7610    1.7344 C.3       1 GTP         0.0907
     18 O3'         1.9175    0.2377    2.7247 O.3       1 GTP        -0.5209
     19 C2'         0.4468   -0.3802    0.9263 C.3       1 GTP         0.0305
     20 O2'         1.3993   -1.3703    0.5961 O.3       1 GTP        -0.5978
     21 C1'        -0.6159   -0.9100    1.8769 C.3       1 GTP         0.2339
     22 N9         -1.7127   -1.6108    1.2130 N.pl3     1 GTP        -0.1765
     23 C8         -2.8692   -1.0463    0.7355 C.ar      1 GTP         0.4947
     24 N7         -3.6707   -1.9381    0.1856 N.2       1 GTP        -0.5802
     25 C5         -3.0027   -3.1275    0.3134 C.ar      1 GTP         0.2279
     26 C6         -3.4659   -4.4142   -0.1355 C.ar      1 GTP         0.6513
     27 O6         -4.5328   -4.6133   -0.6980 O.2       1 GTP        -0.5111
     28 N1         -2.5102   -5.4606    0.1612 N.pl3     1 GTP        -0.4713
     29 C2         -1.2711   -5.2547    0.8113 C.ar      1 GTP         0.5256
     30 N2         -0.4228   -6.3256    1.0482 N.pl3     1 GTP        -0.8665
     31 N3         -0.9033   -3.9563    1.2146 N.pl3     1 GTP        -0.5398
     32 C4         -1.7979   -2.9400    0.9438 C.ar      1 GTP        -0.0275
     33 HOG3       -3.4638    9.1549    3.2891 H         1 GTP         0.4161
     34 H5'        -1.4800    1.9927    0.8146 H         1 GTP         0.0348
     35 H5''       -0.1367    3.1040    1.1872 H         1 GTP         0.0348
     36 H4'         0.0403    1.7078    3.4343 H         1 GTP         0.1215
     37 H3'         1.5907    1.4859    1.1353 H         1 GTP         0.0576
     38 HO3'        2.1521    0.9800    3.3017 H         1 GTP         0.3842
     39 H2'        -0.0017    0.0018    0.0005 H         1 GTP         0.0252
     40 HO2'        2.0953   -0.9375    0.0709 H         1 GTP         0.4224
     41 H1'        -0.1998   -1.6319    2.6178 H         1 GTP         0.0745
     42 H8         -3.0691    0.0134    0.8177 H         1 GTP         0.1522
     43 HN1        -2.7468   -6.4119   -0.1177 H         1 GTP         0.3518
     44 HN21        0.4233   -6.1297    1.5018 H         1 GTP         0.4761
     45 HN22       -0.7261   -7.2071    0.7466 H         1 GTP         0.4761
     46 H46        -0.0124   -3.8015    1.6821 H         1 GTP         0.5030
@<TRIPOS>BOND
     1    1    2 2
     2    1    3 1
     3    1    4 1
     4    1    5 1
     5    4   33 1
     6    5    6 1
     7    6    7 2
     8    6    8 1
     9    6    9 1
    10    9   10 1
    11   10   11 2
    12   10   12 1
    13   10   13 1
    14   13   14 1
    15   14   15 1
    16   14   34 1
    17   14   35 1
    18   15   16 1
    19   15   17 1
    20   15   36 1
    21   16   21 1
    22   17   18 1
    23   17   19 1
    24   17   37 1
    25   18   38 1
    26   19   20 1
    27   19   21 1
    28   19   39 1
    29   20   40 1
    30   21   22 1
    31   21   41 1
    32   22   23 ar
    33   22   32 ar
    34   23   24 ar
    35   23   42 1
    36   24   25 ar
    37   25   26 ar
    38   25   32 ar
    39   26   27 2
    40   26   28 ar
    41   28   29 ar
    42   28   43 1
    43   29   30 1
    44   29   31 ar
    45   30   44 1
    46   30   45 1
    47   31   32 ar
    48   31   46 1
@<TRIPOS>SUBSTRUCTURE
     1 GTP         1 GROUP 0 A     ****
@<TRIPOS>MOLECULE
[[[5-(2-amino-6-oxo-1,3-dihydropurin-2-ylium-9-yl)-3,4-dihydroxy-tetrahydrofuran-2-yl]methoxy-oxido-phosphoryl]oxy-oxido-phosphoryl] hydrogen phosphate
   46    48     1     0     0
SMALL
USER_CHARGES

@<TRIPOS>ATOM
      1 PG         -3.5250    7.0725    5.0775 P.3       1 GTP         1.5400
      2 O1G        -4.6623    7.3354    4.1157 O.co2     1 GTP        -0.8909
      3 O2G        -3.7934    6.5837    6.4834 O.co2     1 GTP        -0.8909
      4 O3G        -2.5976    8.4136    5.1630 O.3       1 GTP        -0.7980
      5 O3B        -2.4483    6.0731    4.3665 O.3       1 GTP        -0.7612
      6 PB         -0.9772    5.5850    4.8794 P.3       1 GTP         1.5847
      7 O1B        -0.0553    6.7833    4.9190 O.co2     1 GTP        -0.8859
      8 O2B        -1.1485    4.6779    6.0775 O.co2     1 GTP        -0.8859
      9 O3A        -0.5682    4.6235    3.6252 O.3       1 GTP        -0.7486
     10 PA         -0.3962    4.9846    2.0409 P.3       1 GTP         1.5001
     11 O1A        -1.7409    5.4059    1.4892 O.co2     1 GTP        -0.8487
     12 O2A         0.8270    5.8595    1.8736 O.co2     1 GTP        -0.8487
     13 O5'         0.0178    3.5131    1.4595 O.3       1 GTP        -0.5474
     14 C5'        -0.8811    2.4285    1.6206 C.3       1 GTP         0.2547
     15 C4'        -0.1994    1.3333    2.4288 C.3       1 GTP         0.0926
     16 O4'        -1.1285    0.2356    2.5840 O.3       1 GTP        -0.3593
     17 C3'         1.0324    0.7610    1.7344 C.3       1 GTP         0.0907
     18 O3'         1.9175    0.2377    2.7247 O.3       1 GTP        -0.5209
     19 C2'         0.4468   -0.3802    0.9263 C.3       1 GTP         0.0305
     20 O2'         1.3993   -1.3703    0.5961 O.3       1 GTP        -0.5978
     21 C1'        -0.6159   -0.9100    1.8769 C.3       1 GTP         0.2339
     22 N9         -1.7127   -1.6108    1.2130 N.pl3     1 GTP        -0.1765
     23 C8         -2.5534   -1.0907    0.2607 C.ar      1 GTP         0.4947
     24 N7         -3.4469   -1.9695   -0.1508 N.2       1 GTP        -0.5802
     25 C5         -3.1705   -3.1041    0.5657 C.ar      1 GTP         0.2279
     26 C6         -3.8738   -4.3568    0.4777 C.ar      1 GTP         0.6513
     27 O6         -4.8240   -4.5720   -0.2607 O.2       1 GTP        -0.5111
     28 N1         -3.3198   -5.3462    1.3780 N.pl3     1 GTP        -0.4713
     29 C2         -2.2226   -5.1203    2.2413 C.ar      1 GTP         0.5256
     30 N2         -1.7649   -6.1367    3.0659 N.pl3     1 GTP        -0.8665
     31 N3         -1.5969   -3.8585    2.2574 N.pl3     1 GTP        -0.5398
     32 C4         -2.1068   -2.8965    1.4082 C.ar      1 GTP        -0.0275
     33 HOG3       -1.8124    8.4015    5.7509 H         1 GTP         0.4161
     34 H5'        -1.7771    2.7849    2.1387 H         1 GTP         0.0348
     35 H5''       -1.1654    2.0541    0.6320 H         1 GTP         0.0348
     36 H4'         0.0403    1.7078    3.4343 H         1 GTP         0.1215
     37 H3'         1.5907    1.4859    1.1353 H         1 GTP         0.0576
     38 HO3'        2.6839   -0.1150    2.2479 H         1 GTP         0.3842
     39 H2'        -0.0017    0.0018    0.0005 H         1 GTP         0.0252
     40 HO2'        2.0953   -0.9375    0.0709 H         1 GTP         0.4224
     41 H1'        -0.1998   -1.6319    2.6178 H         1 GTP         0.0745
     42 H8         -2.4657   -0.0713   -0.0897 H         1 GTP         0.1522
     43 HN1        -3.7505   -6.2699    1.3904 H         1 GTP         0.3518
     44 HN21       -1.0023   -5.9289    3.6451 H         1 GTP         0.4761
     45 HN22       -2.2347   -6.9951    3.0150 H         1 GTP         0.4761
     46 H46        -0.8062   -3.6900    2.8760 H         1 GTP         0.5030
@<TRIPOS>BOND
     1    1    2 2
     2    1    3 1
     3    1    4 1
     4    1    5 1
     5    4   33 1
     6    5    6 1
     7    6    7 2
     8    6    8 1
     9    6    9 1
    10    9   10 1
    11   10   11 2
    12   10   12 1
    13   10   13 1
    14   13   14 1
    15   14   15 1
    16   14   34 1
    17   14   35 1
    18   15   16 1
    19   15   17 1
    20   15   36 1
    21   16   21 1
    22   17   18 1
    23   17   19 1
    24   17   37 1
    25   18   38 1
    26   19   20 1
    27   19   21 1
    28   19   39 1
    29   20   40 1
    30   21   22 1
    31   21   41 1
    32   22   23 ar
    33   22   32 ar
    34   23   24 ar
    35   23   42 1
    36   24   25 ar
    37   25   26 ar
    38   25   32 ar
    39   26   27 2
    40   26   28 ar
    41   28   29 ar
    42   28   43 1
    43   29   30 1
    44   29   31 ar
    45   30   44 1
    46   30   45 1
    47   31   32 ar
    48   31   46 1
@<TRIPOS>SUBSTRUCTURE
     1 GTP         1 GROUP 0 A     ****
@<TRIPOS>MOLECULE
[[[5-(2-amino-6-oxo-1,3-dihydropurin-2-ylium-9-yl)-3,4-dihydroxy-tetrahydrofuran-2-yl]methoxy-oxido-phosphoryl]oxy-oxido-phosphoryl] hydrogen phosphate
   46    48     1     0     0
SMALL
USER_CHARGES

@<TRIPOS>ATOM
      1 PG         -6.1168    2.5110   -0.5010 P.3       1 GTP         1.5400
      2 O1G        -4.7935    3.2247   -0.3375 O.co2     1 GTP        -0.8909
      3 O2G        -7.2943    3.1973   -1.1570 O.co2     1 GTP        -0.8909
      4 O3G        -6.5893    1.9534    0.9590 O.3       1 GTP        -0.7980
      5 O3B        -5.8601    1.0789   -1.2406 O.3       1 GTP        -0.7612
      6 PB         -5.3588    0.7623   -2.7618 P.3       1 GTP         1.5847
      7 O1B        -5.1490   -0.7289   -2.9028 O.co2     1 GTP        -0.8859
      8 O2B        -6.2188    1.5365   -3.7358 O.co2     1 GTP        -0.8859
      9 O3A        -3.9109    1.5153   -2.7224 O.3       1 GTP        -0.7486
     10 PA         -2.7724    1.6583   -3.8856 P.3       1 GTP         1.5001
     11 O1A        -2.2298    0.2825   -4.2071 O.co2     1 GTP        -0.8487
     12 O2A        -3.3041    2.5637   -4.9752 O.co2     1 GTP        -0.8487
     13 O5'        -1.6517    2.5335   -3.0776 O.3       1 GTP        -0.5474
     14 C5'        -0.7794    1.8744   -2.1748 C.3       1 GTP         0.2547
     15 C4'        -0.9699    2.4597   -0.7819 C.3       1 GTP         0.0926
     16 O4'        -2.1475    1.8640   -0.2014 O.3       1 GTP        -0.3593
     17 C3'         0.1697    2.1347    0.1695 C.3       1 GTP         0.0907
     18 O3'         0.1809    3.0982    1.2223 O.3       1 GTP        -0.5209
     19 C2'        -0.2543    0.7880    0.7187 C.3       1 GTP         0.0305
     20 O2'         0.3606    0.4944    1.9582 O.3       1 GTP        -0.5978
     21 C1'        -1.7682    0.9516    0.8548 C.3       1 GTP         0.2339
     22 N9         -2.5926   -0.2553    0.7436 N.pl3     1 GTP        -0.1765
     23 C8         -3.1167   -0.7800   -0.4115 C.ar      1 GTP         0.4947
     24 N7         -3.8169   -1.8757   -0.1899 N.2       1 GTP        -0.5802
     25 C5         -3.7408   -2.0659    1.1647 C.ar      1 GTP         0.2279
     26 C6         -4.3485   -3.1388    1.9073 C.ar      1 GTP         0.6513
     27 O6         -5.0215   -4.0329    1.4153 O.2       1 GTP        -0.5111
     28 N1         -4.0683   -3.0351    3.3241 N.pl3     1 GTP        -0.4713
     29 C2         -3.2939   -2.0102    3.9158 C.ar      1 GTP         0.5256
     30 N2         -3.0815   -2.0011    5.2860 N.pl3     1 GTP        -0.8665
     31 N3         -2.7384   -1.0007    3.1057 N.pl3     1 GTP        -0.5398
     32 C4         -2.9914   -1.0762    1.7505 C.ar      1 GTP        -0.0275
     33 HOG3       -6.0065    1.3181    1.4271 H         1 GTP         0.4161
     34 H5'        -1.0114    0.8046   -2.1752 H         1 GTP         0.0348
     35 H5''        0.2524    2.0162   -2.5118 H         1 GTP         0.0348
     36 H4'        -1.1469    3.5409   -0.8522 H         1 GTP         0.1215
     37 H3'         1.1601    2.1310   -0.2934 H         1 GTP         0.0576
     38 HO3'        0.3098    3.9616    0.8017 H         1 GTP         0.3842
     39 H2'        -0.0024   -0.0091    0.0062 H         1 GTP         0.0252
     40 HO2'        1.3225    0.4909    1.8095 H         1 GTP         0.4224
     41 H1'        -2.0584    1.4255    1.8301 H         1 GTP         0.0745
     42 H8         -2.9546   -0.3213   -1.3774 H         1 GTP         0.1522
     43 HN1        -4.4563   -3.7504    3.9377 H         1 GTP         0.3518
     44 HN21       -3.4887   -2.7270    5.8031 H         1 GTP         0.4761
     45 HN22       -2.5379   -1.2697    5.6460 H         1 GTP         0.4761
     46 H46        -2.1794   -0.2608    3.5256 H         1 GTP         0.5030
@<TRIPOS>BOND
     1    1    2 2
     2    1    3 1
     3    1    4 1
     4    1    5 1
     5    4   33 1
     6    5    6 1
     7    6    7 2
     8    6    8 1
     9    6    9 1
    10    9   10 1
    11   10   11 2
    12   10   12 1
    13   10   13 1
    14   13   14 1
    15   14   15 1
    16   14   34 1
    17   14   35 1
    18   15   16 1
    19   15   17 1
    20   15   36 1
    21   16   21 1
    22   17   18 1
    23   17   19 1
    24   17   37 1
    25   18   38 1
    26   19   20 1
    27   19   21 1
    28   19   39 1
    29   20   40 1
    30   21   22 1
    31   21   41 1
    32   22   23 ar
    33   22   32 ar
    34   23   24 ar
    35   23   42 1
    36   24   25 ar
    37   25   26 ar
    38   25   32 ar
    39   26   27 2
    40   26   28 ar
    41   28   29 ar
    42   28   43 1
    43   29   30 1
    44   29   31 ar
    45   30   44 1
    46   30   45 1
    47   31   32 ar
    48   31   46 1
@<TRIPOS>SUBSTRUCTURE
     1 GTP         1 GROUP 0 A     ****
@<TRIPOS>MOLECULE
[[[5-(2-amino-6-oxo-1,3-dihydropurin-2-ylium-9-yl)-3,4-dihydroxy-tetrahydrofuran-2-yl]methoxy-oxido-phosphoryl]oxy-oxido-phosphoryl] hydrogen phosphate
   46    48     1     0     0
SMALL
USER_CHARGES

@<TRIPOS>ATOM
      1 PG         -4.4799    6.9557   -1.0365 P.3       1 GTP         1.5400
      2 O1G        -4.5674    6.2901   -2.3918 O.co2     1 GTP        -0.8909
      3 O2G        -5.7205    7.1876   -0.2030 O.co2     1 GTP        -0.8909
      4 O3G        -3.6964    8.3780   -1.2068 O.3       1 GTP        -0.7980
      5 O3B        -3.3726    6.1711   -0.1300 O.3       1 GTP        -0.7612
      6 PB         -2.7700    6.5451    1.3406 P.3       1 GTP         1.5847
      7 O1B        -1.9788    7.8291    1.2282 O.co2     1 GTP        -0.8859
      8 O2B        -3.8576    6.3734    2.3776 O.co2     1 GTP        -0.8859
      9 O3A        -1.7457    5.2883    1.5313 O.3       1 GTP        -0.7486
     10 PA         -0.4665    4.8322    0.6228 P.3       1 GTP         1.5001
     11 O1A        -0.9631    4.4288   -0.7487 O.co2     1 GTP        -0.8487
     12 O2A         0.6338    5.8580    0.7859 O.co2     1 GTP        -0.8487
     13 O5'         0.0178    3.5131    1.4595 O.3       1 GTP        -0.5474
     14 C5'        -0.8811    2.4285    1.6206 C.3       1 GTP         0.2547
     15 C4'        -0.1994    1.3333    2.4288 C.3       1 GTP         0.0926
     16 O4'        -1.1285    0.2356    2.5840 O.3       1 GTP        -0.3593
     17 C3'         1.0324    0.7610    1.7344 C.3       1 GTP         0.0907
     18 O3'         1.9175    0.2377    2.7247 O.3       1 GTP        -0.5209
     19 C2'         0.4468   -0.3802    0.9263 C.3       1 GTP         0.0305
     20 O2'         1.3993   -1.3703    0.5961 O.3       1 GTP        -0.5978
     21 C1'        -0.6159   -0.9100    1.8769 C.3       1 GTP         0.2339
     22 N9         -1.7127   -1.6108    1.2130 N.pl3     1 GTP        -0.1765
     23 C8         -3.0389   -1.2578    1.2391 C.ar      1 GTP         0.4947
     24 N7         -3.7909   -2.0880    0.5425 N.2       1 GTP        -0.5802
     25 C5         -2.9127   -3.0150    0.0458 C.ar      1 GTP         0.2279
     26 C6         -3.2467   -4.1411   -0.7860 C.ar      1 GTP         0.6513
     27 O6         -4.3761   -4.4189   -1.1621 O.2       1 GTP        -0.5111
     28 N1         -2.0748   -4.9191   -1.1296 N.pl3     1 GTP        -0.4713
     29 C2         -0.7595   -4.6181   -0.7058 C.ar      1 GTP         0.5256
     30 N2          0.2985   -5.4268   -1.0920 N.pl3     1 GTP        -0.8665
     31 N3         -0.5304   -3.4919    0.1084 N.pl3     1 GTP        -0.5398
     32 C4         -1.6318   -2.7332    0.4512 C.ar      1 GTP        -0.0275
     33 HOG3       -3.5584    8.9333   -0.4100 H         1 GTP         0.4161
     34 H5'        -1.7771    2.7849    2.1387 H         1 GTP         0.0348
     35 H5''       -1.1654    2.0541    0.6320 H         1 GTP         0.0348
     36 H4'         0.0403    1.7078    3.4343 H         1 GTP         0.1215
     37 H3'         1.5907    1.4859    1.1353 H         1 GTP         0.0576
     38 HO3'        2.6839   -0.1150    2.2479 H         1 GTP         0.3842
     39 H2'        -0.0017    0.0018    0.0005 H         1 GTP         0.0252
     40 HO2'        2.0953   -0.9375    0.0709 H         1 GTP         0.4224
     41 H1'        -0.1998   -1.6319    2.6178 H         1 GTP         0.0745
     42 H8         -3.3933   -0.3909    1.7800 H         1 GTP         0.1522
     43 HN1        -2.2071   -5.7408   -1.7178 H         1 GTP         0.3518
     44 HN21        1.1896   -5.1751   -0.7715 H         1 GTP         0.4761
     45 HN22        0.0846   -6.1966   -1.6593 H         1 GTP         0.4761
     46 H46         0.4142   -3.2695    0.4160 H         1 GTP         0.5030
@<TRIPOS>BOND
     1    1    2 2
     2    1    3 1
     3    1    4 1
     4    1    5 1
     5    4   33 1
     6    5    6 1
     7    6    7 2
     8    6    8 1
     9    6    9 1
    10    9   10 1
    11   10   11 2
    12   10   12 1
    13   10   13 1
    14   13   14 1
    15   14   15 1
    16   14   34 1
    17   14   35 1
    18   15   16 1
    19   15   17 1
    20   15   36 1
    21   16   21 1
    22   17   18 1
    23   17   19 1
    24   17   37 1
    25   18   38 1
    26   19   20 1
    27   19   21 1
    28   19   39 1
    29   20   40 1
    30   21   22 1
    31   21   41 1
    32   22   23 ar
    33   22   32 ar
    34   23   24 ar
    35   23   42 1
    36   24   25 ar
    37   25   26 ar
    38   25   32 ar
    39   26   27 2
    40   26   28 ar
    41   28   29 ar
    42   28   43 1
    43   29   30 1
    44   29   31 ar
    45   30   44 1
    46   30   45 1
    47   31   32 ar
    48   31   46 1
@<TRIPOS>SUBSTRUCTURE
     1 GTP         1 GROUP 0 A     ****
@<TRIPOS>MOLECULE
[[[5-(2-amino-6-oxo-1,3-dihydropurin-2-ylium-9-yl)-3,4-dihydroxy-tetrahydrofuran-2-yl]methoxy-oxido-phosphoryl]oxy-oxido-phosphoryl] hydrogen phosphate
   46    48     1     0     0
SMALL
USER_CHARGES

@<TRIPOS>ATOM
      1 PG          3.0451    3.0475    7.1283 P.3       1 GTP         1.5400
      2 O1G         4.2291    3.9874    7.1764 O.co2     1 GTP        -0.8909
      3 O2G         2.0432    3.0009    8.2604 O.co2     1 GTP        -0.8909
      4 O3G         3.5951    1.5338    6.8601 O.3       1 GTP        -0.7980
      5 O3B         2.2456    3.2719    5.7232 O.3       1 GTP        -0.7612
      6 PB          1.3998    4.5651    5.1961 P.3       1 GTP         1.5847
      7 O1B         0.1866    4.7446    6.0811 O.co2     1 GTP        -0.8859
      8 O2B         2.3577    5.7039    4.9251 O.co2     1 GTP        -0.8859
      9 O3A         0.9326    3.9962    3.7391 O.3       1 GTP        -0.7486
     10 PA          0.0330    4.7083    2.5757 P.3       1 GTP         1.5001
     11 O1A        -1.3626    4.9400    3.1133 O.co2     1 GTP        -0.8487
     12 O2A         0.8346    5.8384    1.9673 O.co2     1 GTP        -0.8487
     13 O5'         0.0178    3.5131    1.4595 O.3       1 GTP        -0.5474
     14 C5'        -0.8811    2.4285    1.6206 C.3       1 GTP         0.2547
     15 C4'        -0.1994    1.3333    2.4288 C.3       1 GTP         0.0926
     16 O4'        -1.1285    0.2356    2.5840 O.3       1 GTP        -0.3593
     17 C3'         1.0324    0.7610    1.7344 C.3       1 GTP         0.0907
     18 O3'         1.9175    0.2377    2.7247 O.3       1 GTP        -0.5209
     19 C2'         0.4468   -0.3802    0.9263 C.3       1 GTP         0.0305
     20 O2'         1.3993   -1.3703    0.5961 O.3       1 GTP        -0.5978
     21 C1'        -0.6159   -0.9100    1.8769 C.3       1 GTP         0.2339
     22 N9         -1.7127   -1.6108    1.2130 N.pl3     1 GTP        -0.1765
     23 C8         -2.8692   -1.0463    0.7355 C.ar      1 GTP         0.4947
     24 N7         -3.6707   -1.9381    0.1856 N.2       1 GTP        -0.5802
     25 C5         -3.0027   -3.1275    0.3134 C.ar      1 GTP         0.2279
     26 C6         -3.4659   -4.4142   -0.1355 C.ar      1 GTP         0.6513
     27 O6         -4.5328   -4.6133   -0.6980 O.2       1 GTP        -0.5111
     28 N1         -2.5102   -5.4606    0.1612 N.pl3     1 GTP        -0.4713
     29 C2         -1.2711   -5.2547    0.8113 C.ar      1 GTP         0.5256
     30 N2         -0.4228   -6.3256    1.0482 N.pl3     1 GTP        -0.8665
     31 N3         -0.9033   -3.9563    1.2146 N.pl3     1 GTP        -0.5398
     32 C4         -1.7979   -2.9400    0.9438 C.ar      1 GTP        -0.0275
     33 HOG3        2.9428    0.8035    6.8019 H         1 GTP         0.4161
     34 H5'        -1.7771    2.7849    2.1387 H         1 GTP         0.0348
     35 H5''       -1.1654    2.0541    0.6320 H         1 GTP         0.0348
     36 H4'         0.0403    1.7078    3.4343 H         1 GTP         0.1215
     37 H3'         1.5907    1.4859    1.1353 H         1 GTP         0.0576
     38 HO3'        2.1521    0.9800    3.3017 H         1 GTP         0.3842
     39 H2'        -0.0017    0.0018    0.0005 H         1 GTP         0.0252
     40 HO2'        2.0953   -0.9375    0.0709 H         1 GTP         0.4224
     41 H1'        -0.1998   -1.6319    2.6178 H         1 GTP         0.0745
     42 H8         -3.0691    0.0134    0.8177 H         1 GTP         0.1522
     43 HN1        -2.7468   -6.4119   -0.1177 H         1 GTP         0.3518
     44 HN21        0.4233   -6.1297    1.5018 H         1 GTP         0.4761
     45 HN22       -0.7261   -7.2071    0.7466 H         1 GTP         0.4761
     46 H46        -0.0124   -3.8015    1.6821 H         1 GTP         0.5030
@<TRIPOS>BOND
     1    1    2 2
     2    1    3 1
     3    1    4 1
     4    1    5 1
     5    4   33 1
     6    5    6 1
     7    6    7 2
     8    6    8 1
     9    6    9 1
    10    9   10 1
    11   10   11 2
    12   10   12 1
    13   10   13 1
    14   13   14 1
    15   14   15 1
    16   14   34 1
    17   14   35 1
    18   15   16 1
    19   15   17 1
    20   15   36 1
    21   16   21 1
    22   17   18 1
    23   17   19 1
    24   17   37 1
    25   18   38 1
    26   19   20 1
    27   19   21 1
    28   19   39 1
    29   20   40 1
    30   21   22 1
    31   21   41 1
    32   22   23 ar
    33   22   32 ar
    34   23   24 ar
    35   23   42 1
    36   24   25 ar
    37   25   26 ar
    38   25   32 ar
    39   26   27 2
    40   26   28 ar
    41   28   29 ar
    42   28   43 1
    43   29   30 1
    44   29   31 ar
    45   30   44 1
    46   30   45 1
    47   31   32 ar
    48   31   46 1
@<TRIPOS>SUBSTRUCTURE
     1 GTP         1 GROUP 0 A     ****
@<TRIPOS>MOLECULE
[[[5-(2-amino-6-oxo-1,3-dihydropurin-2-ylium-9-yl)-3,4-dihydroxy-tetrahydrofuran-2-yl]methoxy-oxido-phosphoryl]oxy-oxido-phosphoryl] hydrogen phosphate
   46    48     1     0     0
SMALL
USER_CHARGES

@<TRIPOS>ATOM
      1 PG         -4.4799    6.9557   -1.0365 P.3       1 GTP         1.5400
      2 O1G        -4.5674    6.2901   -2.3918 O.co2     1 GTP        -0.8909
      3 O2G        -5.7205    7.1876   -0.2030 O.co2     1 GTP        -0.8909
      4 O3G        -3.6964    8.3780   -1.2068 O.3       1 GTP        -0.7980
      5 O3B        -3.3726    6.1711   -0.1300 O.3       1 GTP        -0.7612
      6 PB         -2.7700    6.5451    1.3406 P.3       1 GTP         1.5847
      7 O1B        -1.9788    7.8291    1.2282 O.co2     1 GTP        -0.8859
      8 O2B        -3.8576    6.3734    2.3776 O.co2     1 GTP        -0.8859
      9 O3A        -1.7457    5.2883    1.5313 O.3       1 GTP        -0.7486
     10 PA         -0.4665    4.8322    0.6228 P.3       1 GTP         1.5001
     11 O1A        -0.9631    4.4288   -0.7487 O.co2     1 GTP        -0.8487
     12 O2A         0.6338    5.8580    0.7859 O.co2     1 GTP        -0.8487
     13 O5'         0.0178    3.5131    1.4595 O.3       1 GTP        -0.5474
     14 C5'        -0.8811    2.4285    1.6206 C.3       1 GTP         0.2547
     15 C4'        -0.1994    1.3333    2.4288 C.3       1 GTP         0.0926
     16 O4'        -1.1285    0.2356    2.5840 O.3       1 GTP        -0.3593
     17 C3'         1.0324    0.7610    1.7344 C.3       1 GTP         0.0907
     18 O3'         1.9175    0.2377    2.7247 O.3       1 GTP        -0.5209
     19 C2'         0.4468   -0.3802    0.9263 C.3       1 GTP         0.0305
     20 O2'         1.3993   -1.3703    0.5961 O.3       1 GTP        -0.5978
     21 C1'        -0.6159   -0.9100    1.8769 C.3       1 GTP         0.2339
     22 N9         -1.7127   -1.6108    1.2130 N.pl3     1 GTP        -0.1765
     23 C8         -1.6092   -2.7449    0.4467 C.ar      1 GTP         0.4947
     24 N7         -2.7778   -3.1416   -0.0191 N.2       1 GTP        -0.5802
     25 C5         -3.6725   -2.2253    0.4675 C.ar      1 GTP         0.2279
     26 C6         -5.0932   -2.2202    0.2371 C.ar      1 GTP         0.6513
     27 O6         -5.6933   -3.0474   -0.4337 O.2       1 GTP        -0.5111
     28 N1         -5.7390   -1.1061    0.8992 N.pl3     1 GTP        -0.4713
     29 C2         -5.0661   -0.1368    1.6789 C.ar      1 GTP         0.5256
     30 N2         -5.7774    0.8934    2.2749 N.pl3     1 GTP        -0.8665
     31 N3         -3.6705   -0.2251    1.8481 N.pl3     1 GTP        -0.5398
     32 C4         -3.0303   -1.2785    1.2262 C.ar      1 GTP        -0.0275
     33 HOG3       -3.5584    8.9333   -0.4100 H         1 GTP         0.4161
     34 H5'        -1.7771    2.7849    2.1387 H         1 GTP         0.0348
     35 H5''       -1.1654    2.0541    0.6320 H         1 GTP         0.0348
     36 H4'         0.0403    1.7078    3.4343 H         1 GTP         0.1215
     37 H3'         1.5907    1.4859    1.1353 H         1 GTP         0.0576
     38 HO3'        2.6839   -0.1150    2.2479 H         1 GTP         0.3842
     39 H2'        -0.0017    0.0018    0.0005 H         1 GTP         0.0252
     40 HO2'        2.0953   -0.9375    0.0709 H         1 GTP         0.4224
     41 H1'        -0.1998   -1.6319    2.6178 H         1 GTP         0.0745
     42 H8         -0.6610   -3.2324    0.2653 H         1 GTP         0.1522
     43 HN1        -6.7487   -1.0139    0.7961 H         1 GTP         0.3518
     44 HN21       -5.2644    1.5388    2.8044 H         1 GTP         0.4761
     45 HN22       -6.7459    0.9078    2.1265 H         1 GTP         0.4761
     46 H46        -3.1807    0.4690    2.4089 H         1 GTP         0.5030
@<TRIPOS>BOND
     1    1    2 2
     2    1    3 1
     3    1    4 1
     4    1    5 1
     5    4   33 1
     6    5    6 1
     7    6    7 2
     8    6    8 1
     9    6    9 1
    10    9   10 1
    11   10   11 2
    12   10   12 1
    13   10   13 1
    14   13   14 1
    15   14   15 1
    16   14   34 1
    17   14   35 1
    18   15   16 1
    19   15   17 1
    20   15   36 1
    21   16   21 1
    22   17   18 1
    23   17   19 1
    24   17   37 1
    25   18   38 1
    26   19   20 1
    27   19   21 1
    28   19   39 1
    29   20   40 1
    30   21   22 1
    31   21   41 1
    32   22   23 ar
    33   22   32 ar
    34   23   24 ar
    35   23   42 1
    36   24   25 ar
    37   25   26 ar
    38   25   32 ar
    39   26   27 2
    40   26   28 ar
    41   28   29 ar
    42   28   43 1
    43   29   30 1
    44   29   31 ar
    45   30   44 1
    46   30   45 1
    47   31   32 ar
    48   31   46 1
@<TRIPOS>SUBSTRUCTURE
     1 GTP         1 GROUP 0 A     ****
@<TRIPOS>MOLECULE
[[[5-(2-amino-6-oxo-1,3-dihydropurin-2-ylium-9-yl)-3,4-dihydroxy-tetrahydrofuran-2-yl]methoxy-oxido-phosphoryl]oxy-oxido-phosphoryl] hydrogen phosphate
   46    48     1     0     0
SMALL
USER_CHARGES

@<TRIPOS>ATOM
      1 PG         -6.1307    6.0658    2.6219 P.3       1 GTP         1.5400
      2 O1G        -6.8628    5.0397    3.4577 O.co2     1 GTP        -0.8909
      3 O2G        -6.0825    7.5183    3.0409 O.co2     1 GTP        -0.8909
      4 O3G        -6.6944    5.9860    1.0916 O.3       1 GTP        -0.7980
      5 O3B        -4.6085    5.5425    2.3516 O.3       1 GTP        -0.7612
      6 PB         -3.4415    6.1683    1.3965 P.3       1 GTP         1.5847
      7 O1B        -3.8869    6.0636   -0.0451 O.co2     1 GTP        -0.8859
      8 O2B        -2.9713    7.4791    1.9867 O.co2     1 GTP        -0.8859
      9 O3A        -2.2582    5.0807    1.6821 O.3       1 GTP        -0.7486
     10 PA         -0.7385    5.0053    1.0867 P.3       1 GTP         1.5001
     11 O1A        -0.8122    4.7747   -0.4072 O.co2     1 GTP        -0.8487
     12 O2A         0.0648    6.1510    1.6627 O.co2     1 GTP        -0.8487
     13 O5'        -0.2062    3.6557    1.8417 O.3       1 GTP        -0.5474
     14 C5'        -0.8811    2.4285    1.6206 C.3       1 GTP         0.2547
     15 C4'        -0.1994    1.3333    2.4288 C.3       1 GTP         0.0926
     16 O4'        -1.1285    0.2356    2.5840 O.3       1 GTP        -0.3593
     17 C3'         1.0324    0.7610    1.7344 C.3       1 GTP         0.0907
     18 O3'         1.9175    0.2377    2.7247 O.3       1 GTP        -0.5209
     19 C2'         0.4468   -0.3802    0.9263 C.3       1 GTP         0.0305
     20 O2'         1.3993   -1.3703    0.5961 O.3       1 GTP        -0.5978
     21 C1'        -0.6159   -0.9100    1.8769 C.3       1 GTP         0.2339
     22 N9         -1.7127   -1.6108    1.2130 N.pl3     1 GTP        -0.1765
     23 C8         -2.5534   -1.0907    0.2607 C.ar      1 GTP         0.4947
     24 N7         -3.4469   -1.9695   -0.1508 N.2       1 GTP        -0.5802
     25 C5         -3.1705   -3.1041    0.5657 C.ar      1 GTP         0.2279
     26 C6         -3.8738   -4.3568    0.4777 C.ar      1 GTP         0.6513
     27 O6         -4.8240   -4.5720   -0.2607 O.2       1 GTP        -0.5111
     28 N1         -3.3198   -5.3462    1.3780 N.pl3     1 GTP        -0.4713
     29 C2         -2.2226   -5.1203    2.2413 C.ar      1 GTP         0.5256
     30 N2         -1.7649   -6.1367    3.0659 N.pl3     1 GTP        -0.8665
     31 N3         -1.5969   -3.8585    2.2574 N.pl3     1 GTP        -0.5398
     32 C4         -2.1068   -2.8965    1.4082 C.ar      1 GTP        -0.0275
     33 HOG3       -6.3154    6.5946    0.4221 H         1 GTP         0.4161
     34 H5'        -1.9256    2.5380    1.9293 H         1 GTP         0.0348
     35 H5''       -0.8474    2.1930    0.5521 H         1 GTP         0.0348
     36 H4'         0.0403    1.7078    3.4343 H         1 GTP         0.1215
     37 H3'         1.5907    1.4859    1.1353 H         1 GTP         0.0576
     38 HO3'        2.6839   -0.1150    2.2479 H         1 GTP         0.3842
     39 H2'        -0.0017    0.0018    0.0005 H         1 GTP         0.0252
     40 HO2'        0.9369   -2.0558    0.0825 H         1 GTP         0.4224
     41 H1'        -0.1998   -1.6319    2.6178 H         1 GTP         0.0745
     42 H8         -2.4657   -0.0713   -0.0897 H         1 GTP         0.1522
     43 HN1        -3.7505   -6.2699    1.3904 H         1 GTP         0.3518
     44 HN21       -1.0023   -5.9289    3.6451 H         1 GTP         0.4761
     45 HN22       -2.2347   -6.9951    3.0150 H         1 GTP         0.4761
     46 H46        -0.8062   -3.6900    2.8760 H         1 GTP         0.5030
@<TRIPOS>BOND
     1    1    2 2
     2    1    3 1
     3    1    4 1
     4    1    5 1
     5    4   33 1
     6    5    6 1
     7    6    7 2
     8    6    8 1
     9    6    9 1
    10    9   10 1
    11   10   11 2
    12   10   12 1
    13   10   13 1
    14   13   14 1
    15   14   15 1
    16   14   34 1
    17   14   35 1
    18   15   16 1
    19   15   17 1
    20   15   36 1
    21   16   21 1
    22   17   18 1
    23   17   19 1
    24   17   37 1
    25   18   38 1
    26   19   20 1
    27   19   21 1
    28   19   39 1
    29   20   40 1
    30   21   22 1
    31   21   41 1
    32   22   23 ar
    33   22   32 ar
    34   23   24 ar
    35   23   42 1
    36   24   25 ar
    37   25   26 ar
    38   25   32 ar
    39   26   27 2
    40   26   28 ar
    41   28   29 ar
    42   28   43 1
    43   29   30 1
    44   29   31 ar
    45   30   44 1
    46   30   45 1
    47   31   32 ar
    48   31   46 1
@<TRIPOS>SUBSTRUCTURE
     1 GTP         1 GROUP 0 A     ****
@<TRIPOS>MOLECULE
[[[5-(2-amino-6-oxo-1,3-dihydropurin-2-ylium-9-yl)-3,4-dihydroxy-tetrahydrofuran-2-yl]methoxy-oxido-phosphoryl]oxy-oxido-phosphoryl] hydrogen phosphate
   46    48     1     0     0
SMALL
USER_CHARGES

@<TRIPOS>ATOM
      1 PG         -0.1643    8.7462    1.9028 P.3       1 GTP         1.5400
      2 O1G        -1.2485    9.7071    2.3371 O.co2     1 GTP        -0.8909
      3 O2G         1.1421    8.6548    2.6596 O.co2     1 GTP        -0.8909
      4 O3G         0.1673    9.0162    0.3270 O.3       1 GTP        -0.7980
      5 O3B        -0.8031    7.2504    1.7677 O.3       1 GTP        -0.7612
      6 PB         -2.1077    6.7422    0.9279 P.3       1 GTP         1.5847
      7 O1B        -3.3453    7.3726    1.5264 O.co2     1 GTP        -0.8859
      8 O2B        -1.8085    6.8348   -0.5518 O.co2     1 GTP        -0.8859
      9 O3A        -2.0640    5.1559    1.3109 O.3       1 GTP        -0.7486
     10 PA         -2.1561    4.4278    2.7707 P.3       1 GTP         1.5001
     11 O1A        -0.9467    4.8245    3.5894 O.co2     1 GTP        -0.8487
     12 O2A        -3.5584    4.6024    3.3116 O.co2     1 GTP        -0.8487
     13 O5'        -2.0401    2.8620    2.3128 O.3       1 GTP        -0.5474
     14 C5'        -0.8811    2.4285    1.6206 C.3       1 GTP         0.2547
     15 C4'        -0.1994    1.3333    2.4288 C.3       1 GTP         0.0926
     16 O4'        -1.1285    0.2356    2.5840 O.3       1 GTP        -0.3593
     17 C3'         1.0324    0.7610    1.7344 C.3       1 GTP         0.0907
     18 O3'         1.9175    0.2377    2.7247 O.3       1 GTP        -0.5209
     19 C2'         0.4468   -0.3802    0.9263 C.3       1 GTP         0.0305
     20 O2'         1.3993   -1.3703    0.5961 O.3       1 GTP        -0.5978
     21 C1'        -0.6159   -0.9100    1.8769 C.3       1 GTP         0.2339
     22 N9         -1.7127   -1.6108    1.2130 N.pl3     1 GTP        -0.1765
     23 C8         -1.7789   -2.9564    0.9503 C.ar      1 GTP         0.4947
     24 N7         -2.8980   -3.2916    0.3377 N.2       1 GTP        -0.5802
     25 C5         -3.5824   -2.1127    0.2000 C.ar      1 GTP         0.2279
     26 C6         -4.8740   -1.9471   -0.4133 C.ar      1 GTP         0.6513
     27 O6         -5.5366   -2.8529   -0.8978 O.2       1 GTP        -0.5111
     28 N1         -5.3036   -0.5645   -0.3916 N.pl3     1 GTP        -0.4713
     29 C2         -4.5545    0.4997    0.1619 C.ar      1 GTP         0.5256
     30 N2         -5.0561    1.7921    0.1348 N.pl3     1 GTP        -0.8665
     31 N3         -3.2977    0.2393    0.7420 N.pl3     1 GTP        -0.5398
     32 C4         -2.8643   -1.0716    0.7336 C.ar      1 GTP        -0.0275
     33 HOG3        0.8557    8.4675   -0.1059 H         1 GTP         0.4161
     34 H5'        -1.1767    2.0502    0.6368 H         1 GTP         0.0348
     35 H5''       -0.2080    3.2814    1.4876 H         1 GTP         0.0348
     36 H4'         0.0403    1.7078    3.4343 H         1 GTP         0.1215
     37 H3'         1.5907    1.4859    1.1353 H         1 GTP         0.0576
     38 HO3'        2.6839   -0.1150    2.2479 H         1 GTP         0.3842
     39 H2'        -0.0017    0.0018    0.0005 H         1 GTP         0.0252
     40 HO2'        2.0953   -0.9375    0.0709 H         1 GTP         0.4224
     41 H1'        -0.1998   -1.6319    2.6178 H         1 GTP         0.0745
     42 H8         -0.9852   -3.6367    1.2276 H         1 GTP         0.1522
     43 HN1        -6.2089   -0.3428   -0.8039 H         1 GTP         0.3518
     44 HN21       -5.9354    1.9184   -0.2788 H         1 GTP         0.4761
     45 HN22       -4.4982    2.4931    0.5316 H         1 GTP         0.4761
     46 H46        -2.7541    1.0010    1.1428 H         1 GTP         0.5030
@<TRIPOS>BOND
     1    1    2 2
     2    1    3 1
     3    1    4 1
     4    1    5 1
     5    4   33 1
     6    5    6 1
     7    6    7 2
     8    6    8 1
     9    6    9 1
    10    9   10 1
    11   10   11 2
    12   10   12 1
    13   10   13 1
    14   13   14 1
    15   14   15 1
    16   14   34 1
    17   14   35 1
    18   15   16 1
    19   15   17 1
    20   15   36 1
    21   16   21 1
    22   17   18 1
    23   17   19 1
    24   17   37 1
    25   18   38 1
    26   19   20 1
    27   19   21 1
    28   19   39 1
    29   20   40 1
    30   21   22 1
    31   21   41 1
    32   22   23 ar
    33   22   32 ar
    34   23   24 ar
    35   23   42 1
    36   24   25 ar
    37   25   26 ar
    38   25   32 ar
    39   26   27 2
    40   26   28 ar
    41   28   29 ar
    42   28   43 1
    43   29   30 1
    44   29   31 ar
    45   30   44 1
    46   30   45 1
    47   31   32 ar
    48   31   46 1
@<TRIPOS>SUBSTRUCTURE
     1 GTP         1 GROUP 0 A     ****
@<TRIPOS>MOLECULE
[[[5-(2-amino-6-oxo-1,3-dihydropurin-2-ylium-9-yl)-3,4-dihydroxy-tetrahydrofuran-2-yl]methoxy-oxido-phosphoryl]oxy-oxido-phosphoryl] hydrogen phosphate
   46    48     1     0     0
SMALL
USER_CHARGES

@<TRIPOS>ATOM
      1 PG          0.4383    8.2615    4.0489 P.3       1 GTP         1.5400
      2 O1G         0.8659    9.1801    2.9261 O.co2     1 GTP        -0.8909
      3 O2G        -0.3238    8.7946    5.2417 O.co2     1 GTP        -0.8909
      4 O3G         1.7523    7.4576    4.5903 O.3       1 GTP        -0.7980
      5 O3B        -0.3813    6.9985    3.4190 O.3       1 GTP        -0.7612
      6 PB         -1.8309    6.9618    2.6687 P.3       1 GTP         1.5847
      7 O1B        -2.9023    7.3448    3.6651 O.co2     1 GTP        -0.8859
      8 O2B        -1.7110    7.6545    1.3296 O.co2     1 GTP        -0.8859
      9 O3A        -1.9236    5.3622    2.3562 O.3       1 GTP        -0.7486
     10 PA         -1.9156    4.0918    3.3837 P.3       1 GTP         1.5001
     11 O1A        -0.5754    4.0416    4.0848 O.co2     1 GTP        -0.8487
     12 O2A        -3.2093    4.0954    4.1685 O.co2     1 GTP        -0.8487
     13 O5'        -2.0401    2.8620    2.3128 O.3       1 GTP        -0.5474
     14 C5'        -0.8811    2.4285    1.6206 C.3       1 GTP         0.2547
     15 C4'        -0.1994    1.3333    2.4288 C.3       1 GTP         0.0926
     16 O4'        -1.1285    0.2356    2.5840 O.3       1 GTP        -0.3593
     17 C3'         1.0324    0.7610    1.7344 C.3       1 GTP         0.0907
     18 O3'         1.9175    0.2377    2.7247 O.3       1 GTP        -0.5209
     19 C2'         0.4468   -0.3802    0.9263 C.3       1 GTP         0.0305
     20 O2'         1.3993   -1.3703    0.5961 O.3       1 GTP        -0.5978
     21 C1'        -0.6159   -0.9100    1.8769 C.3       1 GTP         0.2339
     22 N9         -1.7127   -1.6108    1.2130 N.pl3     1 GTP        -0.1765
     23 C8         -2.5534   -1.0907    0.2607 C.ar      1 GTP         0.4947
     24 N7         -3.4469   -1.9695   -0.1508 N.2       1 GTP        -0.5802
     25 C5         -3.1705   -3.1041    0.5657 C.ar      1 GTP         0.2279
     26 C6         -3.8738   -4.3568    0.4777 C.ar      1 GTP         0.6513
     27 O6         -4.8240   -4.5720   -0.2607 O.2       1 GTP        -0.5111
     28 N1         -3.3198   -5.3462    1.3780 N.pl3     1 GTP        -0.4713
     29 C2         -2.2226   -5.1203    2.2413 C.ar      1 GTP         0.5256
     30 N2         -1.7649   -6.1367    3.0659 N.pl3     1 GTP        -0.8665
     31 N3         -1.5969   -3.8585    2.2574 N.pl3     1 GTP        -0.5398
     32 C4         -2.1068   -2.8965    1.4082 C.ar      1 GTP        -0.0275
     33 HOG3        1.6382    6.8174    5.3248 H         1 GTP         0.4161
     34 H5'        -1.1767    2.0502    0.6368 H         1 GTP         0.0348
     35 H5''       -0.2080    3.2814    1.4876 H         1 GTP         0.0348
     36 H4'         0.0403    1.7078    3.4343 H         1 GTP         0.1215
     37 H3'         1.5907    1.4859    1.1353 H         1 GTP         0.0576
     38 HO3'        2.6839   -0.1150    2.2479 H         1 GTP         0.3842
     39 H2'        -0.0017    0.0018    0.0005 H         1 GTP         0.0252
     40 HO2'        2.0953   -0.9375    0.0709 H         1 GTP         0.4224
     41 H1'        -0.1998   -1.6319    2.6178 H         1 GTP         0.0745
     42 H8         -2.4657   -0.0713   -0.0897 H         1 GTP         0.1522
     43 HN1        -3.7505   -6.2699    1.3904 H         1 GTP         0.3518
     44 HN21       -1.0023   -5.9289    3.6451 H         1 GTP         0.4761
     45 HN22       -2.2347   -6.9951    3.0150 H         1 GTP         0.4761
     46 H46        -0.8062   -3.6900    2.8760 H         1 GTP         0.5030
@<TRIPOS>BOND
     1    1    2 2
     2    1    3 1
     3    1    4 1
     4    1    5 1
     5    4   33 1
     6    5    6 1
     7    6    7 2
     8    6    8 1
     9    6    9 1
    10    9   10 1
    11   10   11 2
    12   10   12 1
    13   10   13 1
    14   13   14 1
    15   14   15 1
    16   14   34 1
    17   14   35 1
    18   15   16 1
    19   15   17 1
    20   15   36 1
    21   16   21 1
    22   17   18 1
    23   17   19 1
    24   17   37 1
    25   18   38 1
    26   19   20 1
    27   19   21 1
    28   19   39 1
    29   20   40 1
    30   21   22 1
    31   21   41 1
    32   22   23 ar
    33   22   32 ar
    34   23   24 ar
    35   23   42 1
    36   24   25 ar
    37   25   26 ar
    38   25   32 ar
    39   26   27 2
    40   26   28 ar
    41   28   29 ar
    42   28   43 1
    43   29   30 1
    44   29   31 ar
    45   30   44 1
    46   30   45 1
    47   31   32 ar
    48   31   46 1
@<TRIPOS>SUBSTRUCTURE
     1 GTP         1 GROUP 0 A     ****
@<TRIPOS>MOLECULE
[[[5-(2-amino-6-oxo-1,3-dihydropurin-2-ylium-9-yl)-3,4-dihydroxy-tetrahydrofuran-2-yl]methoxy-oxido-phosphoryl]oxy-oxido-phosphoryl] hydrogen phosphate
   46    48     1     0     0
SMALL
USER_CHARGES

@<TRIPOS>ATOM
      1 PG         -5.2065    6.7567   -0.4646 P.3       1 GTP         1.5400
      2 O1G        -4.8483    8.1462   -0.9425 O.co2     1 GTP        -0.8909
      3 O2G        -5.9526    5.7944   -1.3618 O.co2     1 GTP        -0.8909
      4 O3G        -6.0191    6.8867    0.9457 O.3       1 GTP        -0.7980
      5 O3B        -3.8596    6.0233    0.0936 O.3       1 GTP        -0.7612
      6 PB         -2.7767    6.5305    1.2053 P.3       1 GTP         1.5847
      7 O1B        -2.0624    7.7495    0.6654 O.co2     1 GTP        -0.8859
      8 O2B        -3.4341    6.5366    2.5674 O.co2     1 GTP        -0.8859
      9 O3A        -1.7628    5.2512    1.1860 O.3       1 GTP        -0.7486
     10 PA         -0.3962    4.9846    2.0409 P.3       1 GTP         1.5001
     11 O1A         0.6371    6.0152    1.6404 O.co2     1 GTP        -0.8487
     12 O2A        -0.7667    4.7715    3.4925 O.co2     1 GTP        -0.8487
     13 O5'         0.0178    3.5131    1.4595 O.3       1 GTP        -0.5474
     14 C5'        -0.8811    2.4285    1.6206 C.3       1 GTP         0.2547
     15 C4'        -0.1994    1.3333    2.4288 C.3       1 GTP         0.0926
     16 O4'        -1.1285    0.2356    2.5840 O.3       1 GTP        -0.3593
     17 C3'         1.0324    0.7610    1.7344 C.3       1 GTP         0.0907
     18 O3'         1.9175    0.2377    2.7247 O.3       1 GTP        -0.5209
     19 C2'         0.4468   -0.3802    0.9263 C.3       1 GTP         0.0305
     20 O2'         1.3993   -1.3703    0.5961 O.3       1 GTP        -0.5978
     21 C1'        -0.6159   -0.9100    1.8769 C.3       1 GTP         0.2339
     22 N9         -1.7127   -1.6108    1.2130 N.pl3     1 GTP        -0.1765
     23 C8         -2.8692   -1.0463    0.7355 C.ar      1 GTP         0.4947
     24 N7         -3.6707   -1.9381    0.1856 N.2       1 GTP        -0.5802
     25 C5         -3.0027   -3.1275    0.3134 C.ar      1 GTP         0.2279
     26 C6         -3.4659   -4.4142   -0.1355 C.ar      1 GTP         0.6513
     27 O6         -4.5328   -4.6133   -0.6980 O.2       1 GTP        -0.5111
     28 N1         -2.5102   -5.4606    0.1612 N.pl3     1 GTP        -0.4713
     29 C2         -1.2711   -5.2547    0.8113 C.ar      1 GTP         0.5256
     30 N2         -0.4228   -6.3256    1.0482 N.pl3     1 GTP        -0.8665
     31 N3         -0.9033   -3.9563    1.2146 N.pl3     1 GTP        -0.5398
     32 C4         -1.7979   -2.9400    0.9438 C.ar      1 GTP        -0.0275
     33 HOG3       -6.3231    6.0650    1.3868 H         1 GTP         0.4161
     34 H5'        -1.7771    2.7849    2.1387 H         1 GTP         0.0348
     35 H5''       -1.1654    2.0541    0.6320 H         1 GTP         0.0348
     36 H4'         0.0403    1.7078    3.4343 H         1 GTP         0.1215
     37 H3'         1.5907    1.4859    1.1353 H         1 GTP         0.0576
     38 HO3'        2.1521    0.9800    3.3017 H         1 GTP         0.3842
     39 H2'        -0.0017    0.0018    0.0005 H         1 GTP         0.0252
     40 HO2'        0.9369   -2.0558    0.0825 H         1 GTP         0.4224
     41 H1'        -0.1998   -1.6319    2.6178 H         1 GTP         0.0745
     42 H8         -3.0691    0.0134    0.8177 H         1 GTP         0.1522
     43 HN1        -2.7468   -6.4119   -0.1177 H         1 GTP         0.3518
     44 HN21        0.4233   -6.1297    1.5018 H         1 GTP         0.4761
     45 HN22       -0.7261   -7.2071    0.7466 H         1 GTP         0.4761
     46 H46        -0.0124   -3.8015    1.6821 H         1 GTP         0.5030
@<TRIPOS>BOND
     1    1    2 2
     2    1    3 1
     3    1    4 1
     4    1    5 1
     5    4   33 1
     6    5    6 1
     7    6    7 2
     8    6    8 1
     9    6    9 1
    10    9   10 1
    11   10   11 2
    12   10   12 1
    13   10   13 1
    14   13   14 1
    15   14   15 1
    16   14   34 1
    17   14   35 1
    18   15   16 1
    19   15   17 1
    20   15   36 1
    21   16   21 1
    22   17   18 1
    23   17   19 1
    24   17   37 1
    25   18   38 1
    26   19   20 1
    27   19   21 1
    28   19   39 1
    29   20   40 1
    30   21   22 1
    31   21   41 1
    32   22   23 ar
    33   22   32 ar
    34   23   24 ar
    35   23   42 1
    36   24   25 ar
    37   25   26 ar
    38   25   32 ar
    39   26   27 2
    40   26   28 ar
    41   28   29 ar
    42   28   43 1
    43   29   30 1
    44   29   31 ar
    45   30   44 1
    46   30   45 1
    47   31   32 ar
    48   31   46 1
@<TRIPOS>SUBSTRUCTURE
     1 GTP         1 GROUP 0 A     ****
@<TRIPOS>MOLECULE
[[[5-(2-amino-6-oxo-1,3-dihydropurin-2-ylium-9-yl)-3,4-dihydroxy-tetrahydrofuran-2-yl]methoxy-oxido-phosphoryl]oxy-oxido-phosphoryl] hydrogen phosphate
   46    48     1     0     0
SMALL
USER_CHARGES

@<TRIPOS>ATOM
      1 PG         -3.1485    5.7392   -1.7659 P.3       1 GTP         1.5400
      2 O1G        -3.2623    4.3056   -1.2979 O.co2     1 GTP        -0.8909
      3 O2G        -4.3144    6.6940   -1.6365 O.co2     1 GTP        -0.8909
      4 O3G        -2.6483    5.7393   -3.3202 O.3       1 GTP        -0.7980
      5 O3B        -1.8307    6.4179   -1.0828 O.3       1 GTP        -0.7612
      6 PB         -1.5294    6.7731    0.4821 P.3       1 GTP         1.5847
      7 O1B        -0.1039    7.2639    0.6020 O.co2     1 GTP        -0.8859
      8 O2B        -2.6897    7.5669    1.0399 O.co2     1 GTP        -0.8859
      9 O3A        -1.6454    5.2741    1.1179 O.3       1 GTP        -0.7486
     10 PA         -1.4709    4.7755    2.6641 P.3       1 GTP         1.5001
     11 O1A        -0.0423    5.0242    3.0972 O.co2     1 GTP        -0.8487
     12 O2A        -2.6365    5.2974    3.4757 O.co2     1 GTP        -0.8487
     13 O5'        -1.7336    3.1724    2.4750 O.3       1 GTP        -0.5474
     14 C5'        -0.8811    2.4285    1.6206 C.3       1 GTP         0.2547
     15 C4'        -0.1994    1.3333    2.4288 C.3       1 GTP         0.0926
     16 O4'        -1.1285    0.2356    2.5840 O.3       1 GTP        -0.3593
     17 C3'         1.0324    0.7610    1.7344 C.3       1 GTP         0.0907
     18 O3'         1.9175    0.2377    2.7247 O.3       1 GTP        -0.5209
     19 C2'         0.4468   -0.3802    0.9263 C.3       1 GTP         0.0305
     20 O2'         1.3993   -1.3703    0.5961 O.3       1 GTP        -0.5978
     21 C1'        -0.6159   -0.9100    1.8769 C.3       1 GTP         0.2339
     22 N9         -1.7127   -1.6108    1.2130 N.pl3     1 GTP        -0.1765
     23 C8         -1.6092   -2.7449    0.4467 C.ar      1 GTP         0.4947
     24 N7         -2.7778   -3.1416   -0.0191 N.2       1 GTP        -0.5802
     25 C5         -3.6725   -2.2253    0.4675 C.ar      1 GTP         0.2279
     26 C6         -5.0932   -2.2202    0.2371 C.ar      1 GTP         0.6513
     27 O6         -5.6933   -3.0474   -0.4337 O.2       1 GTP        -0.5111
     28 N1         -5.7390   -1.1061    0.8992 N.pl3     1 GTP        -0.4713
     29 C2         -5.0661   -0.1368    1.6789 C.ar      1 GTP         0.5256
     30 N2         -5.7774    0.8934    2.2749 N.pl3     1 GTP        -0.8665
     31 N3         -3.6705   -0.2251    1.8481 N.pl3     1 GTP        -0.5398
     32 C4         -3.0303   -1.2785    1.2262 C.ar      1 GTP        -0.0275
     33 HOG3       -2.5253    6.6018   -3.7710 H         1 GTP         0.4161
     34 H5'        -1.4800    1.9927    0.8146 H         1 GTP         0.0348
     35 H5''       -0.1367    3.1040    1.1872 H         1 GTP         0.0348
     36 H4'         0.0403    1.7078    3.4343 H         1 GTP         0.1215
     37 H3'         1.5907    1.4859    1.1353 H         1 GTP         0.0576
     38 HO3'        2.1521    0.9800    3.3017 H         1 GTP         0.3842
     39 H2'        -0.0017    0.0018    0.0005 H         1 GTP         0.0252
     40 HO2'        2.0953   -0.9375    0.0709 H         1 GTP         0.4224
     41 H1'        -0.1998   -1.6319    2.6178 H         1 GTP         0.0745
     42 H8         -0.6610   -3.2324    0.2653 H         1 GTP         0.1522
     43 HN1        -6.7487   -1.0139    0.7961 H         1 GTP         0.3518
     44 HN21       -5.2644    1.5388    2.8044 H         1 GTP         0.4761
     45 HN22       -6.7459    0.9078    2.1265 H         1 GTP         0.4761
     46 H46        -3.1807    0.4690    2.4089 H         1 GTP         0.5030
@<TRIPOS>BOND
     1    1    2 2
     2    1    3 1
     3    1    4 1
     4    1    5 1
     5    4   33 1
     6    5    6 1
     7    6    7 2
     8    6    8 1
     9    6    9 1
    10    9   10 1
    11   10   11 2
    12   10   12 1
    13   10   13 1
    14   13   14 1
    15   14   15 1
    16   14   34 1
    17   14   35 1
    18   15   16 1
    19   15   17 1
    20   15   36 1
    21   16   21 1
    22   17   18 1
    23   17   19 1
    24   17   37 1
    25   18   38 1
    26   19   20 1
    27   19   21 1
    28   19   39 1
    29   20   40 1
    30   21   22 1
    31   21   41 1
    32   22   23 ar
    33   22   32 ar
    34   23   24 ar
    35   23   42 1
    36   24   25 ar
    37   25   26 ar
    38   25   32 ar
    39   26   27 2
    40   26   28 ar
    41   28   29 ar
    42   28   43 1
    43   29   30 1
    44   29   31 ar
    45   30   44 1
    46   30   45 1
    47   31   32 ar
    48   31   46 1
@<TRIPOS>SUBSTRUCTURE
     1 GTP         1 GROUP 0 A     ****
@<TRIPOS>MOLECULE
[[[5-(2-amino-6-oxo-1,3-dihydropurin-2-ylium-9-yl)-3,4-dihydroxy-tetrahydrofuran-2-yl]methoxy-oxido-phosphoryl]oxy-oxido-phosphoryl] hydrogen phosphate
   46    48     1     0     0
SMALL
USER_CHARGES

@<TRIPOS>ATOM
      1 PG          8.5062    1.1491   -4.2866 P.3       1 GTP         1.5400
      2 O1G         9.1491    2.2747   -5.0658 O.co2     1 GTP        -0.8909
      3 O2G         9.3390    0.2236   -3.4278 O.co2     1 GTP        -0.8909
      4 O3G         7.6216    0.2436   -5.3179 O.3       1 GTP        -0.7980
      5 O3B         7.2888    1.7554   -3.3843 O.3       1 GTP        -0.7612
      6 PB          6.0145    2.6741   -3.8289 P.3       1 GTP         1.5847
      7 O1B         6.5261    4.0173   -4.2997 O.co2     1 GTP        -0.8859
      8 O2B         5.0783    1.8420   -4.6767 O.co2     1 GTP        -0.8859
      9 O3A         5.2941    2.8444   -2.3740 O.3       1 GTP        -0.7486
     10 PA          5.8655    3.5044   -0.9928 P.3       1 GTP         1.5001
     11 O1A         7.0286    2.6708   -0.5002 O.co2     1 GTP        -0.8487
     12 O2A         6.0020    4.9984   -1.1902 O.co2     1 GTP        -0.8487
     13 O5'         4.5670    3.2937   -0.0211 O.3       1 GTP        -0.5474
     14 C5'         4.0922    1.9801    0.2227 C.3       1 GTP         0.2547
     15 C4'         2.5944    2.0310    0.4653 C.3       1 GTP         0.0926
     16 O4'         1.9327    2.5740   -0.6889 O.3       1 GTP        -0.3593
     17 C3'         1.9685    0.6634    0.6767 C.3       1 GTP         0.0907
     18 O3'         2.1425    0.1975    1.9977 O.3       1 GTP        -0.5209
     19 C2'         0.5176    0.9128    0.3099 C.3       1 GTP         0.0305
     20 O2'        -0.2103    1.4454    1.4152 O.3       1 GTP        -0.5978
     21 C1'         0.6219    1.9765   -0.7844 C.3       1 GTP         0.2339
     22 N9          0.4237    1.4496   -2.1357 N.pl3     1 GTP        -0.1765
     23 C8          1.3988    0.9691   -2.9736 C.ar      1 GTP         0.4947
     24 N7          0.9092    0.5634   -4.1293 N.2       1 GTP        -0.5802
     25 C5         -0.4383    0.7914   -4.0325 C.ar      1 GTP         0.2279
     26 C6         -1.4217    0.5138   -5.0461 C.ar      1 GTP         0.6513
     27 O6         -1.1759    0.0306   -6.1417 O.2       1 GTP        -0.5111
     28 N1         -2.7543    0.8794   -4.6134 N.pl3     1 GTP        -0.4713
     29 C2         -3.0626    1.4402   -3.3523 C.ar      1 GTP         0.5256
     30 N2         -4.3747    1.7544   -3.0321 N.pl3     1 GTP        -0.8665
     31 N3         -2.0304    1.6759   -2.4233 N.pl3     1 GTP        -0.5398
     32 C4         -0.7497    1.3366   -2.8118 C.ar      1 GTP        -0.0275
     33 HOG3        7.1385   -0.5322   -4.9615 H         1 GTP         0.4161
     34 H5'         4.3179    1.3548   -0.6470 H         1 GTP         0.0348
     35 H5''        4.6083    1.5737    1.0983 H         1 GTP         0.0348
     36 H4'         2.3752    2.7029    1.3156 H         1 GTP         0.1215
     37 H3'         2.4336   -0.1217   -0.0015 H         1 GTP         0.0576
     38 HO3'        1.7160   -0.6716    2.0397 H         1 GTP         0.3842
     39 H2'         0.0316    0.0155   -0.0339 H         1 GTP         0.0252
     40 HO2'       -0.1608    0.7921    2.1351 H         1 GTP         0.4224
     41 H1'        -0.1474    2.7798   -0.6651 H         1 GTP         0.0745
     42 H8          2.4413    0.9409   -2.6872 H         1 GTP         0.1522
     43 HN1        -3.5236    0.7214   -5.2629 H         1 GTP         0.3518
     44 HN21       -4.5350    2.1409   -2.1461 H         1 GTP         0.4761
     45 HN22       -5.0542    1.5695   -3.7134 H         1 GTP         0.4761
     46 H46        -2.2462    2.0786   -1.5136 H         1 GTP         0.5030
@<TRIPOS>BOND
     1    1    2 2
     2    1    3 1
     3    1    4 1
     4    1    5 1
     5    4   33 1
     6    5    6 1
     7    6    7 2
     8    6    8 1
     9    6    9 1
    10    9   10 1
    11   10   11 2
    12   10   12 1
    13   10   13 1
    14   13   14 1
    15   14   15 1
    16   14   34 1
    17   14   35 1
    18   15   16 1
    19   15   17 1
    20   15   36 1
    21   16   21 1
    22   17   18 1
    23   17   19 1
    24   17   37 1
    25   18   38 1
    26   19   20 1
    27   19   21 1
    28   19   39 1
    29   20   40 1
    30   21   22 1
    31   21   41 1
    32   22   23 ar
    33   22   32 ar
    34   23   24 ar
    35   23   42 1
    36   24   25 ar
    37   25   26 ar
    38   25   32 ar
    39   26   27 2
    40   26   28 ar
    41   28   29 ar
    42   28   43 1
    43   29   30 1
    44   29   31 ar
    45   30   44 1
    46   30   45 1
    47   31   32 ar
    48   31   46 1
@<TRIPOS>SUBSTRUCTURE
     1 GTP         1 GROUP 0 A     ****
@<TRIPOS>MOLECULE
[[[5-(2-amino-6-oxo-1,3-dihydropurin-2-ylium-9-yl)-3,4-dihydroxy-tetrahydrofuran-2-yl]methoxy-oxido-phosphoryl]oxy-oxido-phosphoryl] hydrogen phosphate
   46    48     1     0     0
SMALL
USER_CHARGES

@<TRIPOS>ATOM
      1 PG          2.6218    7.5190    3.1453 P.3       1 GTP         1.5400
      2 O1G         2.0821    8.7428    3.8512 O.co2     1 GTP        -0.8909
      3 O2G         3.7240    6.6879    3.7634 O.co2     1 GTP        -0.8909
      4 O3G         3.0800    7.9493    1.6384 O.3       1 GTP        -0.7980
      5 O3B         1.3765    6.5391    2.7540 O.3       1 GTP        -0.7612
      6 PB          0.0055    6.8681    1.9308 P.3       1 GTP         1.5847
      7 O1B        -0.8252    7.8385    2.7406 O.co2     1 GTP        -0.8859
      8 O2B         0.3518    7.1383    0.4836 O.co2     1 GTP        -0.8859
      9 O3A        -0.6866    5.3902    1.9734 O.3       1 GTP        -0.7486
     10 PA         -1.1369    4.4808    3.2540 P.3       1 GTP         1.5001
     11 O1A         0.0993    4.1026    4.0409 O.co2     1 GTP        -0.8487
     12 O2A        -2.3199    5.1428    3.9262 O.co2     1 GTP        -0.8487
     13 O5'        -1.7336    3.1724    2.4750 O.3       1 GTP        -0.5474
     14 C5'        -0.8811    2.4285    1.6206 C.3       1 GTP         0.2547
     15 C4'        -0.1994    1.3333    2.4288 C.3       1 GTP         0.0926
     16 O4'        -1.1285    0.2356    2.5840 O.3       1 GTP        -0.3593
     17 C3'         1.0324    0.7610    1.7344 C.3       1 GTP         0.0907
     18 O3'         1.9175    0.2377    2.7247 O.3       1 GTP        -0.5209
     19 C2'         0.4468   -0.3802    0.9263 C.3       1 GTP         0.0305
     20 O2'         1.3993   -1.3703    0.5961 O.3       1 GTP        -0.5978
     21 C1'        -0.6159   -0.9100    1.8769 C.3       1 GTP         0.2339
     22 N9         -1.7127   -1.6108    1.2130 N.pl3     1 GTP        -0.1765
     23 C8         -2.8692   -1.0463    0.7355 C.ar      1 GTP         0.4947
     24 N7         -3.6707   -1.9381    0.1856 N.2       1 GTP        -0.5802
     25 C5         -3.0027   -3.1275    0.3134 C.ar      1 GTP         0.2279
     26 C6         -3.4659   -4.4142   -0.1355 C.ar      1 GTP         0.6513
     27 O6         -4.5328   -4.6133   -0.6980 O.2       1 GTP        -0.5111
     28 N1         -2.5102   -5.4606    0.1612 N.pl3     1 GTP        -0.4713
     29 C2         -1.2711   -5.2547    0.8113 C.ar      1 GTP         0.5256
     30 N2         -0.4228   -6.3256    1.0482 N.pl3     1 GTP        -0.8665
     31 N3         -0.9033   -3.9563    1.2146 N.pl3     1 GTP        -0.5398
     32 C4         -1.7979   -2.9400    0.9438 C.ar      1 GTP        -0.0275
     33 HOG3        3.4546    7.2600    1.0495 H         1 GTP         0.4161
     34 H5'        -1.4800    1.9927    0.8146 H         1 GTP         0.0348
     35 H5''       -0.1367    3.1040    1.1872 H         1 GTP         0.0348
     36 H4'         0.0403    1.7078    3.4343 H         1 GTP         0.1215
     37 H3'         1.5907    1.4859    1.1353 H         1 GTP         0.0576
     38 HO3'        2.6839   -0.1150    2.2479 H         1 GTP         0.3842
     39 H2'        -0.0017    0.0018    0.0005 H         1 GTP         0.0252
     40 HO2'        0.9369   -2.0558    0.0825 H         1 GTP         0.4224
     41 H1'        -0.1998   -1.6319    2.6178 H         1 GTP         0.0745
     42 H8         -3.0691    0.0134    0.8177 H         1 GTP         0.1522
     43 HN1        -2.7468   -6.4119   -0.1177 H         1 GTP         0.3518
     44 HN21        0.4233   -6.1297    1.5018 H         1 GTP         0.4761
     45 HN22       -0.7261   -7.2071    0.7466 H         1 GTP         0.4761
     46 H46        -0.0124   -3.8015    1.6821 H         1 GTP         0.5030
@<TRIPOS>BOND
     1    1    2 2
     2    1    3 1
     3    1    4 1
     4    1    5 1
     5    4   33 1
     6    5    6 1
     7    6    7 2
     8    6    8 1
     9    6    9 1
    10    9   10 1
    11   10   11 2
    12   10   12 1
    13   10   13 1
    14   13   14 1
    15   14   15 1
    16   14   34 1
    17   14   35 1
    18   15   16 1
    19   15   17 1
    20   15   36 1
    21   16   21 1
    22   17   18 1
    23   17   19 1
    24   17   37 1
    25   18   38 1
    26   19   20 1
    27   19   21 1
    28   19   39 1
    29   20   40 1
    30   21   22 1
    31   21   41 1
    32   22   23 ar
    33   22   32 ar
    34   23   24 ar
    35   23   42 1
    36   24   25 ar
    37   25   26 ar
    38   25   32 ar
    39   26   27 2
    40   26   28 ar
    41   28   29 ar
    42   28   43 1
    43   29   30 1
    44   29   31 ar
    45   30   44 1
    46   30   45 1
    47   31   32 ar
    48   31   46 1
@<TRIPOS>SUBSTRUCTURE
     1 GTP         1 GROUP 0 A     ****
@<TRIPOS>MOLECULE
[[[5-(2-amino-6-oxo-1,3-dihydropurin-2-ylium-9-yl)-3,4-dihydroxy-tetrahydrofuran-2-yl]methoxy-oxido-phosphoryl]oxy-oxido-phosphoryl] hydrogen phosphate
   46    48     1     0     0
SMALL
USER_CHARGES

@<TRIPOS>ATOM
      1 PG         -1.9184    7.7971   -1.8280 P.3       1 GTP         1.5400
      2 O1G        -1.5987    7.1742   -3.1687 O.co2     1 GTP        -0.8909
      3 O2G        -3.1265    8.6904   -1.6543 O.co2     1 GTP        -0.8909
      4 O3G        -0.5987    8.6017   -1.3020 O.3       1 GTP        -0.7980
      5 O3B        -1.9604    6.6242   -0.6939 O.3       1 GTP        -0.7612
      6 PB         -2.1077    6.7422    0.9279 P.3       1 GTP         1.5847
      7 O1B        -0.8773    7.4287    1.4777 O.co2     1 GTP        -0.8859
      8 O2B        -3.5008    7.2265    1.2627 O.co2     1 GTP        -0.8859
      9 O3A        -2.0640    5.1559    1.3109 O.3       1 GTP        -0.7486
     10 PA         -2.1561    4.4278    2.7707 P.3       1 GTP         1.5001
     11 O1A        -0.9467    4.8245    3.5894 O.co2     1 GTP        -0.8487
     12 O2A        -3.5584    4.6024    3.3116 O.co2     1 GTP        -0.8487
     13 O5'        -2.0401    2.8620    2.3128 O.3       1 GTP        -0.5474
     14 C5'        -0.8811    2.4285    1.6206 C.3       1 GTP         0.2547
     15 C4'        -0.1994    1.3333    2.4288 C.3       1 GTP         0.0926
     16 O4'        -1.1285    0.2356    2.5840 O.3       1 GTP        -0.3593
     17 C3'         1.0324    0.7610    1.7344 C.3       1 GTP         0.0907
     18 O3'         1.9175    0.2377    2.7247 O.3       1 GTP        -0.5209
     19 C2'         0.4468   -0.3802    0.9263 C.3       1 GTP         0.0305
     20 O2'         1.3993   -1.3703    0.5961 O.3       1 GTP        -0.5978
     21 C1'        -0.6159   -0.9100    1.8769 C.3       1 GTP         0.2339
     22 N9         -1.7127   -1.6108    1.2130 N.pl3     1 GTP        -0.1765
     23 C8         -1.6092   -2.7449    0.4467 C.ar      1 GTP         0.4947
     24 N7         -2.7778   -3.1416   -0.0191 N.2       1 GTP        -0.5802
     25 C5         -3.6725   -2.2253    0.4675 C.ar      1 GTP         0.2279
     26 C6         -5.0932   -2.2202    0.2371 C.ar      1 GTP         0.6513
     27 O6         -5.6933   -3.0474   -0.4337 O.2       1 GTP        -0.5111
     28 N1         -5.7390   -1.1061    0.8992 N.pl3     1 GTP        -0.4713
     29 C2         -5.0661   -0.1368    1.6789 C.ar      1 GTP         0.5256
     30 N2         -5.7774    0.8934    2.2749 N.pl3     1 GTP        -0.8665
     31 N3         -3.6705   -0.2251    1.8481 N.pl3     1 GTP        -0.5398
     32 C4         -3.0303   -1.2785    1.2262 C.ar      1 GTP        -0.0275
     33 HOG3       -0.6472    9.0641   -0.4382 H         1 GTP         0.4161
     34 H5'        -1.1767    2.0502    0.6368 H         1 GTP         0.0348
     35 H5''       -0.2080    3.2814    1.4876 H         1 GTP         0.0348
     36 H4'         0.0403    1.7078    3.4343 H         1 GTP         0.1215
     37 H3'         1.5907    1.4859    1.1353 H         1 GTP         0.0576
     38 HO3'        2.6839   -0.1150    2.2479 H         1 GTP         0.3842
     39 H2'        -0.0017    0.0018    0.0005 H         1 GTP         0.0252
     40 HO2'        2.0953   -0.9375    0.0709 H         1 GTP         0.4224
     41 H1'        -0.1998   -1.6319    2.6178 H         1 GTP         0.0745
     42 H8         -0.6610   -3.2324    0.2653 H         1 GTP         0.1522
     43 HN1        -6.7487   -1.0139    0.7961 H         1 GTP         0.3518
     44 HN21       -5.2644    1.5388    2.8044 H         1 GTP         0.4761
     45 HN22       -6.7459    0.9078    2.1265 H         1 GTP         0.4761
     46 H46        -3.1807    0.4690    2.4089 H         1 GTP         0.5030
@<TRIPOS>BOND
     1    1    2 2
     2    1    3 1
     3    1    4 1
     4    1    5 1
     5    4   33 1
     6    5    6 1
     7    6    7 2
     8    6    8 1
     9    6    9 1
    10    9   10 1
    11   10   11 2
    12   10   12 1
    13   10   13 1
    14   13   14 1
    15   14   15 1
    16   14   34 1
    17   14   35 1
    18   15   16 1
    19   15   17 1
    20   15   36 1
    21   16   21 1
    22   17   18 1
    23   17   19 1
    24   17   37 1
    25   18   38 1
    26   19   20 1
    27   19   21 1
    28   19   39 1
    29   20   40 1
    30   21   22 1
    31   21   41 1
    32   22   23 ar
    33   22   32 ar
    34   23   24 ar
    35   23   42 1
    36   24   25 ar
    37   25   26 ar
    38   25   32 ar
    39   26   27 2
    40   26   28 ar
    41   28   29 ar
    42   28   43 1
    43   29   30 1
    44   29   31 ar
    45   30   44 1
    46   30   45 1
    47   31   32 ar
    48   31   46 1
@<TRIPOS>SUBSTRUCTURE
     1 GTP         1 GROUP 0 A     ****
@<TRIPOS>MOLECULE
[[[5-(2-amino-6-oxo-1,3-dihydropurin-2-ylium-9-yl)-3,4-dihydroxy-tetrahydrofuran-2-yl]methoxy-oxido-phosphoryl]oxy-oxido-phosphoryl] hydrogen phosphate
   46    48     1     0     0
SMALL
USER_CHARGES

@<TRIPOS>ATOM
      1 PG         -5.2577    6.8467   -0.1445 P.3       1 GTP         1.5400
      2 O1G        -6.3085    6.4200    0.8561 O.co2     1 GTP        -0.8909
      3 O2G        -4.9391    8.3093   -0.3611 O.co2     1 GTP        -0.8909
      4 O3G        -5.6137    6.1742   -1.5891 O.3       1 GTP        -0.7980
      5 O3B        -3.8712    6.0437    0.1663 O.3       1 GTP        -0.7612
      6 PB         -2.4753    6.0007   -0.6794 P.3       1 GTP         1.5847
      7 O1B        -2.7346    5.3287   -2.0093 O.co2     1 GTP        -0.8859
      8 O2B        -1.8046    7.3536   -0.5934 O.co2     1 GTP        -0.8859
      9 O3A        -1.6181    4.9968    0.2809 O.3       1 GTP        -0.7486
     10 PA         -0.0889    4.4444    0.1193 P.3       1 GTP         1.5001
     11 O1A        -0.0111    3.5842   -1.1233 O.co2     1 GTP        -0.8487
     12 O2A         0.8677    5.5971    0.3340 O.co2     1 GTP        -0.8487
     13 O5'         0.0178    3.5131    1.4595 O.3       1 GTP        -0.5474
     14 C5'        -0.8811    2.4285    1.6206 C.3       1 GTP         0.2547
     15 C4'        -0.1994    1.3333    2.4288 C.3       1 GTP         0.0926
     16 O4'        -1.1285    0.2356    2.5840 O.3       1 GTP        -0.3593
     17 C3'         1.0324    0.7610    1.7344 C.3       1 GTP         0.0907
     18 O3'         1.9175    0.2377    2.7247 O.3       1 GTP        -0.5209
     19 C2'         0.4468   -0.3802    0.9263 C.3       1 GTP         0.0305
     20 O2'         1.3993   -1.3703    0.5961 O.3       1 GTP        -0.5978
     21 C1'        -0.6159   -0.9100    1.8769 C.3       1 GTP         0.2339
     22 N9         -1.7127   -1.6108    1.2130 N.pl3     1 GTP        -0.1765
     23 C8         -1.6092   -2.7449    0.4467 C.ar      1 GTP         0.4947
     24 N7         -2.7778   -3.1416   -0.0191 N.2       1 GTP        -0.5802
     25 C5         -3.6725   -2.2253    0.4675 C.ar      1 GTP         0.2279
     26 C6         -5.0932   -2.2202    0.2371 C.ar      1 GTP         0.6513
     27 O6         -5.6933   -3.0474   -0.4337 O.2       1 GTP        -0.5111
     28 N1         -5.7390   -1.1061    0.8992 N.pl3     1 GTP        -0.4713
     29 C2         -5.0661   -0.1368    1.6789 C.ar      1 GTP         0.5256
     30 N2         -5.7774    0.8934    2.2749 N.pl3     1 GTP        -0.8665
     31 N3         -3.6705   -0.2251    1.8481 N.pl3     1 GTP        -0.5398
     32 C4         -3.0303   -1.2785    1.2262 C.ar      1 GTP        -0.0275
     33 HOG3       -5.0203    6.3576   -2.3485 H         1 GTP         0.4161
     34 H5'        -1.7771    2.7849    2.1387 H         1 GTP         0.0348
     35 H5''       -1.1654    2.0541    0.6320 H         1 GTP         0.0348
     36 H4'         0.0403    1.7078    3.4343 H         1 GTP         0.1215
     37 H3'         1.5907    1.4859    1.1353 H         1 GTP         0.0576
     38 HO3'        2.6839   -0.1150    2.2479 H         1 GTP         0.3842
     39 H2'        -0.0017    0.0018    0.0005 H         1 GTP         0.0252
     40 HO2'        2.0953   -0.9375    0.0709 H         1 GTP         0.4224
     41 H1'        -0.1998   -1.6319    2.6178 H         1 GTP         0.0745
     42 H8         -0.6610   -3.2324    0.2653 H         1 GTP         0.1522
     43 HN1        -6.7487   -1.0139    0.7961 H         1 GTP         0.3518
     44 HN21       -5.2644    1.5388    2.8044 H         1 GTP         0.4761
     45 HN22       -6.7459    0.9078    2.1265 H         1 GTP         0.4761
     46 H46        -3.1807    0.4690    2.4089 H         1 GTP         0.5030
@<TRIPOS>BOND
     1    1    2 2
     2    1    3 1
     3    1    4 1
     4    1    5 1
     5    4   33 1
     6    5    6 1
     7    6    7 2
     8    6    8 1
     9    6    9 1
    10    9   10 1
    11   10   11 2
    12   10   12 1
    13   10   13 1
    14   13   14 1
    15   14   15 1
    16   14   34 1
    17   14   35 1
    18   15   16 1
    19   15   17 1
    20   15   36 1
    21   16   21 1
    22   17   18 1
    23   17   19 1
    24   17   37 1
    25   18   38 1
    26   19   20 1
    27   19   21 1
    28   19   39 1
    29   20   40 1
    30   21   22 1
    31   21   41 1
    32   22   23 ar
    33   22   32 ar
    34   23   24 ar
    35   23   42 1
    36   24   25 ar
    37   25   26 ar
    38   25   32 ar
    39   26   27 2
    40   26   28 ar
    41   28   29 ar
    42   28   43 1
    43   29   30 1
    44   29   31 ar
    45   30   44 1
    46   30   45 1
    47   31   32 ar
    48   31   46 1
@<TRIPOS>SUBSTRUCTURE
     1 GTP         1 GROUP 0 A     ****
@<TRIPOS>MOLECULE
[[[5-(2-amino-6-oxo-1,3-dihydropurin-2-ylium-9-yl)-3,4-dihydroxy-tetrahydrofuran-2-yl]methoxy-oxido-phosphoryl]oxy-oxido-phosphoryl] hydrogen phosphate
   46    48     1     0     0
SMALL
USER_CHARGES

@<TRIPOS>ATOM
      1 PG         -5.2577    6.8467   -0.1445 P.3       1 GTP         1.5400
      2 O1G        -5.7155    6.5138   -1.5470 O.co2     1 GTP        -0.8909
      3 O2G        -6.1906    6.6890    1.0356 O.co2     1 GTP        -0.8909
      4 O3G        -4.6676    8.3691   -0.1391 O.3       1 GTP        -0.7980
      5 O3B        -3.8712    6.0437    0.1663 O.3       1 GTP        -0.7612
      6 PB         -2.4753    6.0007   -0.6794 P.3       1 GTP         1.5847
      7 O1B        -2.7346    5.3287   -2.0093 O.co2     1 GTP        -0.8859
      8 O2B        -1.8046    7.3536   -0.5934 O.co2     1 GTP        -0.8859
      9 O3A        -1.6181    4.9968    0.2809 O.3       1 GTP        -0.7486
     10 PA         -0.0889    4.4444    0.1193 P.3       1 GTP         1.5001
     11 O1A        -0.0111    3.5842   -1.1233 O.co2     1 GTP        -0.8487
     12 O2A         0.8677    5.5971    0.3340 O.co2     1 GTP        -0.8487
     13 O5'         0.0178    3.5131    1.4595 O.3       1 GTP        -0.5474
     14 C5'        -0.8811    2.4285    1.6206 C.3       1 GTP         0.2547
     15 C4'        -0.1994    1.3333    2.4288 C.3       1 GTP         0.0926
     16 O4'        -1.1285    0.2356    2.5840 O.3       1 GTP        -0.3593
     17 C3'         1.0324    0.7610    1.7344 C.3       1 GTP         0.0907
     18 O3'         1.9175    0.2377    2.7247 O.3       1 GTP        -0.5209
     19 C2'         0.4468   -0.3802    0.9263 C.3       1 GTP         0.0305
     20 O2'         1.3993   -1.3703    0.5961 O.3       1 GTP        -0.5978
     21 C1'        -0.6159   -0.9100    1.8769 C.3       1 GTP         0.2339
     22 N9         -1.7127   -1.6108    1.2130 N.pl3     1 GTP        -0.1765
     23 C8         -3.0389   -1.2578    1.2391 C.ar      1 GTP         0.4947
     24 N7         -3.7909   -2.0880    0.5425 N.2       1 GTP        -0.5802
     25 C5         -2.9127   -3.0150    0.0458 C.ar      1 GTP         0.2279
     26 C6         -3.2467   -4.1411   -0.7860 C.ar      1 GTP         0.6513
     27 O6         -4.3761   -4.4189   -1.1621 O.2       1 GTP        -0.5111
     28 N1         -2.0748   -4.9191   -1.1296 N.pl3     1 GTP        -0.4713
     29 C2         -0.7595   -4.6181   -0.7058 C.ar      1 GTP         0.5256
     30 N2          0.2985   -5.4268   -1.0920 N.pl3     1 GTP        -0.8665
     31 N3         -0.5304   -3.4919    0.1084 N.pl3     1 GTP        -0.5398
     32 C4         -1.6318   -2.7332    0.4512 C.ar      1 GTP        -0.0275
     33 HOG3       -4.3279    8.7352    0.7052 H         1 GTP         0.4161
     34 H5'        -1.7771    2.7849    2.1387 H         1 GTP         0.0348
     35 H5''       -1.1654    2.0541    0.6320 H         1 GTP         0.0348
     36 H4'         0.0403    1.7078    3.4343 H         1 GTP         0.1215
     37 H3'         1.5907    1.4859    1.1353 H         1 GTP         0.0576
     38 HO3'        2.6839   -0.1150    2.2479 H         1 GTP         0.3842
     39 H2'        -0.0017    0.0018    0.0005 H         1 GTP         0.0252
     40 HO2'        2.0953   -0.9375    0.0709 H         1 GTP         0.4224
     41 H1'        -0.1998   -1.6319    2.6178 H         1 GTP         0.0745
     42 H8         -3.3933   -0.3909    1.7800 H         1 GTP         0.1522
     43 HN1        -2.2071   -5.7408   -1.7178 H         1 GTP         0.3518
     44 HN21        1.1896   -5.1751   -0.7715 H         1 GTP         0.4761
     45 HN22        0.0846   -6.1966   -1.6593 H         1 GTP         0.4761
     46 H46         0.4142   -3.2695    0.4160 H         1 GTP         0.5030
@<TRIPOS>BOND
     1    1    2 2
     2    1    3 1
     3    1    4 1
     4    1    5 1
     5    4   33 1
     6    5    6 1
     7    6    7 2
     8    6    8 1
     9    6    9 1
    10    9   10 1
    11   10   11 2
    12   10   12 1
    13   10   13 1
    14   13   14 1
    15   14   15 1
    16   14   34 1
    17   14   35 1
    18   15   16 1
    19   15   17 1
    20   15   36 1
    21   16   21 1
    22   17   18 1
    23   17   19 1
    24   17   37 1
    25   18   38 1
    26   19   20 1
    27   19   21 1
    28   19   39 1
    29   20   40 1
    30   21   22 1
    31   21   41 1
    32   22   23 ar
    33   22   32 ar
    34   23   24 ar
    35   23   42 1
    36   24   25 ar
    37   25   26 ar
    38   25   32 ar
    39   26   27 2
    40   26   28 ar
    41   28   29 ar
    42   28   43 1
    43   29   30 1
    44   29   31 ar
    45   30   44 1
    46   30   45 1
    47   31   32 ar
    48   31   46 1
@<TRIPOS>SUBSTRUCTURE
     1 GTP         1 GROUP 0 A     ****
@<TRIPOS>MOLECULE
[[[5-(2-amino-6-oxo-1,3-dihydropurin-2-ylium-9-yl)-3,4-dihydroxy-tetrahydrofuran-2-yl]methoxy-oxido-phosphoryl]oxy-oxido-phosphoryl] hydrogen phosphate
   46    48     1     0     0
SMALL
USER_CHARGES

@<TRIPOS>ATOM
      1 PG          5.8958    1.1474   -4.5160 P.3       1 GTP         1.5400
      2 O1G         6.8562   -0.0197   -4.4645 O.co2     1 GTP        -0.8909
      3 O2G         4.6439    1.1619   -3.6672 O.co2     1 GTP        -0.8909
      4 O3G         5.4702    1.4008   -6.0718 O.3       1 GTP        -0.7980
      5 O3B         6.7251    2.5295   -4.2590 O.3       1 GTP        -0.7612
      6 PB          7.4897    3.0561   -2.9160 P.3       1 GTP         1.5847
      7 O1B         8.4695    1.9945   -2.4681 O.co2     1 GTP        -0.8859
      8 O2B         7.9178    4.4919   -3.1231 O.co2     1 GTP        -0.8859
      9 O3A         6.2205    3.0945   -1.8901 O.3       1 GTP        -0.7486
     10 PA          6.1593    3.5241   -0.3148 P.3       1 GTP         1.5001
     11 O1A         6.9868    2.5446    0.4891 O.co2     1 GTP        -0.8487
     12 O2A         6.3923    5.0155   -0.2101 O.co2     1 GTP        -0.8487
     13 O5'         4.5670    3.2937   -0.0211 O.3       1 GTP        -0.5474
     14 C5'         4.0922    1.9801    0.2227 C.3       1 GTP         0.2547
     15 C4'         2.5944    2.0310    0.4653 C.3       1 GTP         0.0926
     16 O4'         1.9327    2.5740   -0.6889 O.3       1 GTP        -0.3593
     17 C3'         1.9685    0.6634    0.6767 C.3       1 GTP         0.0907
     18 O3'         2.1425    0.1975    1.9977 O.3       1 GTP        -0.5209
     19 C2'         0.5176    0.9128    0.3099 C.3       1 GTP         0.0305
     20 O2'        -0.2103    1.4454    1.4152 O.3       1 GTP        -0.5978
     21 C1'         0.6219    1.9765   -0.7844 C.3       1 GTP         0.2339
     22 N9          0.4237    1.4496   -2.1357 N.pl3     1 GTP        -0.1765
     23 C8          1.1824    0.4874   -2.7540 C.ar      1 GTP         0.4947
     24 N7          0.7559    0.2220   -3.9737 N.2       1 GTP        -0.5802
     25 C5         -0.3234    1.0475   -4.1492 C.ar      1 GTP         0.2279
     26 C6         -1.1420    1.1360   -5.3297 C.ar      1 GTP         0.6513
     27 O6         -0.9760    0.4743   -6.3440 O.2       1 GTP        -0.5111
     28 N1         -2.1989    2.1138   -5.1762 N.pl3     1 GTP        -0.4713
     29 C2         -2.4100    2.8911   -4.0137 C.ar      1 GTP         0.5256
     30 N2         -3.4547    3.8016   -3.9653 N.pl3     1 GTP        -0.8665
     31 N3         -1.5548    2.7339   -2.9056 N.pl3     1 GTP        -0.5398
     32 C4         -0.5379    1.8078   -3.0266 C.ar      1 GTP        -0.0275
     33 HOG3        4.8461    2.1305   -6.2723 H         1 GTP         0.4161
     34 H5'         4.3179    1.3548   -0.6470 H         1 GTP         0.0348
     35 H5''        4.6083    1.5737    1.0983 H         1 GTP         0.0348
     36 H4'         2.3752    2.7029    1.3156 H         1 GTP         0.1215
     37 H3'         2.4336   -0.1217   -0.0015 H         1 GTP         0.0576
     38 HO3'        1.7160   -0.6716    2.0397 H         1 GTP         0.3842
     39 H2'         0.0316    0.0155   -0.0339 H         1 GTP         0.0252
     40 HO2'       -0.1608    0.7921    2.1351 H         1 GTP         0.4224
     41 H1'        -0.1474    2.7798   -0.6651 H         1 GTP         0.0745
     42 H8          2.0279    0.0203   -2.2675 H         1 GTP         0.1522
     43 HN1        -2.8350    2.2514   -5.9606 H         1 GTP         0.3518
     44 HN21       -3.5576    4.3154   -3.1374 H         1 GTP         0.4761
     45 HN22       -4.0202    3.8709   -4.7625 H         1 GTP         0.4761
     46 H46        -1.7022    3.2899   -2.0658 H         1 GTP         0.5030
@<TRIPOS>BOND
     1    1    2 2
     2    1    3 1
     3    1    4 1
     4    1    5 1
     5    4   33 1
     6    5    6 1
     7    6    7 2
     8    6    8 1
     9    6    9 1
    10    9   10 1
    11   10   11 2
    12   10   12 1
    13   10   13 1
    14   13   14 1
    15   14   15 1
    16   14   34 1
    17   14   35 1
    18   15   16 1
    19   15   17 1
    20   15   36 1
    21   16   21 1
    22   17   18 1
    23   17   19 1
    24   17   37 1
    25   18   38 1
    26   19   20 1
    27   19   21 1
    28   19   39 1
    29   20   40 1
    30   21   22 1
    31   21   41 1
    32   22   23 ar
    33   22   32 ar
    34   23   24 ar
    35   23   42 1
    36   24   25 ar
    37   25   26 ar
    38   25   32 ar
    39   26   27 2
    40   26   28 ar
    41   28   29 ar
    42   28   43 1
    43   29   30 1
    44   29   31 ar
    45   30   44 1
    46   30   45 1
    47   31   32 ar
    48   31   46 1
@<TRIPOS>SUBSTRUCTURE
     1 GTP         1 GROUP 0 A     ****
@<TRIPOS>MOLECULE
[[[5-(2-amino-6-oxo-1,3-dihydropurin-2-ylium-9-yl)-3,4-dihydroxy-tetrahydrofuran-2-yl]methoxy-oxido-phosphoryl]oxy-oxido-phosphoryl] hydrogen phosphate
   46    48     1     0     0
SMALL
USER_CHARGES

@<TRIPOS>ATOM
      1 PG         -6.9141    4.7475    1.4963 P.3       1 GTP         1.5400
      2 O1G        -7.9174    4.4342    0.4088 O.co2     1 GTP        -0.8909
      3 O2G        -7.2172    4.4391    2.9457 O.co2     1 GTP        -0.8909
      4 O3G        -6.4952    6.3212    1.3778 O.3       1 GTP        -0.7980
      5 O3B        -5.4779    4.0797    1.1026 O.3       1 GTP        -0.7612
      6 PB         -4.5985    4.2215   -0.2657 P.3       1 GTP         1.5847
      7 O1B        -5.3674    3.5885   -1.4040 O.co2     1 GTP        -0.8859
      8 O2B        -4.0596    5.6314   -0.3618 O.co2     1 GTP        -0.8859
      9 O3A        -3.3350    3.2688    0.1351 O.3       1 GTP        -0.7486
     10 PA         -1.9976    2.8867   -0.7222 P.3       1 GTP         1.5001
     11 O1A        -2.4126    2.0977   -1.9452 O.co2     1 GTP        -0.8487
     12 O2A        -1.1315    4.1214   -0.8447 O.co2     1 GTP        -0.8487
     13 O5'        -1.2434    1.9104    0.3515 O.3       1 GTP        -0.5474
     14 C5'        -0.8811    2.4285    1.6206 C.3       1 GTP         0.2547
     15 C4'        -0.1994    1.3333    2.4288 C.3       1 GTP         0.0926
     16 O4'        -1.1285    0.2356    2.5840 O.3       1 GTP        -0.3593
     17 C3'         1.0324    0.7610    1.7344 C.3       1 GTP         0.0907
     18 O3'         1.9175    0.2377    2.7247 O.3       1 GTP        -0.5209
     19 C2'         0.4468   -0.3802    0.9263 C.3       1 GTP         0.0305
     20 O2'         1.3993   -1.3703    0.5961 O.3       1 GTP        -0.5978
     21 C1'        -0.6159   -0.9100    1.8769 C.3       1 GTP         0.2339
     22 N9         -1.7127   -1.6108    1.2130 N.pl3     1 GTP        -0.1765
     23 C8         -2.8692   -1.0463    0.7355 C.ar      1 GTP         0.4947
     24 N7         -3.6707   -1.9381    0.1856 N.2       1 GTP        -0.5802
     25 C5         -3.0027   -3.1275    0.3134 C.ar      1 GTP         0.2279
     26 C6         -3.4659   -4.4142   -0.1355 C.ar      1 GTP         0.6513
     27 O6         -4.5328   -4.6133   -0.6980 O.2       1 GTP        -0.5111
     28 N1         -2.5102   -5.4606    0.1612 N.pl3     1 GTP        -0.4713
     29 C2         -1.2711   -5.2547    0.8113 C.ar      1 GTP         0.5256
     30 N2         -0.4228   -6.3256    1.0482 N.pl3     1 GTP        -0.8665
     31 N3         -0.9033   -3.9563    1.2146 N.pl3     1 GTP        -0.5398
     32 C4         -1.7979   -2.9400    0.9438 C.ar      1 GTP        -0.0275
     33 HOG3       -5.8460    6.6811    2.0192 H         1 GTP         0.4161
     34 H5'        -0.2033    3.2760    1.4769 H         1 GTP         0.0348
     35 H5''       -1.7841    2.7762    2.1323 H         1 GTP         0.0348
     36 H4'         0.0403    1.7078    3.4343 H         1 GTP         0.1215
     37 H3'         1.5907    1.4859    1.1353 H         1 GTP         0.0576
     38 HO3'        2.6839   -0.1150    2.2479 H         1 GTP         0.3842
     39 H2'        -0.0017    0.0018    0.0005 H         1 GTP         0.0252
     40 HO2'        2.0953   -0.9375    0.0709 H         1 GTP         0.4224
     41 H1'        -0.1998   -1.6319    2.6178 H         1 GTP         0.0745
     42 H8         -3.0691    0.0134    0.8177 H         1 GTP         0.1522
     43 HN1        -2.7468   -6.4119   -0.1177 H         1 GTP         0.3518
     44 HN21        0.4233   -6.1297    1.5018 H         1 GTP         0.4761
     45 HN22       -0.7261   -7.2071    0.7466 H         1 GTP         0.4761
     46 H46        -0.0124   -3.8015    1.6821 H         1 GTP         0.5030
@<TRIPOS>BOND
     1    1    2 2
     2    1    3 1
     3    1    4 1
     4    1    5 1
     5    4   33 1
     6    5    6 1
     7    6    7 2
     8    6    8 1
     9    6    9 1
    10    9   10 1
    11   10   11 2
    12   10   12 1
    13   10   13 1
    14   13   14 1
    15   14   15 1
    16   14   34 1
    17   14   35 1
    18   15   16 1
    19   15   17 1
    20   15   36 1
    21   16   21 1
    22   17   18 1
    23   17   19 1
    24   17   37 1
    25   18   38 1
    26   19   20 1
    27   19   21 1
    28   19   39 1
    29   20   40 1
    30   21   22 1
    31   21   41 1
    32   22   23 ar
    33   22   32 ar
    34   23   24 ar
    35   23   42 1
    36   24   25 ar
    37   25   26 ar
    38   25   32 ar
    39   26   27 2
    40   26   28 ar
    41   28   29 ar
    42   28   43 1
    43   29   30 1
    44   29   31 ar
    45   30   44 1
    46   30   45 1
    47   31   32 ar
    48   31   46 1
@<TRIPOS>SUBSTRUCTURE
     1 GTP         1 GROUP 0 A     ****
@<TRIPOS>MOLECULE
[[[5-(2-amino-6-oxo-1,3-dihydropurin-2-ylium-9-yl)-3,4-dihydroxy-tetrahydrofuran-2-yl]methoxy-oxido-phosphoryl]oxy-oxido-phosphoryl] hydrogen phosphate
   46    48     1     0     0
SMALL
USER_CHARGES

@<TRIPOS>ATOM
      1 PG         -6.4651    2.3631   -1.4325 P.3       1 GTP         1.5400
      2 O1G        -7.7150    2.9655   -0.8305 O.co2     1 GTP        -0.8909
      3 O2G        -6.1429    2.5457   -2.8990 O.co2     1 GTP        -0.8909
      4 O3G        -6.4429    0.7664   -1.0917 O.3       1 GTP        -0.7980
      5 O3B        -5.1740    2.8224   -0.5460 O.3       1 GTP        -0.7612
      6 PB         -4.5154    4.3030   -0.3467 P.3       1 GTP         1.5847
      7 O1B        -3.9508    4.7648   -1.6716 O.co2     1 GTP        -0.8859
      8 O2B        -5.4696    5.1640    0.4507 O.co2     1 GTP        -0.8859
      9 O3A        -3.2920    3.9119    0.6609 O.3       1 GTP        -0.7486
     10 PA         -3.3347    3.2338    2.1468 P.3       1 GTP         1.5001
     11 O1A        -4.0274    4.1866    3.0968 O.co2     1 GTP        -0.8487
     12 O2A        -3.7889    1.7968    2.0106 O.co2     1 GTP        -0.8487
     13 O5'        -1.7336    3.1724    2.4750 O.3       1 GTP        -0.5474
     14 C5'        -0.8811    2.4285    1.6206 C.3       1 GTP         0.2547
     15 C4'        -0.1994    1.3333    2.4288 C.3       1 GTP         0.0926
     16 O4'        -1.1285    0.2356    2.5840 O.3       1 GTP        -0.3593
     17 C3'         1.0324    0.7610    1.7344 C.3       1 GTP         0.0907
     18 O3'         1.9175    0.2377    2.7247 O.3       1 GTP        -0.5209
     19 C2'         0.4468   -0.3802    0.9263 C.3       1 GTP         0.0305
     20 O2'         1.3993   -1.3703    0.5961 O.3       1 GTP        -0.5978
     21 C1'        -0.6159   -0.9100    1.8769 C.3       1 GTP         0.2339
     22 N9         -1.7127   -1.6108    1.2130 N.pl3     1 GTP        -0.1765
     23 C8         -1.6311   -2.3341    0.0493 C.ar      1 GTP         0.4947
     24 N7         -2.7933   -2.8506   -0.3007 N.2       1 GTP        -0.5802
     25 C5         -3.6607   -2.4436    0.6786 C.ar      1 GTP         0.2279
     26 C6         -5.0651   -2.7506    0.7505 C.ar      1 GTP         0.6513
     27 O6         -5.6735   -3.4256   -0.0671 O.2       1 GTP        -0.5111
     28 N1         -5.6834   -2.1585    1.9182 N.pl3     1 GTP        -0.4713
     29 C2         -5.0007   -1.3738    2.8765 C.ar      1 GTP         0.5256
     30 N2         -5.6847   -0.8521    3.9640 N.pl3     1 GTP        -0.8665
     31 N3         -3.6227   -1.1271    2.7212 N.pl3     1 GTP        -0.5398
     32 C4         -3.0090   -1.6802    1.6149 C.ar      1 GTP        -0.0275
     33 HOG3       -5.6886    0.2301   -1.4168 H         1 GTP         0.4161
     34 H5'        -1.4800    1.9927    0.8146 H         1 GTP         0.0348
     35 H5''       -0.1367    3.1040    1.1872 H         1 GTP         0.0348
     36 H4'         0.0403    1.7078    3.4343 H         1 GTP         0.1215
     37 H3'         1.5907    1.4859    1.1353 H         1 GTP         0.0576
     38 HO3'        2.6839   -0.1150    2.2479 H         1 GTP         0.3842
     39 H2'        -0.0017    0.0018    0.0005 H         1 GTP         0.0252
     40 HO2'        2.0953   -0.9375    0.0709 H         1 GTP         0.4224
     41 H1'        -0.1998   -1.6319    2.6178 H         1 GTP         0.0745
     42 H8         -0.7029   -2.4474   -0.4941 H         1 GTP         0.1522
     43 HN1        -6.6800   -2.3183    2.0594 H         1 GTP         0.3518
     44 HN21       -5.1660   -0.3153    4.5987 H         1 GTP         0.4761
     45 HN22       -6.6415   -1.0545    4.0252 H         1 GTP         0.4761
     46 H46        -3.1256   -0.5638    3.4080 H         1 GTP         0.5030
@<TRIPOS>BOND
     1    1    2 2
     2    1    3 1
     3    1    4 1
     4    1    5 1
     5    4   33 1
     6    5    6 1
     7    6    7 2
     8    6    8 1
     9    6    9 1
    10    9   10 1
    11   10   11 2
    12   10   12 1
    13   10   13 1
    14   13   14 1
    15   14   15 1
    16   14   34 1
    17   14   35 1
    18   15   16 1
    19   15   17 1
    20   15   36 1
    21   16   21 1
    22   17   18 1
    23   17   19 1
    24   17   37 1
    25   18   38 1
    26   19   20 1
    27   19   21 1
    28   19   39 1
    29   20   40 1
    30   21   22 1
    31   21   41 1
    32   22   23 ar
    33   22   32 ar
    34   23   24 ar
    35   23   42 1
    36   24   25 ar
    37   25   26 ar
    38   25   32 ar
    39   26   27 2
    40   26   28 ar
    41   28   29 ar
    42   28   43 1
    43   29   30 1
    44   29   31 ar
    45   30   44 1
    46   30   45 1
    47   31   32 ar
    48   31   46 1
@<TRIPOS>SUBSTRUCTURE
     1 GTP         1 GROUP 0 A     ****
@<TRIPOS>MOLECULE
[[[5-(2-amino-6-oxo-1,3-dihydropurin-2-ylium-9-yl)-3,4-dihydroxy-tetrahydrofuran-2-yl]methoxy-oxido-phosphoryl]oxy-oxido-phosphoryl] hydrogen phosphate
   46    48     1     0     0
SMALL
USER_CHARGES

@<TRIPOS>ATOM
      1 PG          6.2736    1.1168   -3.9661 P.3       1 GTP         1.5400
      2 O1G         6.9912    0.4538   -2.8116 O.co2     1 GTP        -0.8909
      3 O2G         4.8488    0.7455   -4.3120 O.co2     1 GTP        -0.8909
      4 O3G         7.1910    0.9574   -5.3073 O.3       1 GTP        -0.7980
      5 O3B         6.3707    2.7367   -3.7920 O.3       1 GTP        -0.7612
      6 PB          5.7089    3.7084   -2.6591 P.3       1 GTP         1.5847
      7 O1B         6.2198    5.1163   -2.8696 O.co2     1 GTP        -0.8859
      8 O2B         4.2297    3.4100   -2.5563 O.co2     1 GTP        -0.8859
      9 O3A         6.4041    3.0694   -1.3275 O.3       1 GTP        -0.7486
     10 PA          6.2486    3.4952    0.2423 P.3       1 GTP         1.5001
     11 O1A         7.0221    2.5106    1.0923 O.co2     1 GTP        -0.8487
     12 O2A         6.4800    4.9855    0.3652 O.co2     1 GTP        -0.8487
     13 O5'         4.6405    3.2699    0.4378 O.3       1 GTP        -0.5474
     14 C5'         4.0922    1.9801    0.2227 C.3       1 GTP         0.2547
     15 C4'         2.5944    2.0310    0.4653 C.3       1 GTP         0.0926
     16 O4'         1.9327    2.5740   -0.6889 O.3       1 GTP        -0.3593
     17 C3'         1.9685    0.6634    0.6767 C.3       1 GTP         0.0907
     18 O3'         2.1425    0.1975    1.9977 O.3       1 GTP        -0.5209
     19 C2'         0.5176    0.9128    0.3099 C.3       1 GTP         0.0305
     20 O2'        -0.2103    1.4454    1.4152 O.3       1 GTP        -0.5978
     21 C1'         0.6219    1.9765   -0.7844 C.3       1 GTP         0.2339
     22 N9          0.4237    1.4496   -2.1357 N.pl3     1 GTP        -0.1765
     23 C8          1.3988    0.9691   -2.9736 C.ar      1 GTP         0.4947
     24 N7          0.9092    0.5634   -4.1293 N.2       1 GTP        -0.5802
     25 C5         -0.4383    0.7914   -4.0325 C.ar      1 GTP         0.2279
     26 C6         -1.4217    0.5138   -5.0461 C.ar      1 GTP         0.6513
     27 O6         -1.1759    0.0306   -6.1417 O.2       1 GTP        -0.5111
     28 N1         -2.7543    0.8794   -4.6134 N.pl3     1 GTP        -0.4713
     29 C2         -3.0626    1.4402   -3.3523 C.ar      1 GTP         0.5256
     30 N2         -4.3747    1.7544   -3.0321 N.pl3     1 GTP        -0.8665
     31 N3         -2.0304    1.6759   -2.4233 N.pl3     1 GTP        -0.5398
     32 C4         -0.7497    1.3366   -2.8118 C.ar      1 GTP        -0.0275
     33 HOG3        6.8593    1.3389   -6.1480 H         1 GTP         0.4161
     34 H5'         4.3028    1.6728   -0.8066 H         1 GTP         0.0348
     35 H5''        4.5677    1.2738    0.9106 H         1 GTP         0.0348
     36 H4'         2.3752    2.7029    1.3156 H         1 GTP         0.1215
     37 H3'         2.4336   -0.1217   -0.0015 H         1 GTP         0.0576
     38 HO3'        1.7160   -0.6716    2.0397 H         1 GTP         0.3842
     39 H2'         0.0316    0.0155   -0.0339 H         1 GTP         0.0252
     40 HO2'       -0.1608    0.7921    2.1351 H         1 GTP         0.4224
     41 H1'        -0.1474    2.7798   -0.6651 H         1 GTP         0.0745
     42 H8          2.4413    0.9409   -2.6872 H         1 GTP         0.1522
     43 HN1        -3.5236    0.7214   -5.2629 H         1 GTP         0.3518
     44 HN21       -4.5350    2.1409   -2.1461 H         1 GTP         0.4761
     45 HN22       -5.0542    1.5695   -3.7134 H         1 GTP         0.4761
     46 H46        -2.2462    2.0786   -1.5136 H         1 GTP         0.5030
@<TRIPOS>BOND
     1    1    2 2
     2    1    3 1
     3    1    4 1
     4    1    5 1
     5    4   33 1
     6    5    6 1
     7    6    7 2
     8    6    8 1
     9    6    9 1
    10    9   10 1
    11   10   11 2
    12   10   12 1
    13   10   13 1
    14   13   14 1
    15   14   15 1
    16   14   34 1
    17   14   35 1
    18   15   16 1
    19   15   17 1
    20   15   36 1
    21   16   21 1
    22   17   18 1
    23   17   19 1
    24   17   37 1
    25   18   38 1
    26   19   20 1
    27   19   21 1
    28   19   39 1
    29   20   40 1
    30   21   22 1
    31   21   41 1
    32   22   23 ar
    33   22   32 ar
    34   23   24 ar
    35   23   42 1
    36   24   25 ar
    37   25   26 ar
    38   25   32 ar
    39   26   27 2
    40   26   28 ar
    41   28   29 ar
    42   28   43 1
    43   29   30 1
    44   29   31 ar
    45   30   44 1
    46   30   45 1
    47   31   32 ar
    48   31   46 1
@<TRIPOS>SUBSTRUCTURE
     1 GTP         1 GROUP 0 A     ****
@<TRIPOS>MOLECULE
[[[5-(2-amino-6-oxo-1,3-dihydropurin-2-ylium-9-yl)-3,4-dihydroxy-tetrahydrofuran-2-yl]methoxy-oxido-phosphoryl]oxy-oxido-phosphoryl] hydrogen phosphate
   46    48     1     0     0
SMALL
USER_CHARGES

@<TRIPOS>ATOM
      1 PG         -0.8955    3.4464   -4.6620 P.3       1 GTP         1.5400
      2 O1G        -0.1060    2.2039   -5.0089 O.co2     1 GTP        -0.8909
      3 O2G        -2.3139    3.6288   -5.1544 O.co2     1 GTP        -0.8909
      4 O3G        -0.0224    4.7548   -5.1001 O.3       1 GTP        -0.7980
      5 O3B        -0.8655    3.6604   -3.0443 O.3       1 GTP        -0.7612
      6 PB         -1.4165    4.9058   -2.1436 P.3       1 GTP         1.5847
      7 O1B        -0.5984    6.1363   -2.4657 O.co2     1 GTP        -0.8859
      8 O2B        -2.9279    4.9232   -2.1981 O.co2     1 GTP        -0.8859
      9 O3A        -1.0127    4.3553   -0.6607 O.3       1 GTP        -0.7486
     10 PA          0.4528    3.9705   -0.0493 P.3       1 GTP         1.5001
     11 O1A         1.0046    2.7881   -0.8159 O.co2     1 GTP        -0.8487
     12 O2A         1.2580    5.2411    0.1148 O.co2     1 GTP        -0.8487
     13 O5'         0.0178    3.5131    1.4595 O.3       1 GTP        -0.5474
     14 C5'        -0.8811    2.4285    1.6206 C.3       1 GTP         0.2547
     15 C4'        -0.1994    1.3333    2.4288 C.3       1 GTP         0.0926
     16 O4'        -1.1285    0.2356    2.5840 O.3       1 GTP        -0.3593
     17 C3'         1.0324    0.7610    1.7344 C.3       1 GTP         0.0907
     18 O3'         1.9175    0.2377    2.7247 O.3       1 GTP        -0.5209
     19 C2'         0.4468   -0.3802    0.9263 C.3       1 GTP         0.0305
     20 O2'         1.3993   -1.3703    0.5961 O.3       1 GTP        -0.5978
     21 C1'        -0.6159   -0.9100    1.8769 C.3       1 GTP         0.2339
     22 N9         -1.7127   -1.6108    1.2130 N.pl3     1 GTP        -0.1765
     23 C8         -2.8692   -1.0463    0.7355 C.ar      1 GTP         0.4947
     24 N7         -3.6707   -1.9381    0.1856 N.2       1 GTP        -0.5802
     25 C5         -3.0027   -3.1275    0.3134 C.ar      1 GTP         0.2279
     26 C6         -3.4659   -4.4142   -0.1355 C.ar      1 GTP         0.6513
     27 O6         -4.5328   -4.6133   -0.6980 O.2       1 GTP        -0.5111
     28 N1         -2.5102   -5.4606    0.1612 N.pl3     1 GTP        -0.4713
     29 C2         -1.2711   -5.2547    0.8113 C.ar      1 GTP         0.5256
     30 N2         -0.4228   -6.3256    1.0482 N.pl3     1 GTP        -0.8665
     31 N3         -0.9033   -3.9563    1.2146 N.pl3     1 GTP        -0.5398
     32 C4         -1.7979   -2.9400    0.9438 C.ar      1 GTP        -0.0275
     33 HOG3       -0.4022    5.6448   -4.9392 H         1 GTP         0.4161
     34 H5'        -1.7771    2.7849    2.1387 H         1 GTP         0.0348
     35 H5''       -1.1654    2.0541    0.6320 H         1 GTP         0.0348
     36 H4'         0.0403    1.7078    3.4343 H         1 GTP         0.1215
     37 H3'         1.5907    1.4859    1.1353 H         1 GTP         0.0576
     38 HO3'        2.6839   -0.1150    2.2479 H         1 GTP         0.3842
     39 H2'        -0.0017    0.0018    0.0005 H         1 GTP         0.0252
     40 HO2'        2.0953   -0.9375    0.0709 H         1 GTP         0.4224
     41 H1'        -0.1998   -1.6319    2.6178 H         1 GTP         0.0745
     42 H8         -3.0691    0.0134    0.8177 H         1 GTP         0.1522
     43 HN1        -2.7468   -6.4119   -0.1177 H         1 GTP         0.3518
     44 HN21        0.4233   -6.1297    1.5018 H         1 GTP         0.4761
     45 HN22       -0.7261   -7.2071    0.7466 H         1 GTP         0.4761
     46 H46        -0.0124   -3.8015    1.6821 H         1 GTP         0.5030
@<TRIPOS>BOND
     1    1    2 2
     2    1    3 1
     3    1    4 1
     4    1    5 1
     5    4   33 1
     6    5    6 1
     7    6    7 2
     8    6    8 1
     9    6    9 1
    10    9   10 1
    11   10   11 2
    12   10   12 1
    13   10   13 1
    14   13   14 1
    15   14   15 1
    16   14   34 1
    17   14   35 1
    18   15   16 1
    19   15   17 1
    20   15   36 1
    21   16   21 1
    22   17   18 1
    23   17   19 1
    24   17   37 1
    25   18   38 1
    26   19   20 1
    27   19   21 1
    28   19   39 1
    29   20   40 1
    30   21   22 1
    31   21   41 1
    32   22   23 ar
    33   22   32 ar
    34   23   24 ar
    35   23   42 1
    36   24   25 ar
    37   25   26 ar
    38   25   32 ar
    39   26   27 2
    40   26   28 ar
    41   28   29 ar
    42   28   43 1
    43   29   30 1
    44   29   31 ar
    45   30   44 1
    46   30   45 1
    47   31   32 ar
    48   31   46 1
@<TRIPOS>SUBSTRUCTURE
     1 GTP         1 GROUP 0 A     ****
@<TRIPOS>MOLECULE
[[[5-(2-amino-6-oxo-1,3-dihydropurin-2-ylium-9-yl)-3,4-dihydroxy-tetrahydrofuran-2-yl]methoxy-oxido-phosphoryl]oxy-oxido-phosphoryl] hydrogen phosphate
   46    48     1     0     0
SMALL
USER_CHARGES

@<TRIPOS>ATOM
      1 PG          0.7240    8.3010   -0.5540 P.3       1 GTP         1.5400
      2 O1G        -0.1677    9.5076   -0.3634 O.co2     1 GTP        -0.8909
      3 O2G         2.2150    8.3910   -0.3163 O.co2     1 GTP        -0.8909
      4 O3G         0.4731    7.7021   -2.0521 O.3       1 GTP        -0.7980
      5 O3B         0.1244    7.0551    0.3133 O.3       1 GTP        -0.7612
      6 PB          0.0055    6.8681    1.9308 P.3       1 GTP         1.5847
      7 O1B         1.3989    6.7905    2.5137 O.co2     1 GTP        -0.8859
      8 O2B        -1.0234    7.8394    2.4653 O.co2     1 GTP        -0.8859
      9 O3A        -0.6866    5.3902    1.9734 O.3       1 GTP        -0.7486
     10 PA         -1.1369    4.4808    3.2540 P.3       1 GTP         1.5001
     11 O1A         0.0993    4.1026    4.0409 O.co2     1 GTP        -0.8487
     12 O2A        -2.3199    5.1428    3.9262 O.co2     1 GTP        -0.8487
     13 O5'        -1.7336    3.1724    2.4750 O.3       1 GTP        -0.5474
     14 C5'        -0.8811    2.4285    1.6206 C.3       1 GTP         0.2547
     15 C4'        -0.1994    1.3333    2.4288 C.3       1 GTP         0.0926
     16 O4'        -1.1285    0.2356    2.5840 O.3       1 GTP        -0.3593
     17 C3'         1.0324    0.7610    1.7344 C.3       1 GTP         0.0907
     18 O3'         1.9175    0.2377    2.7247 O.3       1 GTP        -0.5209
     19 C2'         0.4468   -0.3802    0.9263 C.3       1 GTP         0.0305
     20 O2'         1.3993   -1.3703    0.5961 O.3       1 GTP        -0.5978
     21 C1'        -0.6159   -0.9100    1.8769 C.3       1 GTP         0.2339
     22 N9         -1.7127   -1.6108    1.2130 N.pl3     1 GTP        -0.1765
     23 C8         -2.8692   -1.0463    0.7355 C.ar      1 GTP         0.4947
     24 N7         -3.6707   -1.9381    0.1856 N.2       1 GTP        -0.5802
     25 C5         -3.0027   -3.1275    0.3134 C.ar      1 GTP         0.2279
     26 C6         -3.4659   -4.4142   -0.1355 C.ar      1 GTP         0.6513
     27 O6         -4.5328   -4.6133   -0.6980 O.2       1 GTP        -0.5111
     28 N1         -2.5102   -5.4606    0.1612 N.pl3     1 GTP        -0.4713
     29 C2         -1.2711   -5.2547    0.8113 C.ar      1 GTP         0.5256
     30 N2         -0.4228   -6.3256    1.0482 N.pl3     1 GTP        -0.8665
     31 N3         -0.9033   -3.9563    1.2146 N.pl3     1 GTP        -0.5398
     32 C4         -1.7979   -2.9400    0.9438 C.ar      1 GTP        -0.0275
     33 HOG3        0.9822    6.9109   -2.3299 H         1 GTP         0.4161
     34 H5'        -1.4800    1.9927    0.8146 H         1 GTP         0.0348
     35 H5''       -0.1367    3.1040    1.1872 H         1 GTP         0.0348
     36 H4'         0.0403    1.7078    3.4343 H         1 GTP         0.1215
     37 H3'         1.5907    1.4859    1.1353 H         1 GTP         0.0576
     38 HO3'        2.1521    0.9800    3.3017 H         1 GTP         0.3842
     39 H2'        -0.0017    0.0018    0.0005 H         1 GTP         0.0252
     40 HO2'        1.7495   -1.7243    1.4324 H         1 GTP         0.4224
     41 H1'        -0.1998   -1.6319    2.6178 H         1 GTP         0.0745
     42 H8         -3.0691    0.0134    0.8177 H         1 GTP         0.1522
     43 HN1        -2.7468   -6.4119   -0.1177 H         1 GTP         0.3518
     44 HN21       -0.7258   -7.2071    0.7462 H         1 GTP         0.4761
     45 HN22        0.4235   -6.1295    1.5014 H         1 GTP         0.4761
     46 H46        -0.0124   -3.8015    1.6821 H         1 GTP         0.5030
@<TRIPOS>BOND
     1    1    2 2
     2    1    3 1
     3    1    4 1
     4    1    5 1
     5    4   33 1
     6    5    6 1
     7    6    7 2
     8    6    8 1
     9    6    9 1
    10    9   10 1
    11   10   11 2
    12   10   12 1
    13   10   13 1
    14   13   14 1
    15   14   15 1
    16   14   34 1
    17   14   35 1
    18   15   16 1
    19   15   17 1
    20   15   36 1
    21   16   21 1
    22   17   18 1
    23   17   19 1
    24   17   37 1
    25   18   38 1
    26   19   20 1
    27   19   21 1
    28   19   39 1
    29   20   40 1
    30   21   22 1
    31   21   41 1
    32   22   23 ar
    33   22   32 ar
    34   23   24 ar
    35   23   42 1
    36   24   25 ar
    37   25   26 ar
    38   25   32 ar
    39   26   27 2
    40   26   28 ar
    41   28   29 ar
    42   28   43 1
    43   29   30 1
    44   29   31 ar
    45   30   44 1
    46   30   45 1
    47   31   32 ar
    48   31   46 1
@<TRIPOS>SUBSTRUCTURE
     1 GTP         1 GROUP 0 A     ****
@<TRIPOS>MOLECULE
[[[5-(2-amino-6-oxo-1,3-dihydropurin-2-ylium-9-yl)-3,4-dihydroxy-tetrahydrofuran-2-yl]methoxy-oxido-phosphoryl]oxy-oxido-phosphoryl] hydrogen phosphate
   46    48     1     0     0
SMALL
USER_CHARGES

@<TRIPOS>ATOM
      1 PG         -1.7843    7.2245    6.6963 P.3       1 GTP         1.5400
      2 O1G        -0.8457    6.9445    7.8487 O.co2     1 GTP        -0.8909
      3 O2G        -1.8257    8.5870    6.0409 O.co2     1 GTP        -0.8909
      4 O3G        -3.2996    6.8222    7.1521 O.3       1 GTP        -0.7980
      5 O3B        -1.5640    6.0897    5.5440 O.3       1 GTP        -0.7612
      6 PB         -0.2716    5.8082    4.5869 P.3       1 GTP         1.5847
      7 O1B        -0.0876    6.9898    3.6609 O.co2     1 GTP        -0.8859
      8 O2B         0.8650    5.2822    5.4348 O.co2     1 GTP        -0.8859
      9 O3A        -0.8451    4.5359    3.7400 O.3       1 GTP        -0.7486
     10 PA         -2.1561    4.4278    2.7707 P.3       1 GTP         1.5001
     11 O1A        -3.3990    4.6374    3.6082 O.co2     1 GTP        -0.8487
     12 O2A        -1.9055    5.2477    1.5239 O.co2     1 GTP        -0.8487
     13 O5'        -2.0401    2.8620    2.3128 O.3       1 GTP        -0.5474
     14 C5'        -0.8811    2.4285    1.6206 C.3       1 GTP         0.2547
     15 C4'        -0.1994    1.3333    2.4288 C.3       1 GTP         0.0926
     16 O4'        -1.1285    0.2356    2.5840 O.3       1 GTP        -0.3593
     17 C3'         1.0324    0.7610    1.7344 C.3       1 GTP         0.0907
     18 O3'         1.9175    0.2377    2.7247 O.3       1 GTP        -0.5209
     19 C2'         0.4468   -0.3802    0.9263 C.3       1 GTP         0.0305
     20 O2'         1.3993   -1.3703    0.5961 O.3       1 GTP        -0.5978
     21 C1'        -0.6159   -0.9100    1.8769 C.3       1 GTP         0.2339
     22 N9         -1.7127   -1.6108    1.2130 N.pl3     1 GTP        -0.1765
     23 C8         -1.7789   -2.9564    0.9503 C.ar      1 GTP         0.4947
     24 N7         -2.8980   -3.2916    0.3377 N.2       1 GTP        -0.5802
     25 C5         -3.5824   -2.1127    0.2000 C.ar      1 GTP         0.2279
     26 C6         -4.8740   -1.9471   -0.4133 C.ar      1 GTP         0.6513
     27 O6         -5.5366   -2.8529   -0.8978 O.2       1 GTP        -0.5111
     28 N1         -5.3036   -0.5645   -0.3916 N.pl3     1 GTP        -0.4713
     29 C2         -4.5545    0.4997    0.1619 C.ar      1 GTP         0.5256
     30 N2         -5.0561    1.7921    0.1348 N.pl3     1 GTP        -0.8665
     31 N3         -3.2977    0.2393    0.7420 N.pl3     1 GTP        -0.5398
     32 C4         -2.8643   -1.0716    0.7336 C.ar      1 GTP        -0.0275
     33 HOG3       -4.0294    6.9468    6.5085 H         1 GTP         0.4161
     34 H5'        -1.1767    2.0502    0.6368 H         1 GTP         0.0348
     35 H5''       -0.2080    3.2814    1.4876 H         1 GTP         0.0348
     36 H4'         0.0403    1.7078    3.4343 H         1 GTP         0.1215
     37 H3'         1.5907    1.4859    1.1353 H         1 GTP         0.0576
     38 HO3'        2.6839   -0.1150    2.2479 H         1 GTP         0.3842
     39 H2'        -0.0017    0.0018    0.0005 H         1 GTP         0.0252
     40 HO2'        2.0953   -0.9375    0.0709 H         1 GTP         0.4224
     41 H1'        -0.1998   -1.6319    2.6178 H         1 GTP         0.0745
     42 H8         -0.9852   -3.6367    1.2276 H         1 GTP         0.1522
     43 HN1        -6.2089   -0.3428   -0.8039 H         1 GTP         0.3518
     44 HN21       -5.9354    1.9184   -0.2788 H         1 GTP         0.4761
     45 HN22       -4.4982    2.4931    0.5316 H         1 GTP         0.4761
     46 H46        -2.7541    1.0010    1.1428 H         1 GTP         0.5030
@<TRIPOS>BOND
     1    1    2 2
     2    1    3 1
     3    1    4 1
     4    1    5 1
     5    4   33 1
     6    5    6 1
     7    6    7 2
     8    6    8 1
     9    6    9 1
    10    9   10 1
    11   10   11 2
    12   10   12 1
    13   10   13 1
    14   13   14 1
    15   14   15 1
    16   14   34 1
    17   14   35 1
    18   15   16 1
    19   15   17 1
    20   15   36 1
    21   16   21 1
    22   17   18 1
    23   17   19 1
    24   17   37 1
    25   18   38 1
    26   19   20 1
    27   19   21 1
    28   19   39 1
    29   20   40 1
    30   21   22 1
    31   21   41 1
    32   22   23 ar
    33   22   32 ar
    34   23   24 ar
    35   23   42 1
    36   24   25 ar
    37   25   26 ar
    38   25   32 ar
    39   26   27 2
    40   26   28 ar
    41   28   29 ar
    42   28   43 1
    43   29   30 1
    44   29   31 ar
    45   30   44 1
    46   30   45 1
    47   31   32 ar
    48   31   46 1
@<TRIPOS>SUBSTRUCTURE
     1 GTP         1 GROUP 0 A     ****
@<TRIPOS>MOLECULE
[[[5-(2-amino-6-oxo-1,3-dihydropurin-2-ylium-9-yl)-3,4-dihydroxy-tetrahydrofuran-2-yl]methoxy-oxido-phosphoryl]oxy-oxido-phosphoryl] hydrogen phosphate
   46    48     1     0     0
SMALL
USER_CHARGES

@<TRIPOS>ATOM
      1 PG         -3.1127    5.4544   -3.5147 P.3       1 GTP         1.5400
      2 O1G        -2.6453    6.8194   -3.9681 O.co2     1 GTP        -0.8909
      3 O2G        -2.9571    4.2434   -4.4074 O.co2     1 GTP        -0.8909
      4 O3G        -4.6771    5.5663   -3.0607 O.3       1 GTP        -0.7980
      5 O3B        -2.4559    5.1251   -2.0573 O.3       1 GTP        -0.7612
      6 PB         -2.4753    6.0007   -0.6794 P.3       1 GTP         1.5847
      7 O1B        -1.6929    7.2755   -0.9040 O.co2     1 GTP        -0.8859
      8 O2B        -3.8838    6.0228   -0.1287 O.co2     1 GTP        -0.8859
      9 O3A        -1.6181    4.9968    0.2809 O.3       1 GTP        -0.7486
     10 PA         -0.0889    4.4444    0.1193 P.3       1 GTP         1.5001
     11 O1A        -0.0111    3.5842   -1.1233 O.co2     1 GTP        -0.8487
     12 O2A         0.8677    5.5971    0.3340 O.co2     1 GTP        -0.8487
     13 O5'         0.0178    3.5131    1.4595 O.3       1 GTP        -0.5474
     14 C5'        -0.8811    2.4285    1.6206 C.3       1 GTP         0.2547
     15 C4'        -0.1994    1.3333    2.4288 C.3       1 GTP         0.0926
     16 O4'        -1.1285    0.2356    2.5840 O.3       1 GTP        -0.3593
     17 C3'         1.0324    0.7610    1.7344 C.3       1 GTP         0.0907
     18 O3'         1.9175    0.2377    2.7247 O.3       1 GTP        -0.5209
     19 C2'         0.4468   -0.3802    0.9263 C.3       1 GTP         0.0305
     20 O2'         1.3993   -1.3703    0.5961 O.3       1 GTP        -0.5978
     21 C1'        -0.6159   -0.9100    1.8769 C.3       1 GTP         0.2339
     22 N9         -1.7127   -1.6108    1.2130 N.pl3     1 GTP        -0.1765
     23 C8         -1.6092   -2.7449    0.4467 C.ar      1 GTP         0.4947
     24 N7         -2.7778   -3.1416   -0.0191 N.2       1 GTP        -0.5802
     25 C5         -3.6725   -2.2253    0.4675 C.ar      1 GTP         0.2279
     26 C6         -5.0932   -2.2202    0.2371 C.ar      1 GTP         0.6513
     27 O6         -5.6933   -3.0474   -0.4337 O.2       1 GTP        -0.5111
     28 N1         -5.7390   -1.1061    0.8992 N.pl3     1 GTP        -0.4713
     29 C2         -5.0661   -0.1368    1.6789 C.ar      1 GTP         0.5256
     30 N2         -5.7774    0.8934    2.2749 N.pl3     1 GTP        -0.8665
     31 N3         -3.6705   -0.2251    1.8481 N.pl3     1 GTP        -0.5398
     32 C4         -3.0303   -1.2785    1.2262 C.ar      1 GTP        -0.0275
     33 HOG3       -5.1287    4.7573   -2.7385 H         1 GTP         0.4161
     34 H5'        -1.7771    2.7849    2.1387 H         1 GTP         0.0348
     35 H5''       -1.1654    2.0541    0.6320 H         1 GTP         0.0348
     36 H4'         0.0403    1.7078    3.4343 H         1 GTP         0.1215
     37 H3'         1.5907    1.4859    1.1353 H         1 GTP         0.0576
     38 HO3'        2.6839   -0.1150    2.2479 H         1 GTP         0.3842
     39 H2'        -0.0017    0.0018    0.0005 H         1 GTP         0.0252
     40 HO2'        2.0953   -0.9375    0.0709 H         1 GTP         0.4224
     41 H1'        -0.1998   -1.6319    2.6178 H         1 GTP         0.0745
     42 H8         -0.6610   -3.2324    0.2653 H         1 GTP         0.1522
     43 HN1        -6.7487   -1.0139    0.7961 H         1 GTP         0.3518
     44 HN21       -5.2644    1.5388    2.8044 H         1 GTP         0.4761
     45 HN22       -6.7459    0.9078    2.1265 H         1 GTP         0.4761
     46 H46        -3.1807    0.4690    2.4089 H         1 GTP         0.5030
@<TRIPOS>BOND
     1    1    2 2
     2    1    3 1
     3    1    4 1
     4    1    5 1
     5    4   33 1
     6    5    6 1
     7    6    7 2
     8    6    8 1
     9    6    9 1
    10    9   10 1
    11   10   11 2
    12   10   12 1
    13   10   13 1
    14   13   14 1
    15   14   15 1
    16   14   34 1
    17   14   35 1
    18   15   16 1
    19   15   17 1
    20   15   36 1
    21   16   21 1
    22   17   18 1
    23   17   19 1
    24   17   37 1
    25   18   38 1
    26   19   20 1
    27   19   21 1
    28   19   39 1
    29   20   40 1
    30   21   22 1
    31   21   41 1
    32   22   23 ar
    33   22   32 ar
    34   23   24 ar
    35   23   42 1
    36   24   25 ar
    37   25   26 ar
    38   25   32 ar
    39   26   27 2
    40   26   28 ar
    41   28   29 ar
    42   28   43 1
    43   29   30 1
    44   29   31 ar
    45   30   44 1
    46   30   45 1
    47   31   32 ar
    48   31   46 1
@<TRIPOS>SUBSTRUCTURE
     1 GTP         1 GROUP 0 A     ****
@<TRIPOS>MOLECULE
[[[5-(2-amino-6-oxo-1,3-dihydropurin-2-ylium-9-yl)-3,4-dihydroxy-tetrahydrofuran-2-yl]methoxy-oxido-phosphoryl]oxy-oxido-phosphoryl] hydrogen phosphate
   46    48     1     0     0
SMALL
USER_CHARGES

@<TRIPOS>ATOM
      1 PG          2.7561    6.6193   -2.7139 P.3       1 GTP         1.5400
      2 O1G         3.8259    5.8244   -3.4288 O.co2     1 GTP        -0.8909
      3 O2G         1.7618    7.4561   -3.4878 O.co2     1 GTP        -0.8909
      4 O3G         3.4748    7.5690   -1.5970 O.3       1 GTP        -0.7980
      5 O3B         1.9413    5.6270   -1.7063 O.3       1 GTP        -0.7612
      6 PB          0.9565    4.3699   -2.0464 P.3       1 GTP         1.5847
      7 O1B        -0.2723    4.8946   -2.7550 O.co2     1 GTP        -0.8859
      8 O2B         1.7803    3.2396   -2.6220 O.co2     1 GTP        -0.8859
      9 O3A         0.5618    3.9276   -0.5254 O.3       1 GTP        -0.7486
     10 PA         -0.1844    4.7788    0.6530 P.3       1 GTP         1.5001
     11 O1A         0.7001    5.9415    1.0478 O.co2     1 GTP        -0.8487
     12 O2A        -1.6283    4.9941    0.2547 O.co2     1 GTP        -0.8487
     13 O5'        -0.2062    3.6557    1.8417 O.3       1 GTP        -0.5474
     14 C5'        -0.8811    2.4285    1.6206 C.3       1 GTP         0.2547
     15 C4'        -0.1994    1.3333    2.4288 C.3       1 GTP         0.0926
     16 O4'        -1.1285    0.2356    2.5840 O.3       1 GTP        -0.3593
     17 C3'         1.0324    0.7610    1.7344 C.3       1 GTP         0.0907
     18 O3'         1.9175    0.2377    2.7247 O.3       1 GTP        -0.5209
     19 C2'         0.4468   -0.3802    0.9263 C.3       1 GTP         0.0305
     20 O2'         1.3993   -1.3703    0.5961 O.3       1 GTP        -0.5978
     21 C1'        -0.6159   -0.9100    1.8769 C.3       1 GTP         0.2339
     22 N9         -1.7127   -1.6108    1.2130 N.pl3     1 GTP        -0.1765
     23 C8         -2.5534   -1.0907    0.2607 C.ar      1 GTP         0.4947
     24 N7         -3.4469   -1.9695   -0.1508 N.2       1 GTP        -0.5802
     25 C5         -3.1705   -3.1041    0.5657 C.ar      1 GTP         0.2279
     26 C6         -3.8738   -4.3568    0.4777 C.ar      1 GTP         0.6513
     27 O6         -4.8240   -4.5720   -0.2607 O.2       1 GTP        -0.5111
     28 N1         -3.3198   -5.3462    1.3780 N.pl3     1 GTP        -0.4713
     29 C2         -2.2226   -5.1203    2.2413 C.ar      1 GTP         0.5256
     30 N2         -1.7649   -6.1367    3.0659 N.pl3     1 GTP        -0.8665
     31 N3         -1.5969   -3.8585    2.2574 N.pl3     1 GTP        -0.5398
     32 C4         -2.1068   -2.8965    1.4082 C.ar      1 GTP        -0.0275
     33 HOG3        2.9095    8.1506   -1.0453 H         1 GTP         0.4161
     34 H5'        -1.9256    2.5380    1.9293 H         1 GTP         0.0348
     35 H5''       -0.8474    2.1930    0.5521 H         1 GTP         0.0348
     36 H4'         0.0403    1.7078    3.4343 H         1 GTP         0.1215
     37 H3'         1.5907    1.4859    1.1353 H         1 GTP         0.0576
     38 HO3'        2.6839   -0.1150    2.2479 H         1 GTP         0.3842
     39 H2'        -0.0017    0.0018    0.0005 H         1 GTP         0.0252
     40 HO2'        0.9369   -2.0558    0.0825 H         1 GTP         0.4224
     41 H1'        -0.1998   -1.6319    2.6178 H         1 GTP         0.0745
     42 H8         -2.4657   -0.0713   -0.0897 H         1 GTP         0.1522
     43 HN1        -3.7505   -6.2699    1.3904 H         1 GTP         0.3518
     44 HN21       -1.0023   -5.9289    3.6451 H         1 GTP         0.4761
     45 HN22       -2.2347   -6.9951    3.0150 H         1 GTP         0.4761
     46 H46        -0.8062   -3.6900    2.8760 H         1 GTP         0.5030
@<TRIPOS>BOND
     1    1    2 2
     2    1    3 1
     3    1    4 1
     4    1    5 1
     5    4   33 1
     6    5    6 1
     7    6    7 2
     8    6    8 1
     9    6    9 1
    10    9   10 1
    11   10   11 2
    12   10   12 1
    13   10   13 1
    14   13   14 1
    15   14   15 1
    16   14   34 1
    17   14   35 1
    18   15   16 1
    19   15   17 1
    20   15   36 1
    21   16   21 1
    22   17   18 1
    23   17   19 1
    24   17   37 1
    25   18   38 1
    26   19   20 1
    27   19   21 1
    28   19   39 1
    29   20   40 1
    30   21   22 1
    31   21   41 1
    32   22   23 ar
    33   22   32 ar
    34   23   24 ar
    35   23   42 1
    36   24   25 ar
    37   25   26 ar
    38   25   32 ar
    39   26   27 2
    40   26   28 ar
    41   28   29 ar
    42   28   43 1
    43   29   30 1
    44   29   31 ar
    45   30   44 1
    46   30   45 1
    47   31   32 ar
    48   31   46 1
@<TRIPOS>SUBSTRUCTURE
     1 GTP         1 GROUP 0 A     ****
@<TRIPOS>MOLECULE
[[[5-(2-amino-6-oxo-1,3-dihydropurin-2-ylium-9-yl)-3,4-dihydroxy-tetrahydrofuran-2-yl]methoxy-oxido-phosphoryl]oxy-oxido-phosphoryl] hydrogen phosphate
   46    48     1     0     0
SMALL
USER_CHARGES

@<TRIPOS>ATOM
      1 PG          4.8405    3.5847   -5.9947 P.3       1 GTP         1.5400
      2 O1G         5.9847    2.7675   -6.5518 O.co2     1 GTP        -0.8909
      3 O2G         3.4170    3.3340   -6.4404 O.co2     1 GTP        -0.8909
      4 O3G         5.1802    5.1671   -6.2104 O.3       1 GTP        -0.7980
      5 O3B         4.9000    3.5397   -4.3643 O.3       1 GTP        -0.7612
      6 PB          6.1329    3.8892   -3.3527 P.3       1 GTP         1.5847
      7 O1B         7.2357    2.8759   -3.5641 O.co2     1 GTP        -0.8859
      8 O2B         6.4043    5.3764   -3.4011 O.co2     1 GTP        -0.8859
      9 O3A         5.3921    3.5997   -1.9272 O.3       1 GTP        -0.7486
     10 PA          5.9684    3.7219   -0.4031 P.3       1 GTP         1.5001
     11 O1A         7.0754    2.7065   -0.2187 O.co2     1 GTP        -0.8487
     12 O2A         6.1875    5.1847   -0.0840 O.co2     1 GTP        -0.8487
     13 O5'         4.6405    3.2699    0.4378 O.3       1 GTP        -0.5474
     14 C5'         4.0922    1.9801    0.2227 C.3       1 GTP         0.2547
     15 C4'         2.5944    2.0310    0.4653 C.3       1 GTP         0.0926
     16 O4'         1.9327    2.5740   -0.6889 O.3       1 GTP        -0.3593
     17 C3'         1.9685    0.6634    0.6767 C.3       1 GTP         0.0907
     18 O3'         2.1425    0.1975    1.9977 O.3       1 GTP        -0.5209
     19 C2'         0.5176    0.9128    0.3099 C.3       1 GTP         0.0305
     20 O2'        -0.2103    1.4454    1.4152 O.3       1 GTP        -0.5978
     21 C1'         0.6219    1.9765   -0.7844 C.3       1 GTP         0.2339
     22 N9          0.4237    1.4496   -2.1357 N.pl3     1 GTP        -0.1765
     23 C8          1.3988    0.9691   -2.9736 C.ar      1 GTP         0.4947
     24 N7          0.9092    0.5634   -4.1293 N.2       1 GTP        -0.5802
     25 C5         -0.4383    0.7914   -4.0325 C.ar      1 GTP         0.2279
     26 C6         -1.4217    0.5138   -5.0461 C.ar      1 GTP         0.6513
     27 O6         -1.1759    0.0306   -6.1417 O.2       1 GTP        -0.5111
     28 N1         -2.7543    0.8794   -4.6134 N.pl3     1 GTP        -0.4713
     29 C2         -3.0626    1.4402   -3.3523 C.ar      1 GTP         0.5256
     30 N2         -4.3747    1.7544   -3.0321 N.pl3     1 GTP        -0.8665
     31 N3         -2.0304    1.6759   -2.4233 N.pl3     1 GTP        -0.5398
     32 C4         -0.7497    1.3366   -2.8118 C.ar      1 GTP        -0.0275
     33 HOG3        4.5289    5.8312   -5.8988 H         1 GTP         0.4161
     34 H5'         4.3028    1.6728   -0.8066 H         1 GTP         0.0348
     35 H5''        4.5677    1.2738    0.9106 H         1 GTP         0.0348
     36 H4'         2.3752    2.7029    1.3156 H         1 GTP         0.1215
     37 H3'         2.4336   -0.1217   -0.0015 H         1 GTP         0.0576
     38 HO3'        1.7160   -0.6716    2.0397 H         1 GTP         0.3842
     39 H2'         0.0316    0.0155   -0.0339 H         1 GTP         0.0252
     40 HO2'       -0.1608    0.7921    2.1351 H         1 GTP         0.4224
     41 H1'        -0.1474    2.7798   -0.6651 H         1 GTP         0.0745
     42 H8          2.4413    0.9409   -2.6872 H         1 GTP         0.1522
     43 HN1        -3.5236    0.7214   -5.2629 H         1 GTP         0.3518
     44 HN21       -4.5350    2.1409   -2.1461 H         1 GTP         0.4761
     45 HN22       -5.0542    1.5695   -3.7134 H         1 GTP         0.4761
     46 H46        -2.2462    2.0786   -1.5136 H         1 GTP         0.5030
@<TRIPOS>BOND
     1    1    2 2
     2    1    3 1
     3    1    4 1
     4    1    5 1
     5    4   33 1
     6    5    6 1
     7    6    7 2
     8    6    8 1
     9    6    9 1
    10    9   10 1
    11   10   11 2
    12   10   12 1
    13   10   13 1
    14   13   14 1
    15   14   15 1
    16   14   34 1
    17   14   35 1
    18   15   16 1
    19   15   17 1
    20   15   36 1
    21   16   21 1
    22   17   18 1
    23   17   19 1
    24   17   37 1
    25   18   38 1
    26   19   20 1
    27   19   21 1
    28   19   39 1
    29   20   40 1
    30   21   22 1
    31   21   41 1
    32   22   23 ar
    33   22   32 ar
    34   23   24 ar
    35   23   42 1
    36   24   25 ar
    37   25   26 ar
    38   25   32 ar
    39   26   27 2
    40   26   28 ar
    41   28   29 ar
    42   28   43 1
    43   29   30 1
    44   29   31 ar
    45   30   44 1
    46   30   45 1
    47   31   32 ar
    48   31   46 1
@<TRIPOS>SUBSTRUCTURE
     1 GTP         1 GROUP 0 A     ****
@<TRIPOS>MOLECULE
[[[5-(2-amino-6-oxo-1,3-dihydropurin-2-ylium-9-yl)-3,4-dihydroxy-tetrahydrofuran-2-yl]methoxy-oxido-phosphoryl]oxy-oxido-phosphoryl] hydrogen phosphate
   46    48     1     0     0
SMALL
USER_CHARGES

@<TRIPOS>ATOM
      1 PG          0.5755    8.3699    3.3771 P.3       1 GTP         1.5400
      2 O1G        -0.4236    9.2682    4.0716 O.co2     1 GTP        -0.8909
      3 O2G         2.0235    8.3349    3.8127 O.co2     1 GTP        -0.8909
      4 O3G         0.5236    8.6780    1.7745 O.3       1 GTP        -0.7980
      5 O3B        -0.0070    6.8455    3.3541 O.3       1 GTP        -0.7612
      6 PB         -0.2716    5.8082    4.5869 P.3       1 GTP         1.5847
      7 O1B         1.0584    5.4436    5.2077 O.co2     1 GTP        -0.8859
      8 O2B        -1.4224    6.3204    5.4241 O.co2     1 GTP        -0.8859
      9 O3A        -0.8451    4.5359    3.7400 O.3       1 GTP        -0.7486
     10 PA         -2.1561    4.4278    2.7707 P.3       1 GTP         1.5001
     11 O1A        -3.3990    4.6374    3.6082 O.co2     1 GTP        -0.8487
     12 O2A        -1.9055    5.2477    1.5239 O.co2     1 GTP        -0.8487
     13 O5'        -2.0401    2.8620    2.3128 O.3       1 GTP        -0.5474
     14 C5'        -0.8811    2.4285    1.6206 C.3       1 GTP         0.2547
     15 C4'        -0.1994    1.3333    2.4288 C.3       1 GTP         0.0926
     16 O4'        -1.1285    0.2356    2.5840 O.3       1 GTP        -0.3593
     17 C3'         1.0324    0.7610    1.7344 C.3       1 GTP         0.0907
     18 O3'         1.9175    0.2377    2.7247 O.3       1 GTP        -0.5209
     19 C2'         0.4468   -0.3802    0.9263 C.3       1 GTP         0.0305
     20 O2'         1.3993   -1.3703    0.5961 O.3       1 GTP        -0.5978
     21 C1'        -0.6159   -0.9100    1.8769 C.3       1 GTP         0.2339
     22 N9         -1.7127   -1.6108    1.2130 N.pl3     1 GTP        -0.1765
     23 C8         -1.7789   -2.9564    0.9503 C.ar      1 GTP         0.4947
     24 N7         -2.8980   -3.2916    0.3377 N.2       1 GTP        -0.5802
     25 C5         -3.5824   -2.1127    0.2000 C.ar      1 GTP         0.2279
     26 C6         -4.8740   -1.9471   -0.4133 C.ar      1 GTP         0.6513
     27 O6         -5.5366   -2.8529   -0.8978 O.2       1 GTP        -0.5111
     28 N1         -5.3036   -0.5645   -0.3916 N.pl3     1 GTP        -0.4713
     29 C2         -4.5545    0.4997    0.1619 C.ar      1 GTP         0.5256
     30 N2         -5.0561    1.7921    0.1348 N.pl3     1 GTP        -0.8665
     31 N3         -3.2977    0.2393    0.7420 N.pl3     1 GTP        -0.5398
     32 C4         -2.8643   -1.0716    0.7336 C.ar      1 GTP        -0.0275
     33 HOG3        1.1190    8.1712    1.1821 H         1 GTP         0.4161
     34 H5'        -1.1767    2.0502    0.6368 H         1 GTP         0.0348
     35 H5''       -0.2080    3.2814    1.4876 H         1 GTP         0.0348
     36 H4'         0.0403    1.7078    3.4343 H         1 GTP         0.1215
     37 H3'         1.5907    1.4859    1.1353 H         1 GTP         0.0576
     38 HO3'        2.6839   -0.1150    2.2479 H         1 GTP         0.3842
     39 H2'        -0.0017    0.0018    0.0005 H         1 GTP         0.0252
     40 HO2'        2.0953   -0.9375    0.0709 H         1 GTP         0.4224
     41 H1'        -0.1998   -1.6319    2.6178 H         1 GTP         0.0745
     42 H8         -0.9852   -3.6367    1.2276 H         1 GTP         0.1522
     43 HN1        -6.2089   -0.3428   -0.8039 H         1 GTP         0.3518
     44 HN21       -5.9354    1.9184   -0.2788 H         1 GTP         0.4761
     45 HN22       -4.4982    2.4931    0.5316 H         1 GTP         0.4761
     46 H46        -2.7541    1.0010    1.1428 H         1 GTP         0.5030
@<TRIPOS>BOND
     1    1    2 2
     2    1    3 1
     3    1    4 1
     4    1    5 1
     5    4   33 1
     6    5    6 1
     7    6    7 2
     8    6    8 1
     9    6    9 1
    10    9   10 1
    11   10   11 2
    12   10   12 1
    13   10   13 1
    14   13   14 1
    15   14   15 1
    16   14   34 1
    17   14   35 1
    18   15   16 1
    19   15   17 1
    20   15   36 1
    21   16   21 1
    22   17   18 1
    23   17   19 1
    24   17   37 1
    25   18   38 1
    26   19   20 1
    27   19   21 1
    28   19   39 1
    29   20   40 1
    30   21   22 1
    31   21   41 1
    32   22   23 ar
    33   22   32 ar
    34   23   24 ar
    35   23   42 1
    36   24   25 ar
    37   25   26 ar
    38   25   32 ar
    39   26   27 2
    40   26   28 ar
    41   28   29 ar
    42   28   43 1
    43   29   30 1
    44   29   31 ar
    45   30   44 1
    46   30   45 1
    47   31   32 ar
    48   31   46 1
@<TRIPOS>SUBSTRUCTURE
     1 GTP         1 GROUP 0 A     ****
@<TRIPOS>MOLECULE
[[[5-(2-amino-6-oxo-1,3-dihydropurin-2-ylium-9-yl)-3,4-dihydroxy-tetrahydrofuran-2-yl]methoxy-oxido-phosphoryl]oxy-oxido-phosphoryl] hydrogen phosphate
   46    48     1     0     0
SMALL
USER_CHARGES

@<TRIPOS>ATOM
      1 PG          1.8482    4.1388    6.2380 P.3       1 GTP         1.5400
      2 O1G         2.0032    3.0842    5.1649 O.co2     1 GTP        -0.8909
      3 O2G         2.9022    5.2050    6.4379 O.co2     1 GTP        -0.8909
      4 O3G         1.5895    3.3912    7.6663 O.3       1 GTP        -0.7980
      5 O3B         0.3931    4.8585    6.0692 O.3       1 GTP        -0.7612
      6 PB         -0.1676    5.8159    4.8714 P.3       1 GTP         1.5847
      7 O1B        -1.6292    6.1079    5.1282 O.co2     1 GTP        -0.8859
      8 O2B         0.8291    6.9253    4.6193 O.co2     1 GTP        -0.8859
      9 O3A        -0.0307    4.7768    3.6199 O.3       1 GTP        -0.7486
     10 PA         -0.3962    4.9846    2.0409 P.3       1 GTP         1.5001
     11 O1A        -1.8888    5.1976    1.9110 O.co2     1 GTP        -0.8487
     12 O2A         0.5889    5.9637    1.4405 O.co2     1 GTP        -0.8487
     13 O5'         0.0178    3.5131    1.4595 O.3       1 GTP        -0.5474
     14 C5'        -0.8811    2.4285    1.6206 C.3       1 GTP         0.2547
     15 C4'        -0.1994    1.3333    2.4288 C.3       1 GTP         0.0926
     16 O4'        -1.1285    0.2356    2.5840 O.3       1 GTP        -0.3593
     17 C3'         1.0324    0.7610    1.7344 C.3       1 GTP         0.0907
     18 O3'         1.9175    0.2377    2.7247 O.3       1 GTP        -0.5209
     19 C2'         0.4468   -0.3802    0.9263 C.3       1 GTP         0.0305
     20 O2'         1.3993   -1.3703    0.5961 O.3       1 GTP        -0.5978
     21 C1'        -0.6159   -0.9100    1.8769 C.3       1 GTP         0.2339
     22 N9         -1.7127   -1.6108    1.2130 N.pl3     1 GTP        -0.1765
     23 C8         -2.5534   -1.0907    0.2607 C.ar      1 GTP         0.4947
     24 N7         -3.4469   -1.9695   -0.1508 N.2       1 GTP        -0.5802
     25 C5         -3.1705   -3.1041    0.5657 C.ar      1 GTP         0.2279
     26 C6         -3.8738   -4.3568    0.4777 C.ar      1 GTP         0.6513
     27 O6         -4.8240   -4.5720   -0.2607 O.2       1 GTP        -0.5111
     28 N1         -3.3198   -5.3462    1.3780 N.pl3     1 GTP        -0.4713
     29 C2         -2.2226   -5.1203    2.2413 C.ar      1 GTP         0.5256
     30 N2         -1.7649   -6.1367    3.0659 N.pl3     1 GTP        -0.8665
     31 N3         -1.5969   -3.8585    2.2574 N.pl3     1 GTP        -0.5398
     32 C4         -2.1068   -2.8965    1.4082 C.ar      1 GTP        -0.0275
     33 HOG3        1.4681    3.9442    8.4674 H         1 GTP         0.4161
     34 H5'        -1.7771    2.7849    2.1387 H         1 GTP         0.0348
     35 H5''       -1.1654    2.0541    0.6320 H         1 GTP         0.0348
     36 H4'         0.0403    1.7078    3.4343 H         1 GTP         0.1215
     37 H3'         1.5907    1.4859    1.1353 H         1 GTP         0.0576
     38 HO3'        2.6839   -0.1150    2.2479 H         1 GTP         0.3842
     39 H2'        -0.0017    0.0018    0.0005 H         1 GTP         0.0252
     40 HO2'        2.0953   -0.9375    0.0709 H         1 GTP         0.4224
     41 H1'        -0.1998   -1.6319    2.6178 H         1 GTP         0.0745
     42 H8         -2.4657   -0.0713   -0.0897 H         1 GTP         0.1522
     43 HN1        -3.7505   -6.2699    1.3904 H         1 GTP         0.3518
     44 HN21       -1.0023   -5.9289    3.6451 H         1 GTP         0.4761
     45 HN22       -2.2347   -6.9951    3.0150 H         1 GTP         0.4761
     46 H46        -0.8062   -3.6900    2.8760 H         1 GTP         0.5030
@<TRIPOS>BOND
     1    1    2 2
     2    1    3 1
     3    1    4 1
     4    1    5 1
     5    4   33 1
     6    5    6 1
     7    6    7 2
     8    6    8 1
     9    6    9 1
    10    9   10 1
    11   10   11 2
    12   10   12 1
    13   10   13 1
    14   13   14 1
    15   14   15 1
    16   14   34 1
    17   14   35 1
    18   15   16 1
    19   15   17 1
    20   15   36 1
    21   16   21 1
    22   17   18 1
    23   17   19 1
    24   17   37 1
    25   18   38 1
    26   19   20 1
    27   19   21 1
    28   19   39 1
    29   20   40 1
    30   21   22 1
    31   21   41 1
    32   22   23 ar
    33   22   32 ar
    34   23   24 ar
    35   23   42 1
    36   24   25 ar
    37   25   26 ar
    38   25   32 ar
    39   26   27 2
    40   26   28 ar
    41   28   29 ar
    42   28   43 1
    43   29   30 1
    44   29   31 ar
    45   30   44 1
    46   30   45 1
    47   31   32 ar
    48   31   46 1
@<TRIPOS>SUBSTRUCTURE
     1 GTP         1 GROUP 0 A     ****
@<TRIPOS>MOLECULE
[[[5-(2-amino-6-oxo-1,3-dihydropurin-2-ylium-9-yl)-3,4-dihydroxy-tetrahydrofuran-2-yl]methoxy-oxido-phosphoryl]oxy-oxido-phosphoryl] hydrogen phosphate
   46    48     1     0     0
SMALL
USER_CHARGES

@<TRIPOS>ATOM
      1 PG         -0.1672    5.7860    6.0829 P.3       1 GTP         1.5400
      2 O1G         0.3875    4.4813    5.5561 O.co2     1 GTP        -0.8909
      3 O2G         0.7327    6.9823    6.2989 O.co2     1 GTP        -0.8909
      4 O3G        -0.9713    5.4846    7.4715 O.3       1 GTP        -0.7980
      5 O3B        -1.4336    6.2370    5.1574 O.3       1 GTP        -0.7612
      6 PB         -1.4719    6.7071    3.5943 P.3       1 GTP         1.5847
      7 O1B        -2.9147    6.8833    3.1762 O.co2     1 GTP        -0.8859
      8 O2B        -0.4472    7.7992    3.3825 O.co2     1 GTP        -0.8859
      9 O3A        -0.8637    5.3603    2.9008 O.3       1 GTP        -0.7486
     10 PA         -0.5790    5.0299    1.3261 P.3       1 GTP         1.5001
     11 O1A        -1.8994    5.0096    0.5869 O.co2     1 GTP        -0.8487
     12 O2A         0.5706    5.8913    0.8506 O.co2     1 GTP        -0.8487
     13 O5'         0.0178    3.5131    1.4595 O.3       1 GTP        -0.5474
     14 C5'        -0.8811    2.4285    1.6206 C.3       1 GTP         0.2547
     15 C4'        -0.1994    1.3333    2.4288 C.3       1 GTP         0.0926
     16 O4'        -1.1285    0.2356    2.5840 O.3       1 GTP        -0.3593
     17 C3'         1.0324    0.7610    1.7344 C.3       1 GTP         0.0907
     18 O3'         1.9175    0.2377    2.7247 O.3       1 GTP        -0.5209
     19 C2'         0.4468   -0.3802    0.9263 C.3       1 GTP         0.0305
     20 O2'         1.3993   -1.3703    0.5961 O.3       1 GTP        -0.5978
     21 C1'        -0.6159   -0.9100    1.8769 C.3       1 GTP         0.2339
     22 N9         -1.7127   -1.6108    1.2130 N.pl3     1 GTP        -0.1765
     23 C8         -1.6092   -2.7449    0.4467 C.ar      1 GTP         0.4947
     24 N7         -2.7778   -3.1416   -0.0191 N.2       1 GTP        -0.5802
     25 C5         -3.6725   -2.2253    0.4675 C.ar      1 GTP         0.2279
     26 C6         -5.0932   -2.2202    0.2371 C.ar      1 GTP         0.6513
     27 O6         -5.6933   -3.0474   -0.4337 O.2       1 GTP        -0.5111
     28 N1         -5.7390   -1.1061    0.8992 N.pl3     1 GTP        -0.4713
     29 C2         -5.0661   -0.1368    1.6789 C.ar      1 GTP         0.5256
     30 N2         -5.7774    0.8934    2.2749 N.pl3     1 GTP        -0.8665
     31 N3         -3.6705   -0.2251    1.8481 N.pl3     1 GTP        -0.5398
     32 C4         -3.0303   -1.2785    1.2262 C.ar      1 GTP        -0.0275
     33 HOG3       -1.3926    6.2367    7.9397 H         1 GTP         0.4161
     34 H5'        -1.7771    2.7849    2.1387 H         1 GTP         0.0348
     35 H5''       -1.1654    2.0541    0.6320 H         1 GTP         0.0348
     36 H4'         0.0403    1.7078    3.4343 H         1 GTP         0.1215
     37 H3'         1.5907    1.4859    1.1353 H         1 GTP         0.0576
     38 HO3'        2.6839   -0.1150    2.2479 H         1 GTP         0.3842
     39 H2'        -0.0017    0.0018    0.0005 H         1 GTP         0.0252
     40 HO2'        2.0953   -0.9375    0.0709 H         1 GTP         0.4224
     41 H1'        -0.1998   -1.6319    2.6178 H         1 GTP         0.0745
     42 H8         -0.6610   -3.2324    0.2653 H         1 GTP         0.1522
     43 HN1        -6.7487   -1.0139    0.7961 H         1 GTP         0.3518
     44 HN21       -5.2644    1.5388    2.8044 H         1 GTP         0.4761
     45 HN22       -6.7459    0.9078    2.1265 H         1 GTP         0.4761
     46 H46        -3.1807    0.4690    2.4089 H         1 GTP         0.5030
@<TRIPOS>BOND
     1    1    2 2
     2    1    3 1
     3    1    4 1
     4    1    5 1
     5    4   33 1
     6    5    6 1
     7    6    7 2
     8    6    8 1
     9    6    9 1
    10    9   10 1
    11   10   11 2
    12   10   12 1
    13   10   13 1
    14   13   14 1
    15   14   15 1
    16   14   34 1
    17   14   35 1
    18   15   16 1
    19   15   17 1
    20   15   36 1
    21   16   21 1
    22   17   18 1
    23   17   19 1
    24   17   37 1
    25   18   38 1
    26   19   20 1
    27   19   21 1
    28   19   39 1
    29   20   40 1
    30   21   22 1
    31   21   41 1
    32   22   23 ar
    33   22   32 ar
    34   23   24 ar
    35   23   42 1
    36   24   25 ar
    37   25   26 ar
    38   25   32 ar
    39   26   27 2
    40   26   28 ar
    41   28   29 ar
    42   28   43 1
    43   29   30 1
    44   29   31 ar
    45   30   44 1
    46   30   45 1
    47   31   32 ar
    48   31   46 1
@<TRIPOS>SUBSTRUCTURE
     1 GTP         1 GROUP 0 A     ****
@<TRIPOS>MOLECULE
[[[5-(2-amino-6-oxo-1,3-dihydropurin-2-ylium-9-yl)-3,4-dihydroxy-tetrahydrofuran-2-yl]methoxy-oxido-phosphoryl]oxy-oxido-phosphoryl] hydrogen phosphate
   46    48     1     0     0
SMALL
USER_CHARGES

@<TRIPOS>ATOM
      1 PG         -1.6279    7.5527   -2.2492 P.3       1 GTP         1.5400
      2 O1G        -2.2238    6.9811   -3.5163 O.co2     1 GTP        -0.8909
      3 O2G        -2.0621    8.9041   -1.7269 O.co2     1 GTP        -0.8909
      4 O3G        -0.0016    7.5511   -2.3942 O.3       1 GTP        -0.7980
      5 O3B        -1.7699    6.4524   -1.0521 O.3       1 GTP        -0.7612
      6 PB         -3.1074    5.8778   -0.3129 P.3       1 GTP         1.5847
      7 O1B        -3.7613    7.0067    0.4522 O.co2     1 GTP        -0.8859
      8 O2B        -3.8869    5.0298   -1.2931 O.co2     1 GTP        -0.8859
      9 O3A        -2.4032    4.8441    0.7361 O.3       1 GTP        -0.7486
     10 PA         -3.0798    3.8627    1.8536 P.3       1 GTP         1.5001
     11 O1A        -3.7618    4.7157    2.9012 O.co2     1 GTP        -0.8487
     12 O2A        -3.8250    2.7565    1.1390 O.co2     1 GTP        -0.8487
     13 O5'        -1.7336    3.1724    2.4750 O.3       1 GTP        -0.5474
     14 C5'        -0.8811    2.4285    1.6206 C.3       1 GTP         0.2547
     15 C4'        -0.1994    1.3333    2.4288 C.3       1 GTP         0.0926
     16 O4'        -1.1285    0.2356    2.5840 O.3       1 GTP        -0.3593
     17 C3'         1.0324    0.7610    1.7344 C.3       1 GTP         0.0907
     18 O3'         1.9175    0.2377    2.7247 O.3       1 GTP        -0.5209
     19 C2'         0.4468   -0.3802    0.9263 C.3       1 GTP         0.0305
     20 O2'         1.3993   -1.3703    0.5961 O.3       1 GTP        -0.5978
     21 C1'        -0.6159   -0.9100    1.8769 C.3       1 GTP         0.2339
     22 N9         -1.7127   -1.6108    1.2130 N.pl3     1 GTP        -0.1765
     23 C8         -3.0389   -1.2578    1.2391 C.ar      1 GTP         0.4947
     24 N7         -3.7909   -2.0880    0.5425 N.2       1 GTP        -0.5802
     25 C5         -2.9127   -3.0150    0.0458 C.ar      1 GTP         0.2279
     26 C6         -3.2467   -4.1411   -0.7860 C.ar      1 GTP         0.6513
     27 O6         -4.3761   -4.4189   -1.1621 O.2       1 GTP        -0.5111
     28 N1         -2.0748   -4.9191   -1.1296 N.pl3     1 GTP        -0.4713
     29 C2         -0.7595   -4.6181   -0.7058 C.ar      1 GTP         0.5256
     30 N2          0.2985   -5.4268   -1.0920 N.pl3     1 GTP        -0.8665
     31 N3         -0.5304   -3.4919    0.1084 N.pl3     1 GTP        -0.5398
     32 C4         -1.6318   -2.7332    0.4512 C.ar      1 GTP        -0.0275
     33 HOG3        0.5341    7.8947   -1.6477 H         1 GTP         0.4161
     34 H5'        -1.4800    1.9927    0.8146 H         1 GTP         0.0348
     35 H5''       -0.1367    3.1040    1.1872 H         1 GTP         0.0348
     36 H4'         0.0403    1.7078    3.4343 H         1 GTP         0.1215
     37 H3'         1.5907    1.4859    1.1353 H         1 GTP         0.0576
     38 HO3'        2.1521    0.9800    3.3017 H         1 GTP         0.3842
     39 H2'        -0.0017    0.0018    0.0005 H         1 GTP         0.0252
     40 HO2'        2.0953   -0.9375    0.0709 H         1 GTP         0.4224
     41 H1'        -0.1998   -1.6319    2.6178 H         1 GTP         0.0745
     42 H8         -3.3933   -0.3909    1.7800 H         1 GTP         0.1522
     43 HN1        -2.2071   -5.7408   -1.7178 H         1 GTP         0.3518
     44 HN21        1.1896   -5.1751   -0.7715 H         1 GTP         0.4761
     45 HN22        0.0846   -6.1966   -1.6593 H         1 GTP         0.4761
     46 H46         0.4142   -3.2695    0.4160 H         1 GTP         0.5030
@<TRIPOS>BOND
     1    1    2 2
     2    1    3 1
     3    1    4 1
     4    1    5 1
     5    4   33 1
     6    5    6 1
     7    6    7 2
     8    6    8 1
     9    6    9 1
    10    9   10 1
    11   10   11 2
    12   10   12 1
    13   10   13 1
    14   13   14 1
    15   14   15 1
    16   14   34 1
    17   14   35 1
    18   15   16 1
    19   15   17 1
    20   15   36 1
    21   16   21 1
    22   17   18 1
    23   17   19 1
    24   17   37 1
    25   18   38 1
    26   19   20 1
    27   19   21 1
    28   19   39 1
    29   20   40 1
    30   21   22 1
    31   21   41 1
    32   22   23 ar
    33   22   32 ar
    34   23   24 ar
    35   23   42 1
    36   24   25 ar
    37   25   26 ar
    38   25   32 ar
    39   26   27 2
    40   26   28 ar
    41   28   29 ar
    42   28   43 1
    43   29   30 1
    44   29   31 ar
    45   30   44 1
    46   30   45 1
    47   31   32 ar
    48   31   46 1
@<TRIPOS>SUBSTRUCTURE
     1 GTP         1 GROUP 0 A     ****
@<TRIPOS>MOLECULE
[[[5-(2-amino-6-oxo-1,3-dihydropurin-2-ylium-9-yl)-3,4-dihydroxy-tetrahydrofuran-2-yl]methoxy-oxido-phosphoryl]oxy-oxido-phosphoryl] hydrogen phosphate
   46    48     1     0     0
SMALL
USER_CHARGES

@<TRIPOS>ATOM
      1 PG         -3.7228    5.9839    4.0048 P.3       1 GTP         1.5400
      2 O1G        -5.0900    6.0163    3.3589 O.co2     1 GTP        -0.8909
      3 O2G        -2.9835    4.6781    4.1944 O.co2     1 GTP        -0.8909
      4 O3G        -3.8127    6.7430    5.4476 O.3       1 GTP        -0.7980
      5 O3B        -2.7452    7.0379    3.2321 O.3       1 GTP        -0.7612
      6 PB         -2.1636    7.0000    1.7070 P.3       1 GTP         1.5847
      7 O1B        -3.3254    6.8630    0.7483 O.co2     1 GTP        -0.8859
      8 O2B        -1.1291    8.0916    1.5463 O.co2     1 GTP        -0.8859
      9 O3A        -1.3431    5.5904    1.7745 O.3       1 GTP        -0.7486
     10 PA         -0.4665    4.8322    0.6228 P.3       1 GTP         1.5001
     11 O1A        -1.3914    4.4265   -0.5043 O.co2     1 GTP        -0.8487
     12 O2A         0.7845    5.6405    0.3557 O.co2     1 GTP        -0.8487
     13 O5'         0.0178    3.5131    1.4595 O.3       1 GTP        -0.5474
     14 C5'        -0.8811    2.4285    1.6206 C.3       1 GTP         0.2547
     15 C4'        -0.1994    1.3333    2.4288 C.3       1 GTP         0.0926
     16 O4'        -1.1285    0.2356    2.5840 O.3       1 GTP        -0.3593
     17 C3'         1.0324    0.7610    1.7344 C.3       1 GTP         0.0907
     18 O3'         1.9175    0.2377    2.7247 O.3       1 GTP        -0.5209
     19 C2'         0.4468   -0.3802    0.9263 C.3       1 GTP         0.0305
     20 O2'         1.3993   -1.3703    0.5961 O.3       1 GTP        -0.5978
     21 C1'        -0.6159   -0.9100    1.8769 C.3       1 GTP         0.2339
     22 N9         -1.7127   -1.6108    1.2130 N.pl3     1 GTP        -0.1765
     23 C8         -3.0389   -1.2578    1.2391 C.ar      1 GTP         0.4947
     24 N7         -3.7909   -2.0880    0.5425 N.2       1 GTP        -0.5802
     25 C5         -2.9127   -3.0150    0.0458 C.ar      1 GTP         0.2279
     26 C6         -3.2467   -4.1411   -0.7860 C.ar      1 GTP         0.6513
     27 O6         -4.3761   -4.4189   -1.1621 O.2       1 GTP        -0.5111
     28 N1         -2.0748   -4.9191   -1.1296 N.pl3     1 GTP        -0.4713
     29 C2         -0.7595   -4.6181   -0.7058 C.ar      1 GTP         0.5256
     30 N2          0.2985   -5.4268   -1.0920 N.pl3     1 GTP        -0.8665
     31 N3         -0.5304   -3.4919    0.1084 N.pl3     1 GTP        -0.5398
     32 C4         -1.6318   -2.7332    0.4512 C.ar      1 GTP        -0.0275
     33 HOG3       -3.0000    6.8062    5.9933 H         1 GTP         0.4161
     34 H5'        -1.7771    2.7849    2.1387 H         1 GTP         0.0348
     35 H5''       -1.1654    2.0541    0.6320 H         1 GTP         0.0348
     36 H4'         0.0403    1.7078    3.4343 H         1 GTP         0.1215
     37 H3'         1.5907    1.4859    1.1353 H         1 GTP         0.0576
     38 HO3'        2.1521    0.9800    3.3017 H         1 GTP         0.3842
     39 H2'        -0.0017    0.0018    0.0005 H         1 GTP         0.0252
     40 HO2'        1.7495   -1.7243    1.4324 H         1 GTP         0.4224
     41 H1'        -0.1998   -1.6319    2.6178 H         1 GTP         0.0745
     42 H8         -3.3933   -0.3909    1.7800 H         1 GTP         0.1522
     43 HN1        -2.2071   -5.7408   -1.7178 H         1 GTP         0.3518
     44 HN21        0.0848   -6.1964   -1.6597 H         1 GTP         0.4761
     45 HN22        1.1896   -5.1747   -0.7719 H         1 GTP         0.4761
     46 H46         0.4142   -3.2695    0.4160 H         1 GTP         0.5030
@<TRIPOS>BOND
     1    1    2 2
     2    1    3 1
     3    1    4 1
     4    1    5 1
     5    4   33 1
     6    5    6 1
     7    6    7 2
     8    6    8 1
     9    6    9 1
    10    9   10 1
    11   10   11 2
    12   10   12 1
    13   10   13 1
    14   13   14 1
    15   14   15 1
    16   14   34 1
    17   14   35 1
    18   15   16 1
    19   15   17 1
    20   15   36 1
    21   16   21 1
    22   17   18 1
    23   17   19 1
    24   17   37 1
    25   18   38 1
    26   19   20 1
    27   19   21 1
    28   19   39 1
    29   20   40 1
    30   21   22 1
    31   21   41 1
    32   22   23 ar
    33   22   32 ar
    34   23   24 ar
    35   23   42 1
    36   24   25 ar
    37   25   26 ar
    38   25   32 ar
    39   26   27 2
    40   26   28 ar
    41   28   29 ar
    42   28   43 1
    43   29   30 1
    44   29   31 ar
    45   30   44 1
    46   30   45 1
    47   31   32 ar
    48   31   46 1
@<TRIPOS>SUBSTRUCTURE
     1 GTP         1 GROUP 0 A     ****
@<TRIPOS>MOLECULE
[[[5-(2-amino-6-oxo-1,3-dihydropurin-2-ylium-9-yl)-3,4-dihydroxy-tetrahydrofuran-2-yl]methoxy-oxido-phosphoryl]oxy-oxido-phosphoryl] hydrogen phosphate
   46    48     1     0     0
SMALL
USER_CHARGES

@<TRIPOS>ATOM
      1 PG         -6.4632   -0.1684   -0.3511 P.3       1 GTP         1.5400
      2 O1G        -6.7557    0.3560   -1.7393 O.co2     1 GTP        -0.8909
      3 O2G        -6.0999   -1.6197   -0.1291 O.co2     1 GTP        -0.8909
      4 O3G        -7.7210    0.2057    0.6204 O.3       1 GTP        -0.7980
      5 O3B        -5.3260    0.7738    0.3438 O.3       1 GTP        -0.7612
      6 PB         -5.2892    2.3938    0.5436 P.3       1 GTP         1.5847
      7 O1B        -5.2049    3.0483   -0.8173 O.co2     1 GTP        -0.8859
      8 O2B        -6.3469    2.7911    1.5490 O.co2     1 GTP        -0.8859
      9 O3A        -3.8516    2.5312    1.3047 O.3       1 GTP        -0.7486
     10 PA         -3.0798    3.8627    1.8536 P.3       1 GTP         1.5001
     11 O1A        -2.7213    4.7387    0.6727 O.co2     1 GTP        -0.8487
     12 O2A        -3.8485    4.4163    3.0335 O.co2     1 GTP        -0.8487
     13 O5'        -1.7336    3.1724    2.4750 O.3       1 GTP        -0.5474
     14 C5'        -0.8811    2.4285    1.6206 C.3       1 GTP         0.2547
     15 C4'        -0.1994    1.3333    2.4288 C.3       1 GTP         0.0926
     16 O4'        -1.1285    0.2356    2.5840 O.3       1 GTP        -0.3593
     17 C3'         1.0324    0.7610    1.7344 C.3       1 GTP         0.0907
     18 O3'         1.9175    0.2377    2.7247 O.3       1 GTP        -0.5209
     19 C2'         0.4468   -0.3802    0.9263 C.3       1 GTP         0.0305
     20 O2'         1.3993   -1.3703    0.5961 O.3       1 GTP        -0.5978
     21 C1'        -0.6159   -0.9100    1.8769 C.3       1 GTP         0.2339
     22 N9         -1.7127   -1.6108    1.2130 N.pl3     1 GTP        -0.1765
     23 C8         -2.5534   -1.0907    0.2607 C.ar      1 GTP         0.4947
     24 N7         -3.4469   -1.9695   -0.1508 N.2       1 GTP        -0.5802
     25 C5         -3.1705   -3.1041    0.5657 C.ar      1 GTP         0.2279
     26 C6         -3.8738   -4.3568    0.4777 C.ar      1 GTP         0.6513
     27 O6         -4.8240   -4.5720   -0.2607 O.2       1 GTP        -0.5111
     28 N1         -3.3198   -5.3462    1.3780 N.pl3     1 GTP        -0.4713
     29 C2         -2.2226   -5.1203    2.2413 C.ar      1 GTP         0.5256
     30 N2         -1.7649   -6.1367    3.0659 N.pl3     1 GTP        -0.8665
     31 N3         -1.5969   -3.8585    2.2574 N.pl3     1 GTP        -0.5398
     32 C4         -2.1068   -2.8965    1.4082 C.ar      1 GTP        -0.0275
     33 HOG3       -7.9518    1.1513    0.7422 H         1 GTP         0.4161
     34 H5'        -1.4800    1.9927    0.8146 H         1 GTP         0.0348
     35 H5''       -0.1367    3.1040    1.1872 H         1 GTP         0.0348
     36 H4'         0.0403    1.7078    3.4343 H         1 GTP         0.1215
     37 H3'         1.5907    1.4859    1.1353 H         1 GTP         0.0576
     38 HO3'        2.1521    0.9800    3.3017 H         1 GTP         0.3842
     39 H2'        -0.0017    0.0018    0.0005 H         1 GTP         0.0252
     40 HO2'        2.0953   -0.9375    0.0709 H         1 GTP         0.4224
     41 H1'        -0.1998   -1.6319    2.6178 H         1 GTP         0.0745
     42 H8         -2.4657   -0.0713   -0.0897 H         1 GTP         0.1522
     43 HN1        -3.7505   -6.2699    1.3904 H         1 GTP         0.3518
     44 HN21       -1.0023   -5.9289    3.6451 H         1 GTP         0.4761
     45 HN22       -2.2347   -6.9951    3.0150 H         1 GTP         0.4761
     46 H46        -0.8062   -3.6900    2.8760 H         1 GTP         0.5030
@<TRIPOS>BOND
     1    1    2 2
     2    1    3 1
     3    1    4 1
     4    1    5 1
     5    4   33 1
     6    5    6 1
     7    6    7 2
     8    6    8 1
     9    6    9 1
    10    9   10 1
    11   10   11 2
    12   10   12 1
    13   10   13 1
    14   13   14 1
    15   14   15 1
    16   14   34 1
    17   14   35 1
    18   15   16 1
    19   15   17 1
    20   15   36 1
    21   16   21 1
    22   17   18 1
    23   17   19 1
    24   17   37 1
    25   18   38 1
    26   19   20 1
    27   19   21 1
    28   19   39 1
    29   20   40 1
    30   21   22 1
    31   21   41 1
    32   22   23 ar
    33   22   32 ar
    34   23   24 ar
    35   23   42 1
    36   24   25 ar
    37   25   26 ar
    38   25   32 ar
    39   26   27 2
    40   26   28 ar
    41   28   29 ar
    42   28   43 1
    43   29   30 1
    44   29   31 ar
    45   30   44 1
    46   30   45 1
    47   31   32 ar
    48   31   46 1
@<TRIPOS>SUBSTRUCTURE
     1 GTP         1 GROUP 0 A     ****
@<TRIPOS>MOLECULE
[[[5-(2-amino-6-oxo-1,3-dihydropurin-2-ylium-9-yl)-3,4-dihydroxy-tetrahydrofuran-2-yl]methoxy-oxido-phosphoryl]oxy-oxido-phosphoryl] hydrogen phosphate
   46    48     1     0     0
SMALL
USER_CHARGES

@<TRIPOS>ATOM
      1 PG         -5.2065    6.7567   -0.4646 P.3       1 GTP         1.5400
      2 O1G        -6.2205    6.8414    0.6544 O.co2     1 GTP        -0.8909
      3 O2G        -4.8061    7.9885   -1.2456 O.co2     1 GTP        -0.8909
      4 O3G        -5.6929    5.6094   -1.5196 O.3       1 GTP        -0.7980
      5 O3B        -3.8596    6.0233    0.0936 O.3       1 GTP        -0.7612
      6 PB         -2.7767    6.5305    1.2053 P.3       1 GTP         1.5847
      7 O1B        -2.0624    7.7495    0.6654 O.co2     1 GTP        -0.8859
      8 O2B        -3.4341    6.5366    2.5674 O.co2     1 GTP        -0.8859
      9 O3A        -1.7628    5.2512    1.1860 O.3       1 GTP        -0.7486
     10 PA         -0.3962    4.9846    2.0409 P.3       1 GTP         1.5001
     11 O1A         0.6371    6.0152    1.6404 O.co2     1 GTP        -0.8487
     12 O2A        -0.7667    4.7715    3.4925 O.co2     1 GTP        -0.8487
     13 O5'         0.0178    3.5131    1.4595 O.3       1 GTP        -0.5474
     14 C5'        -0.8811    2.4285    1.6206 C.3       1 GTP         0.2547
     15 C4'        -0.1994    1.3333    2.4288 C.3       1 GTP         0.0926
     16 O4'        -1.1285    0.2356    2.5840 O.3       1 GTP        -0.3593
     17 C3'         1.0324    0.7610    1.7344 C.3       1 GTP         0.0907
     18 O3'         1.9175    0.2377    2.7247 O.3       1 GTP        -0.5209
     19 C2'         0.4468   -0.3802    0.9263 C.3       1 GTP         0.0305
     20 O2'         1.3993   -1.3703    0.5961 O.3       1 GTP        -0.5978
     21 C1'        -0.6159   -0.9100    1.8769 C.3       1 GTP         0.2339
     22 N9         -1.7127   -1.6108    1.2130 N.pl3     1 GTP        -0.1765
     23 C8         -2.5534   -1.0907    0.2607 C.ar      1 GTP         0.4947
     24 N7         -3.4469   -1.9695   -0.1508 N.2       1 GTP        -0.5802
     25 C5         -3.1705   -3.1041    0.5657 C.ar      1 GTP         0.2279
     26 C6         -3.8738   -4.3568    0.4777 C.ar      1 GTP         0.6513
     27 O6         -4.8240   -4.5720   -0.2607 O.2       1 GTP        -0.5111
     28 N1         -3.3198   -5.3462    1.3780 N.pl3     1 GTP        -0.4713
     29 C2         -2.2226   -5.1203    2.2413 C.ar      1 GTP         0.5256
     30 N2         -1.7649   -6.1367    3.0659 N.pl3     1 GTP        -0.8665
     31 N3         -1.5969   -3.8585    2.2574 N.pl3     1 GTP        -0.5398
     32 C4         -2.1068   -2.8965    1.4082 C.ar      1 GTP        -0.0275
     33 HOG3       -5.1359    5.4335   -2.3076 H         1 GTP         0.4161
     34 H5'        -1.7771    2.7849    2.1387 H         1 GTP         0.0348
     35 H5''       -1.1654    2.0541    0.6320 H         1 GTP         0.0348
     36 H4'         0.0403    1.7078    3.4343 H         1 GTP         0.1215
     37 H3'         1.5907    1.4859    1.1353 H         1 GTP         0.0576
     38 HO3'        2.6839   -0.1150    2.2479 H         1 GTP         0.3842
     39 H2'        -0.0017    0.0018    0.0005 H         1 GTP         0.0252
     40 HO2'        2.0953   -0.9375    0.0709 H         1 GTP         0.4224
     41 H1'        -0.1998   -1.6319    2.6178 H         1 GTP         0.0745
     42 H8         -2.4657   -0.0713   -0.0897 H         1 GTP         0.1522
     43 HN1        -3.7505   -6.2699    1.3904 H         1 GTP         0.3518
     44 HN21       -1.0023   -5.9289    3.6451 H         1 GTP         0.4761
     45 HN22       -2.2347   -6.9951    3.0150 H         1 GTP         0.4761
     46 H46        -0.8062   -3.6900    2.8760 H         1 GTP         0.5030
@<TRIPOS>BOND
     1    1    2 2
     2    1    3 1
     3    1    4 1
     4    1    5 1
     5    4   33 1
     6    5    6 1
     7    6    7 2
     8    6    8 1
     9    6    9 1
    10    9   10 1
    11   10   11 2
    12   10   12 1
    13   10   13 1
    14   13   14 1
    15   14   15 1
    16   14   34 1
    17   14   35 1
    18   15   16 1
    19   15   17 1
    20   15   36 1
    21   16   21 1
    22   17   18 1
    23   17   19 1
    24   17   37 1
    25   18   38 1
    26   19   20 1
    27   19   21 1
    28   19   39 1
    29   20   40 1
    30   21   22 1
    31   21   41 1
    32   22   23 ar
    33   22   32 ar
    34   23   24 ar
    35   23   42 1
    36   24   25 ar
    37   25   26 ar
    38   25   32 ar
    39   26   27 2
    40   26   28 ar
    41   28   29 ar
    42   28   43 1
    43   29   30 1
    44   29   31 ar
    45   30   44 1
    46   30   45 1
    47   31   32 ar
    48   31   46 1
@<TRIPOS>SUBSTRUCTURE
     1 GTP         1 GROUP 0 A     ****
@<TRIPOS>MOLECULE
[[[5-(2-amino-6-oxo-1,3-dihydropurin-2-ylium-9-yl)-3,4-dihydroxy-tetrahydrofuran-2-yl]methoxy-oxido-phosphoryl]oxy-oxido-phosphoryl] hydrogen phosphate
   46    48     1     0     0
SMALL
USER_CHARGES

@<TRIPOS>ATOM
      1 PG         -6.4507    1.4468    6.0921 P.3       1 GTP         1.5400
      2 O1G        -7.5809    0.9383    5.2253 O.co2     1 GTP        -0.8909
      3 O2G        -6.0698    0.7333    7.3702 O.co2     1 GTP        -0.8909
      4 O3G        -6.7291    3.0179    6.4386 O.3       1 GTP        -0.7980
      5 O3B        -5.1159    1.6303    5.1708 O.3       1 GTP        -0.7612
      6 PB         -4.2010    0.5060    4.4195 P.3       1 GTP         1.5847
      7 O1B        -3.5336   -0.3557    5.4681 O.co2     1 GTP        -0.8859
      8 O2B        -4.9973   -0.1007    3.2857 O.co2     1 GTP        -0.8859
      9 O3A        -3.0915    1.4872    3.7332 O.3       1 GTP        -0.7486
     10 PA         -3.2890    2.7005    2.6567 P.3       1 GTP         1.5001
     11 O1A        -3.8147    2.1209    1.3614 O.co2     1 GTP        -0.8487
     12 O2A        -3.9964    3.8478    3.3444 O.co2     1 GTP        -0.8487
     13 O5'        -1.7336    3.1724    2.4750 O.3       1 GTP        -0.5474
     14 C5'        -0.8811    2.4285    1.6206 C.3       1 GTP         0.2547
     15 C4'        -0.1994    1.3333    2.4288 C.3       1 GTP         0.0926
     16 O4'        -1.1285    0.2356    2.5840 O.3       1 GTP        -0.3593
     17 C3'         1.0324    0.7610    1.7344 C.3       1 GTP         0.0907
     18 O3'         1.9175    0.2377    2.7247 O.3       1 GTP        -0.5209
     19 C2'         0.4468   -0.3802    0.9263 C.3       1 GTP         0.0305
     20 O2'         1.3993   -1.3703    0.5961 O.3       1 GTP        -0.5978
     21 C1'        -0.6159   -0.9100    1.8769 C.3       1 GTP         0.2339
     22 N9         -1.7127   -1.6108    1.2130 N.pl3     1 GTP        -0.1765
     23 C8         -2.5534   -1.0907    0.2607 C.ar      1 GTP         0.4947
     24 N7         -3.4469   -1.9695   -0.1508 N.2       1 GTP        -0.5802
     25 C5         -3.1705   -3.1041    0.5657 C.ar      1 GTP         0.2279
     26 C6         -3.8738   -4.3568    0.4777 C.ar      1 GTP         0.6513
     27 O6         -4.8240   -4.5720   -0.2607 O.2       1 GTP        -0.5111
     28 N1         -3.3198   -5.3462    1.3780 N.pl3     1 GTP        -0.4713
     29 C2         -2.2226   -5.1203    2.2413 C.ar      1 GTP         0.5256
     30 N2         -1.7649   -6.1367    3.0659 N.pl3     1 GTP        -0.8665
     31 N3         -1.5969   -3.8585    2.2574 N.pl3     1 GTP        -0.5398
     32 C4         -2.1068   -2.8965    1.4082 C.ar      1 GTP        -0.0275
     33 HOG3       -6.0795    3.4949    6.9978 H         1 GTP         0.4161
     34 H5'        -1.4800    1.9927    0.8146 H         1 GTP         0.0348
     35 H5''       -0.1367    3.1040    1.1872 H         1 GTP         0.0348
     36 H4'         0.0403    1.7078    3.4343 H         1 GTP         0.1215
     37 H3'         1.5907    1.4859    1.1353 H         1 GTP         0.0576
     38 HO3'        2.1521    0.9800    3.3017 H         1 GTP         0.3842
     39 H2'        -0.0017    0.0018    0.0005 H         1 GTP         0.0252
     40 HO2'        0.9369   -2.0558    0.0825 H         1 GTP         0.4224
     41 H1'        -0.1998   -1.6319    2.6178 H         1 GTP         0.0745
     42 H8         -2.4657   -0.0713   -0.0897 H         1 GTP         0.1522
     43 HN1        -3.7505   -6.2699    1.3904 H         1 GTP         0.3518
     44 HN21       -1.0023   -5.9289    3.6451 H         1 GTP         0.4761
     45 HN22       -2.2347   -6.9951    3.0150 H         1 GTP         0.4761
     46 H46        -0.8062   -3.6900    2.8760 H         1 GTP         0.5030
@<TRIPOS>BOND
     1    1    2 2
     2    1    3 1
     3    1    4 1
     4    1    5 1
     5    4   33 1
     6    5    6 1
     7    6    7 2
     8    6    8 1
     9    6    9 1
    10    9   10 1
    11   10   11 2
    12   10   12 1
    13   10   13 1
    14   13   14 1
    15   14   15 1
    16   14   34 1
    17   14   35 1
    18   15   16 1
    19   15   17 1
    20   15   36 1
    21   16   21 1
    22   17   18 1
    23   17   19 1
    24   17   37 1
    25   18   38 1
    26   19   20 1
    27   19   21 1
    28   19   39 1
    29   20   40 1
    30   21   22 1
    31   21   41 1
    32   22   23 ar
    33   22   32 ar
    34   23   24 ar
    35   23   42 1
    36   24   25 ar
    37   25   26 ar
    38   25   32 ar
    39   26   27 2
    40   26   28 ar
    41   28   29 ar
    42   28   43 1
    43   29   30 1
    44   29   31 ar
    45   30   44 1
    46   30   45 1
    47   31   32 ar
    48   31   46 1
@<TRIPOS>SUBSTRUCTURE
     1 GTP         1 GROUP 0 A     ****
@<TRIPOS>MOLECULE
[[[5-(2-amino-6-oxo-1,3-dihydropurin-2-ylium-9-yl)-3,4-dihydroxy-tetrahydrofuran-2-yl]methoxy-oxido-phosphoryl]oxy-oxido-phosphoryl] hydrogen phosphate
   46    48     1     0     0
SMALL
USER_CHARGES

@<TRIPOS>ATOM
      1 PG         -2.5081    4.2059   -2.5157 P.3       1 GTP         1.5400
      2 O1G        -1.2954    3.9057   -1.6633 O.co2     1 GTP        -0.8909
      3 O2G        -3.1584    3.1250   -3.3503 O.co2     1 GTP        -0.8909
      4 O3G        -2.1592    5.4712   -3.4869 O.3       1 GTP        -0.7980
      5 O3B        -3.6478    4.9147   -1.5871 O.3       1 GTP        -0.7612
      6 PB         -4.5154    4.3030   -0.3467 P.3       1 GTP         1.5847
      7 O1B        -5.3377    5.4153    0.2649 O.co2     1 GTP        -0.8859
      8 O2B        -5.1465    2.9992   -0.7819 O.co2     1 GTP        -0.8859
      9 O3A        -3.2920    3.9119    0.6609 O.3       1 GTP        -0.7486
     10 PA         -3.3347    3.2338    2.1468 P.3       1 GTP         1.5001
     11 O1A        -4.0274    4.1866    3.0968 O.co2     1 GTP        -0.8487
     12 O2A        -3.7889    1.7968    2.0106 O.co2     1 GTP        -0.8487
     13 O5'        -1.7336    3.1724    2.4750 O.3       1 GTP        -0.5474
     14 C5'        -0.8811    2.4285    1.6206 C.3       1 GTP         0.2547
     15 C4'        -0.1994    1.3333    2.4288 C.3       1 GTP         0.0926
     16 O4'        -1.1285    0.2356    2.5840 O.3       1 GTP        -0.3593
     17 C3'         1.0324    0.7610    1.7344 C.3       1 GTP         0.0907
     18 O3'         1.9175    0.2377    2.7247 O.3       1 GTP        -0.5209
     19 C2'         0.4468   -0.3802    0.9263 C.3       1 GTP         0.0305
     20 O2'         1.3993   -1.3703    0.5961 O.3       1 GTP        -0.5978
     21 C1'        -0.6159   -0.9100    1.8769 C.3       1 GTP         0.2339
     22 N9         -1.7127   -1.6108    1.2130 N.pl3     1 GTP        -0.1765
     23 C8         -1.6311   -2.3341    0.0493 C.ar      1 GTP         0.4947
     24 N7         -2.7933   -2.8506   -0.3007 N.2       1 GTP        -0.5802
     25 C5         -3.6607   -2.4436    0.6786 C.ar      1 GTP         0.2279
     26 C6         -5.0651   -2.7506    0.7505 C.ar      1 GTP         0.6513
     27 O6         -5.6735   -3.4256   -0.0671 O.2       1 GTP        -0.5111
     28 N1         -5.6834   -2.1585    1.9182 N.pl3     1 GTP        -0.4713
     29 C2         -5.0007   -1.3738    2.8765 C.ar      1 GTP         0.5256
     30 N2         -5.6847   -0.8521    3.9640 N.pl3     1 GTP        -0.8665
     31 N3         -3.6227   -1.1271    2.7212 N.pl3     1 GTP        -0.5398
     32 C4         -3.0090   -1.6802    1.6149 C.ar      1 GTP        -0.0275
     33 HOG3       -2.8507    5.7897   -4.1055 H         1 GTP         0.4161
     34 H5'        -1.4800    1.9927    0.8146 H         1 GTP         0.0348
     35 H5''       -0.1367    3.1040    1.1872 H         1 GTP         0.0348
     36 H4'         0.0403    1.7078    3.4343 H         1 GTP         0.1215
     37 H3'         1.5907    1.4859    1.1353 H         1 GTP         0.0576
     38 HO3'        2.6839   -0.1150    2.2479 H         1 GTP         0.3842
     39 H2'        -0.0017    0.0018    0.0005 H         1 GTP         0.0252
     40 HO2'        2.0953   -0.9375    0.0709 H         1 GTP         0.4224
     41 H1'        -0.1998   -1.6319    2.6178 H         1 GTP         0.0745
     42 H8         -0.7029   -2.4474   -0.4941 H         1 GTP         0.1522
     43 HN1        -6.6800   -2.3183    2.0594 H         1 GTP         0.3518
     44 HN21       -5.1660   -0.3153    4.5987 H         1 GTP         0.4761
     45 HN22       -6.6415   -1.0545    4.0252 H         1 GTP         0.4761
     46 H46        -3.1256   -0.5638    3.4080 H         1 GTP         0.5030
@<TRIPOS>BOND
     1    1    2 2
     2    1    3 1
     3    1    4 1
     4    1    5 1
     5    4   33 1
     6    5    6 1
     7    6    7 2
     8    6    8 1
     9    6    9 1
    10    9   10 1
    11   10   11 2
    12   10   12 1
    13   10   13 1
    14   13   14 1
    15   14   15 1
    16   14   34 1
    17   14   35 1
    18   15   16 1
    19   15   17 1
    20   15   36 1
    21   16   21 1
    22   17   18 1
    23   17   19 1
    24   17   37 1
    25   18   38 1
    26   19   20 1
    27   19   21 1
    28   19   39 1
    29   20   40 1
    30   21   22 1
    31   21   41 1
    32   22   23 ar
    33   22   32 ar
    34   23   24 ar
    35   23   42 1
    36   24   25 ar
    37   25   26 ar
    38   25   32 ar
    39   26   27 2
    40   26   28 ar
    41   28   29 ar
    42   28   43 1
    43   29   30 1
    44   29   31 ar
    45   30   44 1
    46   30   45 1
    47   31   32 ar
    48   31   46 1
@<TRIPOS>SUBSTRUCTURE
     1 GTP         1 GROUP 0 A     ****
@<TRIPOS>MOLECULE
[[[5-(2-amino-6-oxo-1,3-dihydropurin-2-ylium-9-yl)-3,4-dihydroxy-tetrahydrofuran-2-yl]methoxy-oxido-phosphoryl]oxy-oxido-phosphoryl] hydrogen phosphate
   46    48     1     0     0
SMALL
USER_CHARGES

@<TRIPOS>ATOM
      1 PG          7.2962    2.7256    4.3153 P.3       1 GTP         1.5400
      2 O1G         7.9998    3.9522    4.8518 O.co2     1 GTP        -0.8909
      3 O2G         5.8224    2.7607    3.9769 O.co2     1 GTP        -0.8909
      4 O3G         7.5631    1.4841    5.3416 O.3       1 GTP        -0.7980
      5 O3B         8.1218    2.1613    3.0255 O.3       1 GTP        -0.7612
      6 PB          8.3466    2.8302    1.5532 P.3       1 GTP         1.5847
      7 O1B         8.9229    4.2169    1.7336 O.co2     1 GTP        -0.8859
      8 O2B         9.0000    1.8134    0.6440 O.co2     1 GTP        -0.8859
      9 O3A         6.7894    2.9445    1.0769 O.3       1 GTP        -0.7486
     10 PA          6.1593    3.5241   -0.3148 P.3       1 GTP         1.5001
     11 O1A         6.4655    5.0032   -0.4087 O.co2     1 GTP        -0.8487
     12 O2A         6.5181    2.5780   -1.4399 O.co2     1 GTP        -0.8487
     13 O5'         4.5670    3.2937   -0.0211 O.3       1 GTP        -0.5474
     14 C5'         4.0922    1.9801    0.2227 C.3       1 GTP         0.2547
     15 C4'         2.5944    2.0310    0.4653 C.3       1 GTP         0.0926
     16 O4'         1.9327    2.5740   -0.6889 O.3       1 GTP        -0.3593
     17 C3'         1.9685    0.6634    0.6767 C.3       1 GTP         0.0907
     18 O3'         2.1425    0.1975    1.9977 O.3       1 GTP        -0.5209
     19 C2'         0.5176    0.9128    0.3099 C.3       1 GTP         0.0305
     20 O2'        -0.2103    1.4454    1.4152 O.3       1 GTP        -0.5978
     21 C1'         0.6219    1.9765   -0.7844 C.3       1 GTP         0.2339
     22 N9          0.4237    1.4496   -2.1357 N.pl3     1 GTP        -0.1765
     23 C8          1.3988    0.9691   -2.9736 C.ar      1 GTP         0.4947
     24 N7          0.9092    0.5634   -4.1293 N.2       1 GTP        -0.5802
     25 C5         -0.4383    0.7914   -4.0325 C.ar      1 GTP         0.2279
     26 C6         -1.4217    0.5138   -5.0461 C.ar      1 GTP         0.6513
     27 O6         -1.1759    0.0306   -6.1417 O.2       1 GTP        -0.5111
     28 N1         -2.7543    0.8794   -4.6134 N.pl3     1 GTP        -0.4713
     29 C2         -3.0626    1.4402   -3.3523 C.ar      1 GTP         0.5256
     30 N2         -4.3747    1.7544   -3.0321 N.pl3     1 GTP        -0.8665
     31 N3         -2.0304    1.6759   -2.4233 N.pl3     1 GTP        -0.5398
     32 C4         -0.7497    1.3366   -2.8118 C.ar      1 GTP        -0.0275
     33 HOG3        7.1689    0.6109    5.1306 H         1 GTP         0.4161
     34 H5'         4.3179    1.3548   -0.6470 H         1 GTP         0.0348
     35 H5''        4.6083    1.5737    1.0983 H         1 GTP         0.0348
     36 H4'         2.3752    2.7029    1.3156 H         1 GTP         0.1215
     37 H3'         2.4336   -0.1217   -0.0015 H         1 GTP         0.0576
     38 HO3'        1.7160   -0.6716    2.0397 H         1 GTP         0.3842
     39 H2'         0.0316    0.0155   -0.0339 H         1 GTP         0.0252
     40 HO2'       -1.1270    1.5823    1.1180 H         1 GTP         0.4224
     41 H1'        -0.1474    2.7798   -0.6651 H         1 GTP         0.0745
     42 H8          2.4413    0.9409   -2.6872 H         1 GTP         0.1522
     43 HN1        -3.5236    0.7214   -5.2629 H         1 GTP         0.3518
     44 HN21       -4.5350    2.1409   -2.1461 H         1 GTP         0.4761
     45 HN22       -5.0542    1.5695   -3.7134 H         1 GTP         0.4761
     46 H46        -2.2462    2.0786   -1.5136 H         1 GTP         0.5030
@<TRIPOS>BOND
     1    1    2 2
     2    1    3 1
     3    1    4 1
     4    1    5 1
     5    4   33 1
     6    5    6 1
     7    6    7 2
     8    6    8 1
     9    6    9 1
    10    9   10 1
    11   10   11 2
    12   10   12 1
    13   10   13 1
    14   13   14 1
    15   14   15 1
    16   14   34 1
    17   14   35 1
    18   15   16 1
    19   15   17 1
    20   15   36 1
    21   16   21 1
    22   17   18 1
    23   17   19 1
    24   17   37 1
    25   18   38 1
    26   19   20 1
    27   19   21 1
    28   19   39 1
    29   20   40 1
    30   21   22 1
    31   21   41 1
    32   22   23 ar
    33   22   32 ar
    34   23   24 ar
    35   23   42 1
    36   24   25 ar
    37   25   26 ar
    38   25   32 ar
    39   26   27 2
    40   26   28 ar
    41   28   29 ar
    42   28   43 1
    43   29   30 1
    44   29   31 ar
    45   30   44 1
    46   30   45 1
    47   31   32 ar
    48   31   46 1
@<TRIPOS>SUBSTRUCTURE
     1 GTP         1 GROUP 0 A     ****
@<TRIPOS>MOLECULE
[[[5-(2-amino-6-oxo-1,3-dihydropurin-2-ylium-9-yl)-3,4-dihydroxy-tetrahydrofuran-2-yl]methoxy-oxido-phosphoryl]oxy-oxido-phosphoryl] hydrogen phosphate
   46    48     1     0     0
SMALL
USER_CHARGES

@<TRIPOS>ATOM
      1 PG         -2.8263    3.8634   -2.5275 P.3       1 GTP         1.5400
      2 O1G        -1.5698    4.6383   -2.1982 O.co2     1 GTP        -0.8909
      3 O2G        -2.7825    2.3669   -2.7429 O.co2     1 GTP        -0.8909
      4 O3G        -3.5359    4.5535   -3.8260 O.3       1 GTP        -0.7980
      5 O3B        -3.9682    4.2041   -1.4123 O.3       1 GTP        -0.7612
      6 PB         -4.0147    3.8464    0.1800 P.3       1 GTP         1.5847
      7 O1B        -5.2287    4.5102    0.7908 O.co2     1 GTP        -0.8859
      8 O2B        -3.7444    2.3695    0.3619 O.co2     1 GTP        -0.8859
      9 O3A        -2.6652    4.6274    0.6634 O.3       1 GTP        -0.7486
     10 PA         -2.0037    4.7528    2.1522 P.3       1 GTP         1.5001
     11 O1A        -0.6902    5.4959    2.0400 O.co2     1 GTP        -0.8487
     12 O2A        -3.0754    5.2004    3.1222 O.co2     1 GTP        -0.8487
     13 O5'        -1.7336    3.1724    2.4750 O.3       1 GTP        -0.5474
     14 C5'        -0.8811    2.4285    1.6206 C.3       1 GTP         0.2547
     15 C4'        -0.1994    1.3333    2.4288 C.3       1 GTP         0.0926
     16 O4'        -1.1285    0.2356    2.5840 O.3       1 GTP        -0.3593
     17 C3'         1.0324    0.7610    1.7344 C.3       1 GTP         0.0907
     18 O3'         1.9175    0.2377    2.7247 O.3       1 GTP        -0.5209
     19 C2'         0.4468   -0.3802    0.9263 C.3       1 GTP         0.0305
     20 O2'         1.3993   -1.3703    0.5961 O.3       1 GTP        -0.5978
     21 C1'        -0.6159   -0.9100    1.8769 C.3       1 GTP         0.2339
     22 N9         -1.7127   -1.6108    1.2130 N.pl3     1 GTP        -0.1765
     23 C8         -2.5534   -1.0907    0.2607 C.ar      1 GTP         0.4947
     24 N7         -3.4469   -1.9695   -0.1508 N.2       1 GTP        -0.5802
     25 C5         -3.1705   -3.1041    0.5657 C.ar      1 GTP         0.2279
     26 C6         -3.8738   -4.3568    0.4777 C.ar      1 GTP         0.6513
     27 O6         -4.8240   -4.5720   -0.2607 O.2       1 GTP        -0.5111
     28 N1         -3.3198   -5.3462    1.3780 N.pl3     1 GTP        -0.4713
     29 C2         -2.2226   -5.1203    2.2413 C.ar      1 GTP         0.5256
     30 N2         -1.7649   -6.1367    3.0659 N.pl3     1 GTP        -0.8665
     31 N3         -1.5969   -3.8585    2.2574 N.pl3     1 GTP        -0.5398
     32 C4         -2.1068   -2.8965    1.4082 C.ar      1 GTP        -0.0275
     33 HOG3       -4.3690    4.1626   -4.1656 H         1 GTP         0.4161
     34 H5'        -1.4800    1.9927    0.8146 H         1 GTP         0.0348
     35 H5''       -0.1367    3.1040    1.1872 H         1 GTP         0.0348
     36 H4'         0.0403    1.7078    3.4343 H         1 GTP         0.1215
     37 H3'         1.5907    1.4859    1.1353 H         1 GTP         0.0576
     38 HO3'        2.6839   -0.1150    2.2479 H         1 GTP         0.3842
     39 H2'        -0.0017    0.0018    0.0005 H         1 GTP         0.0252
     40 HO2'        2.0953   -0.9375    0.0709 H         1 GTP         0.4224
     41 H1'        -0.1998   -1.6319    2.6178 H         1 GTP         0.0745
     42 H8         -2.4657   -0.0713   -0.0897 H         1 GTP         0.1522
     43 HN1        -3.7505   -6.2699    1.3904 H         1 GTP         0.3518
     44 HN21       -1.0023   -5.9289    3.6451 H         1 GTP         0.4761
     45 HN22       -2.2347   -6.9951    3.0150 H         1 GTP         0.4761
     46 H46        -0.8062   -3.6900    2.8760 H         1 GTP         0.5030
@<TRIPOS>BOND
     1    1    2 2
     2    1    3 1
     3    1    4 1
     4    1    5 1
     5    4   33 1
     6    5    6 1
     7    6    7 2
     8    6    8 1
     9    6    9 1
    10    9   10 1
    11   10   11 2
    12   10   12 1
    13   10   13 1
    14   13   14 1
    15   14   15 1
    16   14   34 1
    17   14   35 1
    18   15   16 1
    19   15   17 1
    20   15   36 1
    21   16   21 1
    22   17   18 1
    23   17   19 1
    24   17   37 1
    25   18   38 1
    26   19   20 1
    27   19   21 1
    28   19   39 1
    29   20   40 1
    30   21   22 1
    31   21   41 1
    32   22   23 ar
    33   22   32 ar
    34   23   24 ar
    35   23   42 1
    36   24   25 ar
    37   25   26 ar
    38   25   32 ar
    39   26   27 2
    40   26   28 ar
    41   28   29 ar
    42   28   43 1
    43   29   30 1
    44   29   31 ar
    45   30   44 1
    46   30   45 1
    47   31   32 ar
    48   31   46 1
@<TRIPOS>SUBSTRUCTURE
     1 GTP         1 GROUP 0 A     ****
@<TRIPOS>MOLECULE
[[[5-(2-amino-6-oxo-1,3-dihydropurin-2-ylium-9-yl)-3,4-dihydroxy-tetrahydrofuran-2-yl]methoxy-oxido-phosphoryl]oxy-oxido-phosphoryl] hydrogen phosphate
   46    48     1     0     0
SMALL
USER_CHARGES

@<TRIPOS>ATOM
      1 PG         -1.2185    4.6612    7.6780 P.3       1 GTP         1.5400
      2 O1G        -0.1431    5.5381    8.2798 O.co2     1 GTP        -0.8909
      3 O2G        -2.6834    4.9816    7.8754 O.co2     1 GTP        -0.8909
      4 O3G        -0.9564    3.1206    8.1512 O.3       1 GTP        -0.7980
      5 O3B        -0.9265    4.4821    6.0822 O.3       1 GTP        -0.7612
      6 PB         -0.9772    5.5850    4.8794 P.3       1 GTP         1.5847
      7 O1B        -2.4052    6.0541    4.7117 O.co2     1 GTP        -0.8859
      8 O2B         0.1618    6.5637    5.0593 O.co2     1 GTP        -0.8859
      9 O3A        -0.5682    4.6235    3.6252 O.3       1 GTP        -0.7486
     10 PA         -0.3962    4.9846    2.0409 P.3       1 GTP         1.5001
     11 O1A        -1.7409    5.4059    1.4892 O.co2     1 GTP        -0.8487
     12 O2A         0.8270    5.8595    1.8736 O.co2     1 GTP        -0.8487
     13 O5'         0.0178    3.5131    1.4595 O.3       1 GTP        -0.5474
     14 C5'        -0.8811    2.4285    1.6206 C.3       1 GTP         0.2547
     15 C4'        -0.1994    1.3333    2.4288 C.3       1 GTP         0.0926
     16 O4'        -1.1285    0.2356    2.5840 O.3       1 GTP        -0.3593
     17 C3'         1.0324    0.7610    1.7344 C.3       1 GTP         0.0907
     18 O3'         1.9175    0.2377    2.7247 O.3       1 GTP        -0.5209
     19 C2'         0.4468   -0.3802    0.9263 C.3       1 GTP         0.0305
     20 O2'         1.3993   -1.3703    0.5961 O.3       1 GTP        -0.5978
     21 C1'        -0.6159   -0.9100    1.8769 C.3       1 GTP         0.2339
     22 N9         -1.7127   -1.6108    1.2130 N.pl3     1 GTP        -0.1765
     23 C8         -3.0389   -1.2578    1.2391 C.ar      1 GTP         0.4947
     24 N7         -3.7909   -2.0880    0.5425 N.2       1 GTP        -0.5802
     25 C5         -2.9127   -3.0150    0.0458 C.ar      1 GTP         0.2279
     26 C6         -3.2467   -4.1411   -0.7860 C.ar      1 GTP         0.6513
     27 O6         -4.3761   -4.4189   -1.1621 O.2       1 GTP        -0.5111
     28 N1         -2.0748   -4.9191   -1.1296 N.pl3     1 GTP        -0.4713
     29 C2         -0.7595   -4.6181   -0.7058 C.ar      1 GTP         0.5256
     30 N2          0.2985   -5.4268   -1.0920 N.pl3     1 GTP        -0.8665
     31 N3         -0.5304   -3.4919    0.1084 N.pl3     1 GTP        -0.5398
     32 C4         -1.6318   -2.7332    0.4512 C.ar      1 GTP        -0.0275
     33 HOG3       -1.5748    2.4253    7.8407 H         1 GTP         0.4161
     34 H5'        -1.7771    2.7849    2.1387 H         1 GTP         0.0348
     35 H5''       -1.1654    2.0541    0.6320 H         1 GTP         0.0348
     36 H4'         0.0403    1.7078    3.4343 H         1 GTP         0.1215
     37 H3'         1.5907    1.4859    1.1353 H         1 GTP         0.0576
     38 HO3'        2.6839   -0.1150    2.2479 H         1 GTP         0.3842
     39 H2'        -0.0017    0.0018    0.0005 H         1 GTP         0.0252
     40 HO2'        2.0953   -0.9375    0.0709 H         1 GTP         0.4224
     41 H1'        -0.1998   -1.6319    2.6178 H         1 GTP         0.0745
     42 H8         -3.3933   -0.3909    1.7800 H         1 GTP         0.1522
     43 HN1        -2.2071   -5.7408   -1.7178 H         1 GTP         0.3518
     44 HN21        1.1896   -5.1751   -0.7715 H         1 GTP         0.4761
     45 HN22        0.0846   -6.1966   -1.6593 H         1 GTP         0.4761
     46 H46         0.4142   -3.2695    0.4160 H         1 GTP         0.5030
@<TRIPOS>BOND
     1    1    2 2
     2    1    3 1
     3    1    4 1
     4    1    5 1
     5    4   33 1
     6    5    6 1
     7    6    7 2
     8    6    8 1
     9    6    9 1
    10    9   10 1
    11   10   11 2
    12   10   12 1
    13   10   13 1
    14   13   14 1
    15   14   15 1
    16   14   34 1
    17   14   35 1
    18   15   16 1
    19   15   17 1
    20   15   36 1
    21   16   21 1
    22   17   18 1
    23   17   19 1
    24   17   37 1
    25   18   38 1
    26   19   20 1
    27   19   21 1
    28   19   39 1
    29   20   40 1
    30   21   22 1
    31   21   41 1
    32   22   23 ar
    33   22   32 ar
    34   23   24 ar
    35   23   42 1
    36   24   25 ar
    37   25   26 ar
    38   25   32 ar
    39   26   27 2
    40   26   28 ar
    41   28   29 ar
    42   28   43 1
    43   29   30 1
    44   29   31 ar
    45   30   44 1
    46   30   45 1
    47   31   32 ar
    48   31   46 1
@<TRIPOS>SUBSTRUCTURE
     1 GTP         1 GROUP 0 A     ****
@<TRIPOS>MOLECULE
[[[5-(2-amino-6-oxo-1,3-dihydropurin-2-ylium-9-yl)-3,4-dihydroxy-tetrahydrofuran-2-yl]methoxy-oxido-phosphoryl]oxy-oxido-phosphoryl] hydrogen phosphate
   46    48     1     0     0
SMALL
USER_CHARGES

@<TRIPOS>ATOM
      1 PG         -1.9789    9.2996    0.5424 P.3       1 GTP         1.5400
      2 O1G        -2.8913    9.4996   -0.6471 O.co2     1 GTP        -0.8909
      3 O2G        -2.2955    9.9312    1.8798 O.co2     1 GTP        -0.8909
      4 O3G        -0.4637    9.7292    0.1119 O.3       1 GTP        -0.7980
      5 O3B        -1.7300    7.7010    0.7580 O.3       1 GTP        -0.7612
      6 PB         -2.7767    6.5305    1.2053 P.3       1 GTP         1.5847
      7 O1B        -3.2256    6.7980    2.6246 O.co2     1 GTP        -0.8859
      8 O2B        -3.7722    6.3061    0.0890 O.co2     1 GTP        -0.8859
      9 O3A        -1.7628    5.2512    1.1860 O.3       1 GTP        -0.7486
     10 PA         -0.3962    4.9846    2.0409 P.3       1 GTP         1.5001
     11 O1A         0.6371    6.0152    1.6404 O.co2     1 GTP        -0.8487
     12 O2A        -0.7667    4.7715    3.4925 O.co2     1 GTP        -0.8487
     13 O5'         0.0178    3.5131    1.4595 O.3       1 GTP        -0.5474
     14 C5'        -0.8811    2.4285    1.6206 C.3       1 GTP         0.2547
     15 C4'        -0.1994    1.3333    2.4288 C.3       1 GTP         0.0926
     16 O4'        -1.1285    0.2356    2.5840 O.3       1 GTP        -0.3593
     17 C3'         1.0324    0.7610    1.7344 C.3       1 GTP         0.0907
     18 O3'         1.9175    0.2377    2.7247 O.3       1 GTP        -0.5209
     19 C2'         0.4468   -0.3802    0.9263 C.3       1 GTP         0.0305
     20 O2'         1.3993   -1.3703    0.5961 O.3       1 GTP        -0.5978
     21 C1'        -0.6159   -0.9100    1.8769 C.3       1 GTP         0.2339
     22 N9         -1.7127   -1.6108    1.2130 N.pl3     1 GTP        -0.1765
     23 C8         -2.5534   -1.0907    0.2607 C.ar      1 GTP         0.4947
     24 N7         -3.4469   -1.9695   -0.1508 N.2       1 GTP        -0.5802
     25 C5         -3.1705   -3.1041    0.5657 C.ar      1 GTP         0.2279
     26 C6         -3.8738   -4.3568    0.4777 C.ar      1 GTP         0.6513
     27 O6         -4.8240   -4.5720   -0.2607 O.2       1 GTP        -0.5111
     28 N1         -3.3198   -5.3462    1.3780 N.pl3     1 GTP        -0.4713
     29 C2         -2.2226   -5.1203    2.2413 C.ar      1 GTP         0.5256
     30 N2         -1.7649   -6.1367    3.0659 N.pl3     1 GTP        -0.8665
     31 N3         -1.5969   -3.8585    2.2574 N.pl3     1 GTP        -0.5398
     32 C4         -2.1068   -2.8965    1.4082 C.ar      1 GTP        -0.0275
     33 HOG3        0.2503    9.6557    0.7805 H         1 GTP         0.4161
     34 H5'        -1.7771    2.7849    2.1387 H         1 GTP         0.0348
     35 H5''       -1.1654    2.0541    0.6320 H         1 GTP         0.0348
     36 H4'         0.0403    1.7078    3.4343 H         1 GTP         0.1215
     37 H3'         1.5907    1.4859    1.1353 H         1 GTP         0.0576
     38 HO3'        2.6839   -0.1150    2.2479 H         1 GTP         0.3842
     39 H2'        -0.0017    0.0018    0.0005 H         1 GTP         0.0252
     40 HO2'        2.0953   -0.9375    0.0709 H         1 GTP         0.4224
     41 H1'        -0.1998   -1.6319    2.6178 H         1 GTP         0.0745
     42 H8         -2.4657   -0.0713   -0.0897 H         1 GTP         0.1522
     43 HN1        -3.7505   -6.2699    1.3904 H         1 GTP         0.3518
     44 HN21       -1.0023   -5.9289    3.6451 H         1 GTP         0.4761
     45 HN22       -2.2347   -6.9951    3.0150 H         1 GTP         0.4761
     46 H46        -0.8062   -3.6900    2.8760 H         1 GTP         0.5030
@<TRIPOS>BOND
     1    1    2 2
     2    1    3 1
     3    1    4 1
     4    1    5 1
     5    4   33 1
     6    5    6 1
     7    6    7 2
     8    6    8 1
     9    6    9 1
    10    9   10 1
    11   10   11 2
    12   10   12 1
    13   10   13 1
    14   13   14 1
    15   14   15 1
    16   14   34 1
    17   14   35 1
    18   15   16 1
    19   15   17 1
    20   15   36 1
    21   16   21 1
    22   17   18 1
    23   17   19 1
    24   17   37 1
    25   18   38 1
    26   19   20 1
    27   19   21 1
    28   19   39 1
    29   20   40 1
    30   21   22 1
    31   21   41 1
    32   22   23 ar
    33   22   32 ar
    34   23   24 ar
    35   23   42 1
    36   24   25 ar
    37   25   26 ar
    38   25   32 ar
    39   26   27 2
    40   26   28 ar
    41   28   29 ar
    42   28   43 1
    43   29   30 1
    44   29   31 ar
    45   30   44 1
    46   30   45 1
    47   31   32 ar
    48   31   46 1
@<TRIPOS>SUBSTRUCTURE
     1 GTP         1 GROUP 0 A     ****
@<TRIPOS>MOLECULE
[[[5-(2-amino-6-oxo-1,3-dihydropurin-2-ylium-9-yl)-3,4-dihydroxy-tetrahydrofuran-2-yl]methoxy-oxido-phosphoryl]oxy-oxido-phosphoryl] hydrogen phosphate
   46    48     1     0     0
SMALL
USER_CHARGES

@<TRIPOS>ATOM
      1 PG          0.6657    6.7786    0.3038 P.3       1 GTP         1.5400
      2 O1G         1.3920    6.2711    1.5295 O.co2     1 GTP        -0.8909
      3 O2G         0.7544    6.0405   -1.0135 O.co2     1 GTP        -0.8909
      4 O3G         1.0920    8.3350    0.0556 O.3       1 GTP        -0.7980
      5 O3B        -0.9065    7.0098    0.6757 O.3       1 GTP        -0.7612
      6 PB         -2.0606    5.9218    1.0631 P.3       1 GTP         1.5847
      7 O1B        -3.3171    6.6667    1.4553 O.co2     1 GTP        -0.8859
      8 O2B        -2.0814    4.8307    0.0160 O.co2     1 GTP        -0.8859
      9 O3A        -1.3731    5.2735    2.3942 O.3       1 GTP        -0.7486
     10 PA         -1.9156    4.0918    3.3837 P.3       1 GTP         1.5001
     11 O1A        -0.8453    3.7865    4.4092 O.co2     1 GTP        -0.8487
     12 O2A        -3.3304    4.4243    3.8049 O.co2     1 GTP        -0.8487
     13 O5'        -2.0401    2.8620    2.3128 O.3       1 GTP        -0.5474
     14 C5'        -0.8811    2.4285    1.6206 C.3       1 GTP         0.2547
     15 C4'        -0.1994    1.3333    2.4288 C.3       1 GTP         0.0926
     16 O4'        -1.1285    0.2356    2.5840 O.3       1 GTP        -0.3593
     17 C3'         1.0324    0.7610    1.7344 C.3       1 GTP         0.0907
     18 O3'         1.9175    0.2377    2.7247 O.3       1 GTP        -0.5209
     19 C2'         0.4468   -0.3802    0.9263 C.3       1 GTP         0.0305
     20 O2'         1.3993   -1.3703    0.5961 O.3       1 GTP        -0.5978
     21 C1'        -0.6159   -0.9100    1.8769 C.3       1 GTP         0.2339
     22 N9         -1.7127   -1.6108    1.2130 N.pl3     1 GTP        -0.1765
     23 C8         -2.5534   -1.0907    0.2607 C.ar      1 GTP         0.4947
     24 N7         -3.4469   -1.9695   -0.1508 N.2       1 GTP        -0.5802
     25 C5         -3.1705   -3.1041    0.5657 C.ar      1 GTP         0.2279
     26 C6         -3.8738   -4.3568    0.4777 C.ar      1 GTP         0.6513
     27 O6         -4.8240   -4.5720   -0.2607 O.2       1 GTP        -0.5111
     28 N1         -3.3198   -5.3462    1.3780 N.pl3     1 GTP        -0.4713
     29 C2         -2.2226   -5.1203    2.2413 C.ar      1 GTP         0.5256
     30 N2         -1.7649   -6.1367    3.0659 N.pl3     1 GTP        -0.8665
     31 N3         -1.5969   -3.8585    2.2574 N.pl3     1 GTP        -0.5398
     32 C4         -2.1068   -2.8965    1.4082 C.ar      1 GTP        -0.0275
     33 HOG3        0.7015    8.8099   -0.7088 H         1 GTP         0.4161
     34 H5'        -1.1767    2.0502    0.6368 H         1 GTP         0.0348
     35 H5''       -0.2080    3.2814    1.4876 H         1 GTP         0.0348
     36 H4'         0.0403    1.7078    3.4343 H         1 GTP         0.1215
     37 H3'         1.5907    1.4859    1.1353 H         1 GTP         0.0576
     38 HO3'        2.6839   -0.1150    2.2479 H         1 GTP         0.3842
     39 H2'        -0.0017    0.0018    0.0005 H         1 GTP         0.0252
     40 HO2'        0.9369   -2.0558    0.0825 H         1 GTP         0.4224
     41 H1'        -0.1998   -1.6319    2.6178 H         1 GTP         0.0745
     42 H8         -2.4657   -0.0713   -0.0897 H         1 GTP         0.1522
     43 HN1        -3.7505   -6.2699    1.3904 H         1 GTP         0.3518
     44 HN21       -1.0023   -5.9289    3.6451 H         1 GTP         0.4761
     45 HN22       -2.2347   -6.9951    3.0150 H         1 GTP         0.4761
     46 H46        -0.8062   -3.6900    2.8760 H         1 GTP         0.5030
@<TRIPOS>BOND
     1    1    2 2
     2    1    3 1
     3    1    4 1
     4    1    5 1
     5    4   33 1
     6    5    6 1
     7    6    7 2
     8    6    8 1
     9    6    9 1
    10    9   10 1
    11   10   11 2
    12   10   12 1
    13   10   13 1
    14   13   14 1
    15   14   15 1
    16   14   34 1
    17   14   35 1
    18   15   16 1
    19   15   17 1
    20   15   36 1
    21   16   21 1
    22   17   18 1
    23   17   19 1
    24   17   37 1
    25   18   38 1
    26   19   20 1
    27   19   21 1
    28   19   39 1
    29   20   40 1
    30   21   22 1
    31   21   41 1
    32   22   23 ar
    33   22   32 ar
    34   23   24 ar
    35   23   42 1
    36   24   25 ar
    37   25   26 ar
    38   25   32 ar
    39   26   27 2
    40   26   28 ar
    41   28   29 ar
    42   28   43 1
    43   29   30 1
    44   29   31 ar
    45   30   44 1
    46   30   45 1
    47   31   32 ar
    48   31   46 1
@<TRIPOS>SUBSTRUCTURE
     1 GTP         1 GROUP 0 A     ****
@<TRIPOS>MOLECULE
[[[5-(2-amino-6-oxo-1,3-dihydropurin-2-ylium-9-yl)-3,4-dihydroxy-tetrahydrofuran-2-yl]methoxy-oxido-phosphoryl]oxy-oxido-phosphoryl] hydrogen phosphate
   46    48     1     0     0
SMALL
USER_CHARGES

@<TRIPOS>ATOM
      1 PG          8.8088    6.3795    0.6600 P.3       1 GTP         1.5400
      2 O1G         9.5659    6.6312    1.9448 O.co2     1 GTP        -0.8909
      3 O2G         9.5348    6.2793   -0.6632 O.co2     1 GTP        -0.8909
      4 O3G         7.6327    7.5036    0.5222 O.3       1 GTP        -0.7980
      5 O3B         7.8675    5.0595    0.8480 O.3       1 GTP        -0.7612
      6 PB          8.2882    3.4954    1.0534 P.3       1 GTP         1.5847
      7 O1B         8.9692    3.0071   -0.2057 O.co2     1 GTP        -0.8859
      8 O2B         8.9279    3.3313    2.4141 O.co2     1 GTP        -0.8859
      9 O3A         6.7990    2.8353    1.1590 O.3       1 GTP        -0.7486
     10 PA          6.3565    1.2771    1.3734 P.3       1 GTP         1.5001
     11 O1A         6.8037    0.4744    0.1709 O.co2     1 GTP        -0.8487
     12 O2A         6.7306    0.8562    2.7779 O.co2     1 GTP        -0.8487
     13 O5'         4.7294    1.4427    1.3696 O.3       1 GTP        -0.5474
     14 C5'         4.0922    1.9801    0.2227 C.3       1 GTP         0.2547
     15 C4'         2.5944    2.0310    0.4653 C.3       1 GTP         0.0926
     16 O4'         1.9327    2.5740   -0.6889 O.3       1 GTP        -0.3593
     17 C3'         1.9685    0.6634    0.6767 C.3       1 GTP         0.0907
     18 O3'         2.1425    0.1975    1.9977 O.3       1 GTP        -0.5209
     19 C2'         0.5176    0.9128    0.3099 C.3       1 GTP         0.0305
     20 O2'        -0.2103    1.4454    1.4152 O.3       1 GTP        -0.5978
     21 C1'         0.6219    1.9765   -0.7844 C.3       1 GTP         0.2339
     22 N9          0.4237    1.4496   -2.1357 N.pl3     1 GTP        -0.1765
     23 C8          1.3988    0.9691   -2.9736 C.ar      1 GTP         0.4947
     24 N7          0.9092    0.5634   -4.1293 N.2       1 GTP        -0.5802
     25 C5         -0.4383    0.7914   -4.0325 C.ar      1 GTP         0.2279
     26 C6         -1.4217    0.5138   -5.0461 C.ar      1 GTP         0.6513
     27 O6         -1.1759    0.0306   -6.1417 O.2       1 GTP        -0.5111
     28 N1         -2.7543    0.8794   -4.6134 N.pl3     1 GTP        -0.4713
     29 C2         -3.0626    1.4402   -3.3523 C.ar      1 GTP         0.5256
     30 N2         -4.3747    1.7544   -3.0321 N.pl3     1 GTP        -0.8665
     31 N3         -2.0304    1.6759   -2.4233 N.pl3     1 GTP        -0.5398
     32 C4         -0.7497    1.3366   -2.8118 C.ar      1 GTP        -0.0275
     33 HOG3        7.0491    7.4746   -0.2657 H         1 GTP         0.4161
     34 H5'         4.4843    2.9854    0.0380 H         1 GTP         0.0348
     35 H5''        4.3191    1.3446   -0.6392 H         1 GTP         0.0348
     36 H4'         2.3752    2.7029    1.3156 H         1 GTP         0.1215
     37 H3'         2.4336   -0.1217   -0.0015 H         1 GTP         0.0576
     38 HO3'        3.0987    0.1465    2.1461 H         1 GTP         0.3842
     39 H2'         0.0316    0.0155   -0.0339 H         1 GTP         0.0252
     40 HO2'       -0.1608    0.7921    2.1351 H         1 GTP         0.4224
     41 H1'        -0.1474    2.7798   -0.6651 H         1 GTP         0.0745
     42 H8          2.4413    0.9409   -2.6872 H         1 GTP         0.1522
     43 HN1        -3.5236    0.7214   -5.2629 H         1 GTP         0.3518
     44 HN21       -4.5350    2.1409   -2.1461 H         1 GTP         0.4761
     45 HN22       -5.0542    1.5695   -3.7134 H         1 GTP         0.4761
     46 H46        -2.2462    2.0786   -1.5136 H         1 GTP         0.5030
@<TRIPOS>BOND
     1    1    2 2
     2    1    3 1
     3    1    4 1
     4    1    5 1
     5    4   33 1
     6    5    6 1
     7    6    7 2
     8    6    8 1
     9    6    9 1
    10    9   10 1
    11   10   11 2
    12   10   12 1
    13   10   13 1
    14   13   14 1
    15   14   15 1
    16   14   34 1
    17   14   35 1
    18   15   16 1
    19   15   17 1
    20   15   36 1
    21   16   21 1
    22   17   18 1
    23   17   19 1
    24   17   37 1
    25   18   38 1
    26   19   20 1
    27   19   21 1
    28   19   39 1
    29   20   40 1
    30   21   22 1
    31   21   41 1
    32   22   23 ar
    33   22   32 ar
    34   23   24 ar
    35   23   42 1
    36   24   25 ar
    37   25   26 ar
    38   25   32 ar
    39   26   27 2
    40   26   28 ar
    41   28   29 ar
    42   28   43 1
    43   29   30 1
    44   29   31 ar
    45   30   44 1
    46   30   45 1
    47   31   32 ar
    48   31   46 1
@<TRIPOS>SUBSTRUCTURE
     1 GTP         1 GROUP 0 A     ****
@<TRIPOS>MOLECULE
[[[5-(2-amino-6-oxo-1,3-dihydropurin-2-ylium-9-yl)-3,4-dihydroxy-tetrahydrofuran-2-yl]methoxy-oxido-phosphoryl]oxy-oxido-phosphoryl] hydrogen phosphate
   46    48     1     0     0
SMALL
USER_CHARGES

@<TRIPOS>ATOM
      1 PG          5.2058   -3.9228   -2.1662 P.3       1 GTP         1.5400
      2 O1G         6.0542   -3.6759   -3.3937 O.co2     1 GTP        -0.8909
      3 O2G         5.4545   -5.1211   -1.2775 O.co2     1 GTP        -0.8909
      4 O3G         3.6354   -3.9259   -2.6132 O.3       1 GTP        -0.7980
      5 O3B         5.1975   -2.5747   -1.2462 O.3       1 GTP        -0.7612
      6 PB          6.4130   -1.8665   -0.4175 P.3       1 GTP         1.5847
      7 O1B         6.8475   -2.7955    0.6941 O.co2     1 GTP        -0.8859
      8 O2B         7.4071   -1.2869   -1.3989 O.co2     1 GTP        -0.8859
      9 O3A         5.5966   -0.6027    0.2159 O.3       1 GTP        -0.7486
     10 PA          6.1203    0.6016    1.1881 P.3       1 GTP         1.5001
     11 O1A         6.5486    0.0066    2.5121 O.co2     1 GTP        -0.8487
     12 O2A         7.0488    1.4952    0.3951 O.co2     1 GTP        -0.8487
     13 O5'         4.7294    1.4427    1.3696 O.3       1 GTP        -0.5474
     14 C5'         4.0922    1.9801    0.2227 C.3       1 GTP         0.2547
     15 C4'         2.5944    2.0310    0.4653 C.3       1 GTP         0.0926
     16 O4'         1.9327    2.5740   -0.6889 O.3       1 GTP        -0.3593
     17 C3'         1.9685    0.6634    0.6767 C.3       1 GTP         0.0907
     18 O3'         2.1425    0.1975    1.9977 O.3       1 GTP        -0.5209
     19 C2'         0.5176    0.9128    0.3099 C.3       1 GTP         0.0305
     20 O2'        -0.2103    1.4454    1.4152 O.3       1 GTP        -0.5978
     21 C1'         0.6219    1.9765   -0.7844 C.3       1 GTP         0.2339
     22 N9          0.4237    1.4496   -2.1357 N.pl3     1 GTP        -0.1765
     23 C8          1.3988    0.9691   -2.9736 C.ar      1 GTP         0.4947
     24 N7          0.9092    0.5634   -4.1293 N.2       1 GTP        -0.5802
     25 C5         -0.4383    0.7914   -4.0325 C.ar      1 GTP         0.2279
     26 C6         -1.4217    0.5138   -5.0461 C.ar      1 GTP         0.6513
     27 O6         -1.1759    0.0306   -6.1417 O.2       1 GTP        -0.5111
     28 N1         -2.7543    0.8794   -4.6134 N.pl3     1 GTP        -0.4713
     29 C2         -3.0626    1.4402   -3.3523 C.ar      1 GTP         0.5256
     30 N2         -4.3747    1.7544   -3.0321 N.pl3     1 GTP        -0.8665
     31 N3         -2.0304    1.6759   -2.4233 N.pl3     1 GTP        -0.5398
     32 C4         -0.7497    1.3366   -2.8118 C.ar      1 GTP        -0.0275
     33 HOG3        2.9539   -4.0748   -1.9235 H         1 GTP         0.4161
     34 H5'         4.4843    2.9854    0.0380 H         1 GTP         0.0348
     35 H5''        4.3191    1.3446   -0.6392 H         1 GTP         0.0348
     36 H4'         2.3752    2.7029    1.3156 H         1 GTP         0.1215
     37 H3'         2.4336   -0.1217   -0.0015 H         1 GTP         0.0576
     38 HO3'        3.0987    0.1465    2.1461 H         1 GTP         0.3842
     39 H2'         0.0316    0.0155   -0.0339 H         1 GTP         0.0252
     40 HO2'       -0.1608    0.7921    2.1351 H         1 GTP         0.4224
     41 H1'        -0.1474    2.7798   -0.6651 H         1 GTP         0.0745
     42 H8          2.4413    0.9409   -2.6872 H         1 GTP         0.1522
     43 HN1        -3.5236    0.7214   -5.2629 H         1 GTP         0.3518
     44 HN21       -4.5350    2.1409   -2.1461 H         1 GTP         0.4761
     45 HN22       -5.0542    1.5695   -3.7134 H         1 GTP         0.4761
     46 H46        -2.2462    2.0786   -1.5136 H         1 GTP         0.5030
@<TRIPOS>BOND
     1    1    2 2
     2    1    3 1
     3    1    4 1
     4    1    5 1
     5    4   33 1
     6    5    6 1
     7    6    7 2
     8    6    8 1
     9    6    9 1
    10    9   10 1
    11   10   11 2
    12   10   12 1
    13   10   13 1
    14   13   14 1
    15   14   15 1
    16   14   34 1
    17   14   35 1
    18   15   16 1
    19   15   17 1
    20   15   36 1
    21   16   21 1
    22   17   18 1
    23   17   19 1
    24   17   37 1
    25   18   38 1
    26   19   20 1
    27   19   21 1
    28   19   39 1
    29   20   40 1
    30   21   22 1
    31   21   41 1
    32   22   23 ar
    33   22   32 ar
    34   23   24 ar
    35   23   42 1
    36   24   25 ar
    37   25   26 ar
    38   25   32 ar
    39   26   27 2
    40   26   28 ar
    41   28   29 ar
    42   28   43 1
    43   29   30 1
    44   29   31 ar
    45   30   44 1
    46   30   45 1
    47   31   32 ar
    48   31   46 1
@<TRIPOS>SUBSTRUCTURE
     1 GTP         1 GROUP 0 A     ****
@<TRIPOS>MOLECULE
[[[5-(2-amino-6-oxo-1,3-dihydropurin-2-ylium-9-yl)-3,4-dihydroxy-tetrahydrofuran-2-yl]methoxy-oxido-phosphoryl]oxy-oxido-phosphoryl] hydrogen phosphate
   46    48     1     0     0
SMALL
USER_CHARGES

@<TRIPOS>ATOM
      1 PG          7.9397    1.0911   -3.2381 P.3       1 GTP         1.5400
      2 O1G         6.4328    1.2111   -3.1893 O.co2     1 GTP        -0.8909
      3 O2G         8.7651    2.0129   -4.1080 O.co2     1 GTP        -0.8909
      4 O3G         8.3254   -0.4522   -3.6061 O.3       1 GTP        -0.7980
      5 O3B         8.5257    1.1353   -1.7155 O.3       1 GTP        -0.7612
      6 PB          8.5328    2.3572   -0.6326 P.3       1 GTP         1.5847
      7 O1B         9.0714    1.8373    0.6816 O.co2     1 GTP        -0.8859
      8 O2B         9.1045    3.5943   -1.2886 O.co2     1 GTP        -0.8859
      9 O3A         6.9241    2.6024   -0.5039 O.3       1 GTP        -0.7486
     10 PA          6.0980    3.6799    0.4052 P.3       1 GTP         1.5001
     11 O1A         6.3301    3.3626    1.8666 O.co2     1 GTP        -0.8487
     12 O2A         6.3471    5.0681   -0.1431 O.co2     1 GTP        -0.8487
     13 O5'         4.5670    3.2937   -0.0211 O.3       1 GTP        -0.5474
     14 C5'         4.0922    1.9801    0.2227 C.3       1 GTP         0.2547
     15 C4'         2.5944    2.0310    0.4653 C.3       1 GTP         0.0926
     16 O4'         1.9327    2.5740   -0.6889 O.3       1 GTP        -0.3593
     17 C3'         1.9685    0.6634    0.6767 C.3       1 GTP         0.0907
     18 O3'         2.1425    0.1975    1.9977 O.3       1 GTP        -0.5209
     19 C2'         0.5176    0.9128    0.3099 C.3       1 GTP         0.0305
     20 O2'        -0.2103    1.4454    1.4152 O.3       1 GTP        -0.5978
     21 C1'         0.6219    1.9765   -0.7844 C.3       1 GTP         0.2339
     22 N9          0.4237    1.4496   -2.1357 N.pl3     1 GTP        -0.1765
     23 C8          1.3988    0.9691   -2.9736 C.ar      1 GTP         0.4947
     24 N7          0.9092    0.5634   -4.1293 N.2       1 GTP        -0.5802
     25 C5         -0.4383    0.7914   -4.0325 C.ar      1 GTP         0.2279
     26 C6         -1.4217    0.5138   -5.0461 C.ar      1 GTP         0.6513
     27 O6         -1.1759    0.0306   -6.1417 O.2       1 GTP        -0.5111
     28 N1         -2.7543    0.8794   -4.6134 N.pl3     1 GTP        -0.4713
     29 C2         -3.0626    1.4402   -3.3523 C.ar      1 GTP         0.5256
     30 N2         -4.3747    1.7544   -3.0321 N.pl3     1 GTP        -0.8665
     31 N3         -2.0304    1.6759   -2.4233 N.pl3     1 GTP        -0.5398
     32 C4         -0.7497    1.3366   -2.8118 C.ar      1 GTP        -0.0275
     33 HOG3        9.2740   -0.6926   -3.6755 H         1 GTP         0.4161
     34 H5'         4.3179    1.3548   -0.6470 H         1 GTP         0.0348
     35 H5''        4.6083    1.5737    1.0983 H         1 GTP         0.0348
     36 H4'         2.3752    2.7029    1.3156 H         1 GTP         0.1215
     37 H3'         2.4336   -0.1217   -0.0015 H         1 GTP         0.0576
     38 HO3'        3.0987    0.1465    2.1461 H         1 GTP         0.3842
     39 H2'         0.0316    0.0155   -0.0339 H         1 GTP         0.0252
     40 HO2'       -1.1270    1.5823    1.1180 H         1 GTP         0.4224
     41 H1'        -0.1474    2.7798   -0.6651 H         1 GTP         0.0745
     42 H8          2.4413    0.9409   -2.6872 H         1 GTP         0.1522
     43 HN1        -3.5236    0.7214   -5.2629 H         1 GTP         0.3518
     44 HN21       -4.5350    2.1409   -2.1461 H         1 GTP         0.4761
     45 HN22       -5.0542    1.5695   -3.7134 H         1 GTP         0.4761
     46 H46        -2.2462    2.0786   -1.5136 H         1 GTP         0.5030
@<TRIPOS>BOND
     1    1    2 2
     2    1    3 1
     3    1    4 1
     4    1    5 1
     5    4   33 1
     6    5    6 1
     7    6    7 2
     8    6    8 1
     9    6    9 1
    10    9   10 1
    11   10   11 2
    12   10   12 1
    13   10   13 1
    14   13   14 1
    15   14   15 1
    16   14   34 1
    17   14   35 1
    18   15   16 1
    19   15   17 1
    20   15   36 1
    21   16   21 1
    22   17   18 1
    23   17   19 1
    24   17   37 1
    25   18   38 1
    26   19   20 1
    27   19   21 1
    28   19   39 1
    29   20   40 1
    30   21   22 1
    31   21   41 1
    32   22   23 ar
    33   22   32 ar
    34   23   24 ar
    35   23   42 1
    36   24   25 ar
    37   25   26 ar
    38   25   32 ar
    39   26   27 2
    40   26   28 ar
    41   28   29 ar
    42   28   43 1
    43   29   30 1
    44   29   31 ar
    45   30   44 1
    46   30   45 1
    47   31   32 ar
    48   31   46 1
@<TRIPOS>SUBSTRUCTURE
     1 GTP         1 GROUP 0 A     ****
@<TRIPOS>MOLECULE
[[[5-(2-amino-6-oxo-1,3-dihydropurin-2-ylium-9-yl)-3,4-dihydroxy-tetrahydrofuran-2-yl]methoxy-oxido-phosphoryl]oxy-oxido-phosphoryl] hydrogen phosphate
   46    48     1     0     0
SMALL
USER_CHARGES

@<TRIPOS>ATOM
      1 PG         -0.1643    8.7462    1.9028 P.3       1 GTP         1.5400
      2 O1G         0.3910    9.1674    0.5606 O.co2     1 GTP        -0.8909
      3 O2G        -1.1369    9.6287    2.6532 O.co2     1 GTP        -0.8909
      4 O3G         1.0848    8.3925    2.8930 O.3       1 GTP        -0.7980
      5 O3B        -0.8031    7.2504    1.7677 O.3       1 GTP        -0.7612
      6 PB         -2.1077    6.7422    0.9279 P.3       1 GTP         1.5847
      7 O1B        -3.3453    7.3726    1.5264 O.co2     1 GTP        -0.8859
      8 O2B        -1.8085    6.8348   -0.5518 O.co2     1 GTP        -0.8859
      9 O3A        -2.0640    5.1559    1.3109 O.3       1 GTP        -0.7486
     10 PA         -2.1561    4.4278    2.7707 P.3       1 GTP         1.5001
     11 O1A        -0.9467    4.8245    3.5894 O.co2     1 GTP        -0.8487
     12 O2A        -3.5584    4.6024    3.3116 O.co2     1 GTP        -0.8487
     13 O5'        -2.0401    2.8620    2.3128 O.3       1 GTP        -0.5474
     14 C5'        -0.8811    2.4285    1.6206 C.3       1 GTP         0.2547
     15 C4'        -0.1994    1.3333    2.4288 C.3       1 GTP         0.0926
     16 O4'        -1.1285    0.2356    2.5840 O.3       1 GTP        -0.3593
     17 C3'         1.0324    0.7610    1.7344 C.3       1 GTP         0.0907
     18 O3'         1.9175    0.2377    2.7247 O.3       1 GTP        -0.5209
     19 C2'         0.4468   -0.3802    0.9263 C.3       1 GTP         0.0305
     20 O2'         1.3993   -1.3703    0.5961 O.3       1 GTP        -0.5978
     21 C1'        -0.6159   -0.9100    1.8769 C.3       1 GTP         0.2339
     22 N9         -1.7127   -1.6108    1.2130 N.pl3     1 GTP        -0.1765
     23 C8         -1.6092   -2.7449    0.4467 C.ar      1 GTP         0.4947
     24 N7         -2.7778   -3.1416   -0.0191 N.2       1 GTP        -0.5802
     25 C5         -3.6725   -2.2253    0.4675 C.ar      1 GTP         0.2279
     26 C6         -5.0932   -2.2202    0.2371 C.ar      1 GTP         0.6513
     27 O6         -5.6933   -3.0474   -0.4337 O.2       1 GTP        -0.5111
     28 N1         -5.7390   -1.1061    0.8992 N.pl3     1 GTP        -0.4713
     29 C2         -5.0661   -0.1368    1.6789 C.ar      1 GTP         0.5256
     30 N2         -5.7774    0.8934    2.2749 N.pl3     1 GTP        -0.8665
     31 N3         -3.6705   -0.2251    1.8481 N.pl3     1 GTP        -0.5398
     32 C4         -3.0303   -1.2785    1.2262 C.ar      1 GTP        -0.0275
     33 HOG3        0.8869    8.1006    3.8084 H         1 GTP         0.4161
     34 H5'        -1.1767    2.0502    0.6368 H         1 GTP         0.0348
     35 H5''       -0.2080    3.2814    1.4876 H         1 GTP         0.0348
     36 H4'         0.0403    1.7078    3.4343 H         1 GTP         0.1215
     37 H3'         1.5907    1.4859    1.1353 H         1 GTP         0.0576
     38 HO3'        2.6839   -0.1150    2.2479 H         1 GTP         0.3842
     39 H2'        -0.0017    0.0018    0.0005 H         1 GTP         0.0252
     40 HO2'        1.7495   -1.7243    1.4324 H         1 GTP         0.4224
     41 H1'        -0.1998   -1.6319    2.6178 H         1 GTP         0.0745
     42 H8         -0.6610   -3.2324    0.2653 H         1 GTP         0.1522
     43 HN1        -6.7487   -1.0139    0.7961 H         1 GTP         0.3518
     44 HN21       -6.7460    0.9076    2.1270 H         1 GTP         0.4761
     45 HN22       -5.2643    1.5384    2.8048 H         1 GTP         0.4761
     46 H46        -3.1807    0.4690    2.4089 H         1 GTP         0.5030
@<TRIPOS>BOND
     1    1    2 2
     2    1    3 1
     3    1    4 1
     4    1    5 1
     5    4   33 1
     6    5    6 1
     7    6    7 2
     8    6    8 1
     9    6    9 1
    10    9   10 1
    11   10   11 2
    12   10   12 1
    13   10   13 1
    14   13   14 1
    15   14   15 1
    16   14   34 1
    17   14   35 1
    18   15   16 1
    19   15   17 1
    20   15   36 1
    21   16   21 1
    22   17   18 1
    23   17   19 1
    24   17   37 1
    25   18   38 1
    26   19   20 1
    27   19   21 1
    28   19   39 1
    29   20   40 1
    30   21   22 1
    31   21   41 1
    32   22   23 ar
    33   22   32 ar
    34   23   24 ar
    35   23   42 1
    36   24   25 ar
    37   25   26 ar
    38   25   32 ar
    39   26   27 2
    40   26   28 ar
    41   28   29 ar
    42   28   43 1
    43   29   30 1
    44   29   31 ar
    45   30   44 1
    46   30   45 1
    47   31   32 ar
    48   31   46 1
@<TRIPOS>SUBSTRUCTURE
     1 GTP         1 GROUP 0 A     ****
@<TRIPOS>MOLECULE
[[[5-(2-amino-6-oxo-1,3-dihydropurin-2-ylium-9-yl)-3,4-dihydroxy-tetrahydrofuran-2-yl]methoxy-oxido-phosphoryl]oxy-oxido-phosphoryl] hydrogen phosphate
   46    48     1     0     0
SMALL
USER_CHARGES

@<TRIPOS>ATOM
      1 PG         -4.6308    7.5479    2.1084 P.3       1 GTP         1.5400
      2 O1G        -5.6140    7.2457    3.2173 O.co2     1 GTP        -0.8909
      3 O2G        -4.1020    8.9494    1.8991 O.co2     1 GTP        -0.8909
      4 O3G        -5.2591    7.0150    0.6987 O.3       1 GTP        -0.7980
      5 O3B        -3.3698    6.5180    2.2213 O.3       1 GTP        -0.7612
      6 PB         -2.2216    6.3929    3.3753 P.3       1 GTP         1.5847
      7 O1B        -1.3794    7.6490    3.3596 O.co2     1 GTP        -0.8859
      8 O2B        -2.8564    5.8812    4.6492 O.co2     1 GTP        -0.8859
      9 O3A        -1.3614    5.1517    2.7554 O.3       1 GTP        -0.7486
     10 PA         -0.5790    5.0299    1.3261 P.3       1 GTP         1.5001
     11 O1A        -1.5962    5.0956    0.2075 O.co2     1 GTP        -0.8487
     12 O2A         0.6189    5.9541    1.3494 O.co2     1 GTP        -0.8487
     13 O5'         0.0178    3.5131    1.4595 O.3       1 GTP        -0.5474
     14 C5'        -0.8811    2.4285    1.6206 C.3       1 GTP         0.2547
     15 C4'        -0.1994    1.3333    2.4288 C.3       1 GTP         0.0926
     16 O4'        -1.1285    0.2356    2.5840 O.3       1 GTP        -0.3593
     17 C3'         1.0324    0.7610    1.7344 C.3       1 GTP         0.0907
     18 O3'         1.9175    0.2377    2.7247 O.3       1 GTP        -0.5209
     19 C2'         0.4468   -0.3802    0.9263 C.3       1 GTP         0.0305
     20 O2'         1.3993   -1.3703    0.5961 O.3       1 GTP        -0.5978
     21 C1'        -0.6159   -0.9100    1.8769 C.3       1 GTP         0.2339
     22 N9         -1.7127   -1.6108    1.2130 N.pl3     1 GTP        -0.1765
     23 C8         -1.7789   -2.9564    0.9503 C.ar      1 GTP         0.4947
     24 N7         -2.8980   -3.2916    0.3377 N.2       1 GTP        -0.5802
     25 C5         -3.5824   -2.1127    0.2000 C.ar      1 GTP         0.2279
     26 C6         -4.8740   -1.9471   -0.4133 C.ar      1 GTP         0.6513
     27 O6         -5.5366   -2.8529   -0.8978 O.2       1 GTP        -0.5111
     28 N1         -5.3036   -0.5645   -0.3916 N.pl3     1 GTP        -0.4713
     29 C2         -4.5545    0.4997    0.1619 C.ar      1 GTP         0.5256
     30 N2         -5.0561    1.7921    0.1348 N.pl3     1 GTP        -0.8665
     31 N3         -3.2977    0.2393    0.7420 N.pl3     1 GTP        -0.5398
     32 C4         -2.8643   -1.0716    0.7336 C.ar      1 GTP        -0.0275
     33 HOG3       -4.7362    7.1388   -0.1219 H         1 GTP         0.4161
     34 H5'        -1.7771    2.7849    2.1387 H         1 GTP         0.0348
     35 H5''       -1.1654    2.0541    0.6320 H         1 GTP         0.0348
     36 H4'         0.0403    1.7078    3.4343 H         1 GTP         0.1215
     37 H3'         1.5907    1.4859    1.1353 H         1 GTP         0.0576
     38 HO3'        2.6839   -0.1150    2.2479 H         1 GTP         0.3842
     39 H2'        -0.0017    0.0018    0.0005 H         1 GTP         0.0252
     40 HO2'        0.9369   -2.0558    0.0825 H         1 GTP         0.4224
     41 H1'        -0.1998   -1.6319    2.6178 H         1 GTP         0.0745
     42 H8         -0.9852   -3.6367    1.2276 H         1 GTP         0.1522
     43 HN1        -6.2089   -0.3428   -0.8039 H         1 GTP         0.3518
     44 HN21       -4.4981    2.4933    0.5311 H         1 GTP         0.4761
     45 HN22       -5.9352    1.9183   -0.2793 H         1 GTP         0.4761
     46 H46        -2.7541    1.0010    1.1428 H         1 GTP         0.5030
@<TRIPOS>BOND
     1    1    2 2
     2    1    3 1
     3    1    4 1
     4    1    5 1
     5    4   33 1
     6    5    6 1
     7    6    7 2
     8    6    8 1
     9    6    9 1
    10    9   10 1
    11   10   11 2
    12   10   12 1
    13   10   13 1
    14   13   14 1
    15   14   15 1
    16   14   34 1
    17   14   35 1
    18   15   16 1
    19   15   17 1
    20   15   36 1
    21   16   21 1
    22   17   18 1
    23   17   19 1
    24   17   37 1
    25   18   38 1
    26   19   20 1
    27   19   21 1
    28   19   39 1
    29   20   40 1
    30   21   22 1
    31   21   41 1
    32   22   23 ar
    33   22   32 ar
    34   23   24 ar
    35   23   42 1
    36   24   25 ar
    37   25   26 ar
    38   25   32 ar
    39   26   27 2
    40   26   28 ar
    41   28   29 ar
    42   28   43 1
    43   29   30 1
    44   29   31 ar
    45   30   44 1
    46   30   45 1
    47   31   32 ar
    48   31   46 1
@<TRIPOS>SUBSTRUCTURE
     1 GTP         1 GROUP 0 A     ****
@<TRIPOS>MOLECULE
[[[5-(2-amino-6-oxo-1,3-dihydropurin-2-ylium-9-yl)-3,4-dihydroxy-tetrahydrofuran-2-yl]methoxy-oxido-phosphoryl]oxy-oxido-phosphoryl] hydrogen phosphate
   46    48     1     0     0
SMALL
USER_CHARGES

@<TRIPOS>ATOM
      1 PG          2.1506    5.7272    6.2810 P.3       1 GTP         1.5400
      2 O1G         3.0570    4.6155    6.7605 O.co2     1 GTP        -0.8909
      3 O2G         2.7219    6.9839    5.6629 O.co2     1 GTP        -0.8909
      4 O3G         1.1620    6.1559    7.5077 O.3       1 GTP        -0.7980
      5 O3B         1.0322    5.1018    5.2700 O.3       1 GTP        -0.7612
      6 PB         -0.2716    5.8082    4.5869 P.3       1 GTP         1.5847
      7 O1B        -1.2533    6.1725    5.6783 O.co2     1 GTP        -0.8859
      8 O2B         0.1949    6.8256    3.5697 O.co2     1 GTP        -0.8859
      9 O3A        -0.8451    4.5359    3.7400 O.3       1 GTP        -0.7486
     10 PA         -2.1561    4.4278    2.7707 P.3       1 GTP         1.5001
     11 O1A        -3.3990    4.6374    3.6082 O.co2     1 GTP        -0.8487
     12 O2A        -1.9055    5.2477    1.5239 O.co2     1 GTP        -0.8487
     13 O5'        -2.0401    2.8620    2.3128 O.3       1 GTP        -0.5474
     14 C5'        -0.8811    2.4285    1.6206 C.3       1 GTP         0.2547
     15 C4'        -0.1994    1.3333    2.4288 C.3       1 GTP         0.0926
     16 O4'        -1.1285    0.2356    2.5840 O.3       1 GTP        -0.3593
     17 C3'         1.0324    0.7610    1.7344 C.3       1 GTP         0.0907
     18 O3'         1.9175    0.2377    2.7247 O.3       1 GTP        -0.5209
     19 C2'         0.4468   -0.3802    0.9263 C.3       1 GTP         0.0305
     20 O2'         1.3993   -1.3703    0.5961 O.3       1 GTP        -0.5978
     21 C1'        -0.6159   -0.9100    1.8769 C.3       1 GTP         0.2339
     22 N9         -1.7127   -1.6108    1.2130 N.pl3     1 GTP        -0.1765
     23 C8         -1.6092   -2.7449    0.4467 C.ar      1 GTP         0.4947
     24 N7         -2.7778   -3.1416   -0.0191 N.2       1 GTP        -0.5802
     25 C5         -3.6725   -2.2253    0.4675 C.ar      1 GTP         0.2279
     26 C6         -5.0932   -2.2202    0.2371 C.ar      1 GTP         0.6513
     27 O6         -5.6933   -3.0474   -0.4337 O.2       1 GTP        -0.5111
     28 N1         -5.7390   -1.1061    0.8992 N.pl3     1 GTP        -0.4713
     29 C2         -5.0661   -0.1368    1.6789 C.ar      1 GTP         0.5256
     30 N2         -5.7774    0.8934    2.2749 N.pl3     1 GTP        -0.8665
     31 N3         -3.6705   -0.2251    1.8481 N.pl3     1 GTP        -0.5398
     32 C4         -3.0303   -1.2785    1.2262 C.ar      1 GTP        -0.0275
     33 HOG3        0.5090    6.8714    7.3528 H         1 GTP         0.4161
     34 H5'        -1.1767    2.0502    0.6368 H         1 GTP         0.0348
     35 H5''       -0.2080    3.2814    1.4876 H         1 GTP         0.0348
     36 H4'         0.0403    1.7078    3.4343 H         1 GTP         0.1215
     37 H3'         1.5907    1.4859    1.1353 H         1 GTP         0.0576
     38 HO3'        2.6839   -0.1150    2.2479 H         1 GTP         0.3842
     39 H2'        -0.0017    0.0018    0.0005 H         1 GTP         0.0252
     40 HO2'        2.0953   -0.9375    0.0709 H         1 GTP         0.4224
     41 H1'        -0.1998   -1.6319    2.6178 H         1 GTP         0.0745
     42 H8         -0.6610   -3.2324    0.2653 H         1 GTP         0.1522
     43 HN1        -6.7487   -1.0139    0.7961 H         1 GTP         0.3518
     44 HN21       -5.2644    1.5388    2.8044 H         1 GTP         0.4761
     45 HN22       -6.7459    0.9078    2.1265 H         1 GTP         0.4761
     46 H46        -3.1807    0.4690    2.4089 H         1 GTP         0.5030
@<TRIPOS>BOND
     1    1    2 2
     2    1    3 1
     3    1    4 1
     4    1    5 1
     5    4   33 1
     6    5    6 1
     7    6    7 2
     8    6    8 1
     9    6    9 1
    10    9   10 1
    11   10   11 2
    12   10   12 1
    13   10   13 1
    14   13   14 1
    15   14   15 1
    16   14   34 1
    17   14   35 1
    18   15   16 1
    19   15   17 1
    20   15   36 1
    21   16   21 1
    22   17   18 1
    23   17   19 1
    24   17   37 1
    25   18   38 1
    26   19   20 1
    27   19   21 1
    28   19   39 1
    29   20   40 1
    30   21   22 1
    31   21   41 1
    32   22   23 ar
    33   22   32 ar
    34   23   24 ar
    35   23   42 1
    36   24   25 ar
    37   25   26 ar
    38   25   32 ar
    39   26   27 2
    40   26   28 ar
    41   28   29 ar
    42   28   43 1
    43   29   30 1
    44   29   31 ar
    45   30   44 1
    46   30   45 1
    47   31   32 ar
    48   31   46 1
@<TRIPOS>SUBSTRUCTURE
     1 GTP         1 GROUP 0 A     ****
@<TRIPOS>MOLECULE
[[[5-(2-amino-6-oxo-1,3-dihydropurin-2-ylium-9-yl)-3,4-dihydroxy-tetrahydrofuran-2-yl]methoxy-oxido-phosphoryl]oxy-oxido-phosphoryl] hydrogen phosphate
   46    48     1     0     0
SMALL
USER_CHARGES

@<TRIPOS>ATOM
      1 PG         -0.8955    3.4464   -4.6620 P.3       1 GTP         1.5400
      2 O1G        -2.3310    3.2877   -5.1110 O.co2     1 GTP        -0.8909
      3 O2G         0.0127    4.4686   -5.3086 O.co2     1 GTP        -0.8909
      4 O3G        -0.1660    1.9874   -4.7314 O.3       1 GTP        -0.7980
      5 O3B        -0.8655    3.6604   -3.0443 O.3       1 GTP        -0.7612
      6 PB         -1.4165    4.9058   -2.1436 P.3       1 GTP         1.5847
      7 O1B        -0.5984    6.1363   -2.4657 O.co2     1 GTP        -0.8859
      8 O2B        -2.9279    4.9232   -2.1981 O.co2     1 GTP        -0.8859
      9 O3A        -1.0127    4.3553   -0.6607 O.3       1 GTP        -0.7486
     10 PA          0.4528    3.9705   -0.0493 P.3       1 GTP         1.5001
     11 O1A         1.0046    2.7881   -0.8159 O.co2     1 GTP        -0.8487
     12 O2A         1.2580    5.2411    0.1148 O.co2     1 GTP        -0.8487
     13 O5'         0.0178    3.5131    1.4595 O.3       1 GTP        -0.5474
     14 C5'        -0.8811    2.4285    1.6206 C.3       1 GTP         0.2547
     15 C4'        -0.1994    1.3333    2.4288 C.3       1 GTP         0.0926
     16 O4'        -1.1285    0.2356    2.5840 O.3       1 GTP        -0.3593
     17 C3'         1.0324    0.7610    1.7344 C.3       1 GTP         0.0907
     18 O3'         1.9175    0.2377    2.7247 O.3       1 GTP        -0.5209
     19 C2'         0.4468   -0.3802    0.9263 C.3       1 GTP         0.0305
     20 O2'         1.3993   -1.3703    0.5961 O.3       1 GTP        -0.5978
     21 C1'        -0.6159   -0.9100    1.8769 C.3       1 GTP         0.2339
     22 N9         -1.7127   -1.6108    1.2130 N.pl3     1 GTP        -0.1765
     23 C8         -2.5534   -1.0907    0.2607 C.ar      1 GTP         0.4947
     24 N7         -3.4469   -1.9695   -0.1508 N.2       1 GTP        -0.5802
     25 C5         -3.1705   -3.1041    0.5657 C.ar      1 GTP         0.2279
     26 C6         -3.8738   -4.3568    0.4777 C.ar      1 GTP         0.6513
     27 O6         -4.8240   -4.5720   -0.2607 O.2       1 GTP        -0.5111
     28 N1         -3.3198   -5.3462    1.3780 N.pl3     1 GTP        -0.4713
     29 C2         -2.2226   -5.1203    2.2413 C.ar      1 GTP         0.5256
     30 N2         -1.7649   -6.1367    3.0659 N.pl3     1 GTP        -0.8665
     31 N3         -1.5969   -3.8585    2.2574 N.pl3     1 GTP        -0.5398
     32 C4         -2.1068   -2.8965    1.4082 C.ar      1 GTP        -0.0275
     33 HOG3        0.7771    1.9239   -4.4688 H         1 GTP         0.4161
     34 H5'        -1.7771    2.7849    2.1387 H         1 GTP         0.0348
     35 H5''       -1.1654    2.0541    0.6320 H         1 GTP         0.0348
     36 H4'         0.0403    1.7078    3.4343 H         1 GTP         0.1215
     37 H3'         1.5907    1.4859    1.1353 H         1 GTP         0.0576
     38 HO3'        2.6839   -0.1150    2.2479 H         1 GTP         0.3842
     39 H2'        -0.0017    0.0018    0.0005 H         1 GTP         0.0252
     40 HO2'        0.9369   -2.0558    0.0825 H         1 GTP         0.4224
     41 H1'        -0.1998   -1.6319    2.6178 H         1 GTP         0.0745
     42 H8         -2.4657   -0.0713   -0.0897 H         1 GTP         0.1522
     43 HN1        -3.7505   -6.2699    1.3904 H         1 GTP         0.3518
     44 HN21       -1.0023   -5.9289    3.6451 H         1 GTP         0.4761
     45 HN22       -2.2347   -6.9951    3.0150 H         1 GTP         0.4761
     46 H46        -0.8062   -3.6900    2.8760 H         1 GTP         0.5030
@<TRIPOS>BOND
     1    1    2 2
     2    1    3 1
     3    1    4 1
     4    1    5 1
     5    4   33 1
     6    5    6 1
     7    6    7 2
     8    6    8 1
     9    6    9 1
    10    9   10 1
    11   10   11 2
    12   10   12 1
    13   10   13 1
    14   13   14 1
    15   14   15 1
    16   14   34 1
    17   14   35 1
    18   15   16 1
    19   15   17 1
    20   15   36 1
    21   16   21 1
    22   17   18 1
    23   17   19 1
    24   17   37 1
    25   18   38 1
    26   19   20 1
    27   19   21 1
    28   19   39 1
    29   20   40 1
    30   21   22 1
    31   21   41 1
    32   22   23 ar
    33   22   32 ar
    34   23   24 ar
    35   23   42 1
    36   24   25 ar
    37   25   26 ar
    38   25   32 ar
    39   26   27 2
    40   26   28 ar
    41   28   29 ar
    42   28   43 1
    43   29   30 1
    44   29   31 ar
    45   30   44 1
    46   30   45 1
    47   31   32 ar
    48   31   46 1
@<TRIPOS>SUBSTRUCTURE
     1 GTP         1 GROUP 0 A     ****
@<TRIPOS>MOLECULE
[[[5-(2-amino-6-oxo-1,3-dihydropurin-2-ylium-9-yl)-3,4-dihydroxy-tetrahydrofuran-2-yl]methoxy-oxido-phosphoryl]oxy-oxido-phosphoryl] hydrogen phosphate
   46    48     1     0     0
SMALL
USER_CHARGES

@<TRIPOS>ATOM
      1 PG          9.4216   -1.1026    1.8358 P.3       1 GTP         1.5400
      2 O1G         9.2755   -1.4593    3.2983 O.co2     1 GTP        -0.8909
      3 O2G        10.1290   -2.0329    0.8757 O.co2     1 GTP        -0.8909
      4 O3G        10.1095    0.3742    1.7283 O.3       1 GTP        -0.7980
      5 O3B         7.9517   -0.7347    1.2294 O.3       1 GTP        -0.7612
      6 PB          6.6479   -1.6892    0.9954 P.3       1 GTP         1.5847
      7 O1B         6.9842   -2.7191   -0.0599 O.co2     1 GTP        -0.8859
      8 O2B         6.0815   -2.0888    2.3397 O.co2     1 GTP        -0.8859
      9 O3A         5.6224   -0.5833    0.3709 O.3       1 GTP        -0.7486
     10 PA          5.7602    0.3298   -0.9771 P.3       1 GTP         1.5001
     11 O1A         6.9313    1.2734   -0.8079 O.co2     1 GTP        -0.8487
     12 O2A         5.6513   -0.5728   -2.1867 O.co2     1 GTP        -0.8487
     13 O5'         4.3516    1.1575   -0.9026 O.3       1 GTP        -0.5474
     14 C5'         4.0922    1.9801    0.2227 C.3       1 GTP         0.2547
     15 C4'         2.5944    2.0310    0.4653 C.3       1 GTP         0.0926
     16 O4'         1.9327    2.5740   -0.6889 O.3       1 GTP        -0.3593
     17 C3'         1.9685    0.6634    0.6767 C.3       1 GTP         0.0907
     18 O3'         2.1425    0.1975    1.9977 O.3       1 GTP        -0.5209
     19 C2'         0.5176    0.9128    0.3099 C.3       1 GTP         0.0305
     20 O2'        -0.2103    1.4454    1.4152 O.3       1 GTP        -0.5978
     21 C1'         0.6219    1.9765   -0.7844 C.3       1 GTP         0.2339
     22 N9          0.4237    1.4496   -2.1357 N.pl3     1 GTP        -0.1765
     23 C8          1.3988    0.9691   -2.9736 C.ar      1 GTP         0.4947
     24 N7          0.9092    0.5634   -4.1293 N.2       1 GTP        -0.5802
     25 C5         -0.4383    0.7914   -4.0325 C.ar      1 GTP         0.2279
     26 C6         -1.4217    0.5138   -5.0461 C.ar      1 GTP         0.6513
     27 O6         -1.1759    0.0306   -6.1417 O.2       1 GTP        -0.5111
     28 N1         -2.7543    0.8794   -4.6134 N.pl3     1 GTP        -0.4713
     29 C2         -3.0626    1.4402   -3.3523 C.ar      1 GTP         0.5256
     30 N2         -4.3747    1.7544   -3.0321 N.pl3     1 GTP        -0.8665
     31 N3         -2.0304    1.6759   -2.4233 N.pl3     1 GTP        -0.5398
     32 C4         -0.7497    1.3366   -2.8118 C.ar      1 GTP        -0.0275
     33 HOG3       10.2723    0.7497    0.8368 H         1 GTP         0.4161
     34 H5'         4.6069    1.5618    1.0936 H         1 GTP         0.0348
     35 H5''        4.4824    2.9837    0.0254 H         1 GTP         0.0348
     36 H4'         2.3752    2.7029    1.3156 H         1 GTP         0.1215
     37 H3'         2.4336   -0.1217   -0.0015 H         1 GTP         0.0576
     38 HO3'        1.7160   -0.6716    2.0397 H         1 GTP         0.3842
     39 H2'         0.0316    0.0155   -0.0339 H         1 GTP         0.0252
     40 HO2'       -0.1608    0.7921    2.1351 H         1 GTP         0.4224
     41 H1'        -0.1474    2.7798   -0.6651 H         1 GTP         0.0745
     42 H8          2.4413    0.9409   -2.6872 H         1 GTP         0.1522
     43 HN1        -3.5236    0.7214   -5.2629 H         1 GTP         0.3518
     44 HN21       -4.5350    2.1409   -2.1461 H         1 GTP         0.4761
     45 HN22       -5.0542    1.5695   -3.7134 H         1 GTP         0.4761
     46 H46        -2.2462    2.0786   -1.5136 H         1 GTP         0.5030
@<TRIPOS>BOND
     1    1    2 2
     2    1    3 1
     3    1    4 1
     4    1    5 1
     5    4   33 1
     6    5    6 1
     7    6    7 2
     8    6    8 1
     9    6    9 1
    10    9   10 1
    11   10   11 2
    12   10   12 1
    13   10   13 1
    14   13   14 1
    15   14   15 1
    16   14   34 1
    17   14   35 1
    18   15   16 1
    19   15   17 1
    20   15   36 1
    21   16   21 1
    22   17   18 1
    23   17   19 1
    24   17   37 1
    25   18   38 1
    26   19   20 1
    27   19   21 1
    28   19   39 1
    29   20   40 1
    30   21   22 1
    31   21   41 1
    32   22   23 ar
    33   22   32 ar
    34   23   24 ar
    35   23   42 1
    36   24   25 ar
    37   25   26 ar
    38   25   32 ar
    39   26   27 2
    40   26   28 ar
    41   28   29 ar
    42   28   43 1
    43   29   30 1
    44   29   31 ar
    45   30   44 1
    46   30   45 1
    47   31   32 ar
    48   31   46 1
@<TRIPOS>SUBSTRUCTURE
     1 GTP         1 GROUP 0 A     ****
@<TRIPOS>MOLECULE
[[[5-(2-amino-6-oxo-1,3-dihydropurin-2-ylium-9-yl)-3,4-dihydroxy-tetrahydrofuran-2-yl]methoxy-oxido-phosphoryl]oxy-oxido-phosphoryl] hydrogen phosphate
   46    48     1     0     0
SMALL
USER_CHARGES

@<TRIPOS>ATOM
      1 PG          5.5666    1.6627    4.7660 P.3       1 GTP         1.5400
      2 O1G         4.4141    1.4974    3.8006 O.co2     1 GTP        -0.8909
      3 O2G         6.6120    0.5807    4.9210 O.co2     1 GTP        -0.8909
      4 O3G         4.9612    2.0137    6.2412 O.3       1 GTP        -0.7980
      5 O3B         6.3145    3.0812    4.4624 O.3       1 GTP        -0.7612
      6 PB          7.1762    3.5511    3.1577 P.3       1 GTP         1.5847
      7 O1B         7.5374    5.0113    3.3153 O.co2     1 GTP        -0.8859
      8 O2B         8.2252    2.5041    2.8562 O.co2     1 GTP        -0.8859
      9 O3A         6.0234    3.3950    2.0124 O.3       1 GTP        -0.7486
     10 PA          6.0980    3.6799    0.4052 P.3       1 GTP         1.5001
     11 O1A         6.3463    5.1563    0.1838 O.co2     1 GTP        -0.8487
     12 O2A         6.9860    2.6332   -0.2316 O.co2     1 GTP        -0.8487
     13 O5'         4.5670    3.2937   -0.0211 O.3       1 GTP        -0.5474
     14 C5'         4.0922    1.9801    0.2227 C.3       1 GTP         0.2547
     15 C4'         2.5944    2.0310    0.4653 C.3       1 GTP         0.0926
     16 O4'         1.9327    2.5740   -0.6889 O.3       1 GTP        -0.3593
     17 C3'         1.9685    0.6634    0.6767 C.3       1 GTP         0.0907
     18 O3'         2.1425    0.1975    1.9977 O.3       1 GTP        -0.5209
     19 C2'         0.5176    0.9128    0.3099 C.3       1 GTP         0.0305
     20 O2'        -0.2103    1.4454    1.4152 O.3       1 GTP        -0.5978
     21 C1'         0.6219    1.9765   -0.7844 C.3       1 GTP         0.2339
     22 N9          0.4237    1.4496   -2.1357 N.pl3     1 GTP        -0.1765
     23 C8          1.3988    0.9691   -2.9736 C.ar      1 GTP         0.4947
     24 N7          0.9092    0.5634   -4.1293 N.2       1 GTP        -0.5802
     25 C5         -0.4383    0.7914   -4.0325 C.ar      1 GTP         0.2279
     26 C6         -1.4217    0.5138   -5.0461 C.ar      1 GTP         0.6513
     27 O6         -1.1759    0.0306   -6.1417 O.2       1 GTP        -0.5111
     28 N1         -2.7543    0.8794   -4.6134 N.pl3     1 GTP        -0.4713
     29 C2         -3.0626    1.4402   -3.3523 C.ar      1 GTP         0.5256
     30 N2         -4.3747    1.7544   -3.0321 N.pl3     1 GTP        -0.8665
     31 N3         -2.0304    1.6759   -2.4233 N.pl3     1 GTP        -0.5398
     32 C4         -0.7497    1.3366   -2.8118 C.ar      1 GTP        -0.0275
     33 HOG3        5.5885    2.1515    6.9826 H         1 GTP         0.4161
     34 H5'         4.3179    1.3548   -0.6470 H         1 GTP         0.0348
     35 H5''        4.6083    1.5737    1.0983 H         1 GTP         0.0348
     36 H4'         2.3752    2.7029    1.3156 H         1 GTP         0.1215
     37 H3'         2.4336   -0.1217   -0.0015 H         1 GTP         0.0576
     38 HO3'        1.7160   -0.6716    2.0397 H         1 GTP         0.3842
     39 H2'         0.0316    0.0155   -0.0339 H         1 GTP         0.0252
     40 HO2'       -0.1608    0.7921    2.1351 H         1 GTP         0.4224
     41 H1'        -0.1474    2.7798   -0.6651 H         1 GTP         0.0745
     42 H8          2.4413    0.9409   -2.6872 H         1 GTP         0.1522
     43 HN1        -3.5236    0.7214   -5.2629 H         1 GTP         0.3518
     44 HN21       -4.5350    2.1409   -2.1461 H         1 GTP         0.4761
     45 HN22       -5.0542    1.5695   -3.7134 H         1 GTP         0.4761
     46 H46        -2.2462    2.0786   -1.5136 H         1 GTP         0.5030
@<TRIPOS>BOND
     1    1    2 2
     2    1    3 1
     3    1    4 1
     4    1    5 1
     5    4   33 1
     6    5    6 1
     7    6    7 2
     8    6    8 1
     9    6    9 1
    10    9   10 1
    11   10   11 2
    12   10   12 1
    13   10   13 1
    14   13   14 1
    15   14   15 1
    16   14   34 1
    17   14   35 1
    18   15   16 1
    19   15   17 1
    20   15   36 1
    21   16   21 1
    22   17   18 1
    23   17   19 1
    24   17   37 1
    25   18   38 1
    26   19   20 1
    27   19   21 1
    28   19   39 1
    29   20   40 1
    30   21   22 1
    31   21   41 1
    32   22   23 ar
    33   22   32 ar
    34   23   24 ar
    35   23   42 1
    36   24   25 ar
    37   25   26 ar
    38   25   32 ar
    39   26   27 2
    40   26   28 ar
    41   28   29 ar
    42   28   43 1
    43   29   30 1
    44   29   31 ar
    45   30   44 1
    46   30   45 1
    47   31   32 ar
    48   31   46 1
@<TRIPOS>SUBSTRUCTURE
     1 GTP         1 GROUP 0 A     ****
@<TRIPOS>MOLECULE
[[[5-(2-amino-6-oxo-1,3-dihydropurin-2-ylium-9-yl)-3,4-dihydroxy-tetrahydrofuran-2-yl]methoxy-oxido-phosphoryl]oxy-oxido-phosphoryl] hydrogen phosphate
   46    48     1     0     0
SMALL
USER_CHARGES

@<TRIPOS>ATOM
      1 PG         -1.4026    7.3411   -0.1584 P.3       1 GTP         1.5400
      2 O1G        -1.6966    5.9197   -0.5835 O.co2     1 GTP        -0.8909
      3 O2G        -2.5129    8.3606   -0.0342 O.co2     1 GTP        -0.8909
      4 O3G        -0.2488    7.9482   -1.1414 O.3       1 GTP        -0.7980
      5 O3B        -0.5512    7.3139    1.2337 O.3       1 GTP        -0.7612
      6 PB         -1.0016    6.8281    2.7259 P.3       1 GTP         1.5847
      7 O1B         0.2052    6.8760    3.6363 O.co2     1 GTP        -0.8859
      8 O2B        -2.2999    7.5101    3.0957 O.co2     1 GTP        -0.8859
      9 O3A        -1.3731    5.2735    2.3942 O.3       1 GTP        -0.7486
     10 PA         -1.9156    4.0918    3.3837 P.3       1 GTP         1.5001
     11 O1A        -0.8453    3.7865    4.4092 O.co2     1 GTP        -0.8487
     12 O2A        -3.3304    4.4243    3.8049 O.co2     1 GTP        -0.8487
     13 O5'        -2.0401    2.8620    2.3128 O.3       1 GTP        -0.5474
     14 C5'        -0.8811    2.4285    1.6206 C.3       1 GTP         0.2547
     15 C4'        -0.1994    1.3333    2.4288 C.3       1 GTP         0.0926
     16 O4'        -1.1285    0.2356    2.5840 O.3       1 GTP        -0.3593
     17 C3'         1.0324    0.7610    1.7344 C.3       1 GTP         0.0907
     18 O3'         1.9175    0.2377    2.7247 O.3       1 GTP        -0.5209
     19 C2'         0.4468   -0.3802    0.9263 C.3       1 GTP         0.0305
     20 O2'         1.3993   -1.3703    0.5961 O.3       1 GTP        -0.5978
     21 C1'        -0.6159   -0.9100    1.8769 C.3       1 GTP         0.2339
     22 N9         -1.7127   -1.6108    1.2130 N.pl3     1 GTP        -0.1765
     23 C8         -1.7789   -2.9564    0.9503 C.ar      1 GTP         0.4947
     24 N7         -2.8980   -3.2916    0.3377 N.2       1 GTP        -0.5802
     25 C5         -3.5824   -2.1127    0.2000 C.ar      1 GTP         0.2279
     26 C6         -4.8740   -1.9471   -0.4133 C.ar      1 GTP         0.6513
     27 O6         -5.5366   -2.8529   -0.8978 O.2       1 GTP        -0.5111
     28 N1         -5.3036   -0.5645   -0.3916 N.pl3     1 GTP        -0.4713
     29 C2         -4.5545    0.4997    0.1619 C.ar      1 GTP         0.5256
     30 N2         -5.0561    1.7921    0.1348 N.pl3     1 GTP        -0.8665
     31 N3         -3.2977    0.2393    0.7420 N.pl3     1 GTP        -0.5398
     32 C4         -2.8643   -1.0716    0.7336 C.ar      1 GTP        -0.0275
     33 HOG3        0.0537    8.8694   -0.9928 H         1 GTP         0.4161
     34 H5'        -1.1767    2.0502    0.6368 H         1 GTP         0.0348
     35 H5''       -0.2080    3.2814    1.4876 H         1 GTP         0.0348
     36 H4'         0.0403    1.7078    3.4343 H         1 GTP         0.1215
     37 H3'         1.5907    1.4859    1.1353 H         1 GTP         0.0576
     38 HO3'        2.6839   -0.1150    2.2479 H         1 GTP         0.3842
     39 H2'        -0.0017    0.0018    0.0005 H         1 GTP         0.0252
     40 HO2'        2.0953   -0.9375    0.0709 H         1 GTP         0.4224
     41 H1'        -0.1998   -1.6319    2.6178 H         1 GTP         0.0745
     42 H8         -0.9852   -3.6367    1.2276 H         1 GTP         0.1522
     43 HN1        -6.2089   -0.3428   -0.8039 H         1 GTP         0.3518
     44 HN21       -5.9354    1.9184   -0.2788 H         1 GTP         0.4761
     45 HN22       -4.4982    2.4931    0.5316 H         1 GTP         0.4761
     46 H46        -2.7541    1.0010    1.1428 H         1 GTP         0.5030
@<TRIPOS>BOND
     1    1    2 2
     2    1    3 1
     3    1    4 1
     4    1    5 1
     5    4   33 1
     6    5    6 1
     7    6    7 2
     8    6    8 1
     9    6    9 1
    10    9   10 1
    11   10   11 2
    12   10   12 1
    13   10   13 1
    14   13   14 1
    15   14   15 1
    16   14   34 1
    17   14   35 1
    18   15   16 1
    19   15   17 1
    20   15   36 1
    21   16   21 1
    22   17   18 1
    23   17   19 1
    24   17   37 1
    25   18   38 1
    26   19   20 1
    27   19   21 1
    28   19   39 1
    29   20   40 1
    30   21   22 1
    31   21   41 1
    32   22   23 ar
    33   22   32 ar
    34   23   24 ar
    35   23   42 1
    36   24   25 ar
    37   25   26 ar
    38   25   32 ar
    39   26   27 2
    40   26   28 ar
    41   28   29 ar
    42   28   43 1
    43   29   30 1
    44   29   31 ar
    45   30   44 1
    46   30   45 1
    47   31   32 ar
    48   31   46 1
@<TRIPOS>SUBSTRUCTURE
     1 GTP         1 GROUP 0 A     ****
@<TRIPOS>MOLECULE
[[[5-(2-amino-6-oxo-1,3-dihydropurin-2-ylium-9-yl)-3,4-dihydroxy-tetrahydrofuran-2-yl]methoxy-oxido-phosphoryl]oxy-oxido-phosphoryl] hydrogen phosphate
   46    48     1     0     0
SMALL
USER_CHARGES

@<TRIPOS>ATOM
      1 PG         -2.2376    2.1119   -2.9593 P.3       1 GTP         1.5400
      2 O1G        -1.7189    1.3748   -1.7448 O.co2     1 GTP        -0.8909
      3 O2G        -3.7102    2.4224   -3.1099 O.co2     1 GTP        -0.8909
      4 O3G        -1.7343    1.3244   -4.2981 O.3       1 GTP        -0.7980
      5 O3B        -1.3844    3.4903   -3.1485 O.3       1 GTP        -0.7612
      6 PB         -1.3288    4.8235   -2.2077 P.3       1 GTP         1.5847
      7 O1B        -0.2754    5.7602   -2.7559 O.co2     1 GTP        -0.8859
      8 O2B        -2.7401    5.2929   -1.9334 O.co2     1 GTP        -0.8859
      9 O3A        -0.7889    4.1455   -0.8244 O.3       1 GTP        -0.7486
     10 PA         -0.4665    4.8322    0.6228 P.3       1 GTP         1.5001
     11 O1A         0.6860    5.7988    0.4566 O.co2     1 GTP        -0.8487
     12 O2A        -1.7709    5.2708    1.2521 O.co2     1 GTP        -0.8487
     13 O5'         0.0178    3.5131    1.4595 O.3       1 GTP        -0.5474
     14 C5'        -0.8811    2.4285    1.6206 C.3       1 GTP         0.2547
     15 C4'        -0.1994    1.3333    2.4288 C.3       1 GTP         0.0926
     16 O4'        -1.1285    0.2356    2.5840 O.3       1 GTP        -0.3593
     17 C3'         1.0324    0.7610    1.7344 C.3       1 GTP         0.0907
     18 O3'         1.9175    0.2377    2.7247 O.3       1 GTP        -0.5209
     19 C2'         0.4468   -0.3802    0.9263 C.3       1 GTP         0.0305
     20 O2'         1.3993   -1.3703    0.5961 O.3       1 GTP        -0.5978
     21 C1'        -0.6159   -0.9100    1.8769 C.3       1 GTP         0.2339
     22 N9         -1.7127   -1.6108    1.2130 N.pl3     1 GTP        -0.1765
     23 C8         -1.6311   -2.3341    0.0493 C.ar      1 GTP         0.4947
     24 N7         -2.7933   -2.8506   -0.3007 N.2       1 GTP        -0.5802
     25 C5         -3.6607   -2.4436    0.6786 C.ar      1 GTP         0.2279
     26 C6         -5.0651   -2.7506    0.7505 C.ar      1 GTP         0.6513
     27 O6         -5.6735   -3.4256   -0.0671 O.2       1 GTP        -0.5111
     28 N1         -5.6834   -2.1585    1.9182 N.pl3     1 GTP        -0.4713
     29 C2         -5.0007   -1.3738    2.8765 C.ar      1 GTP         0.5256
     30 N2         -5.6847   -0.8521    3.9640 N.pl3     1 GTP        -0.8665
     31 N3         -3.6227   -1.1271    2.7212 N.pl3     1 GTP        -0.5398
     32 C4         -3.0090   -1.6802    1.6149 C.ar      1 GTP        -0.0275
     33 HOG3       -1.9915    1.6821   -5.1746 H         1 GTP         0.4161
     34 H5'        -1.7771    2.7849    2.1387 H         1 GTP         0.0348
     35 H5''       -1.1654    2.0541    0.6320 H         1 GTP         0.0348
     36 H4'         0.0403    1.7078    3.4343 H         1 GTP         0.1215
     37 H3'         1.5907    1.4859    1.1353 H         1 GTP         0.0576
     38 HO3'        2.6839   -0.1150    2.2479 H         1 GTP         0.3842
     39 H2'        -0.0017    0.0018    0.0005 H         1 GTP         0.0252
     40 HO2'        2.0953   -0.9375    0.0709 H         1 GTP         0.4224
     41 H1'        -0.1998   -1.6319    2.6178 H         1 GTP         0.0745
     42 H8         -0.7029   -2.4474   -0.4941 H         1 GTP         0.1522
     43 HN1        -6.6800   -2.3183    2.0594 H         1 GTP         0.3518
     44 HN21       -5.1660   -0.3153    4.5987 H         1 GTP         0.4761
     45 HN22       -6.6415   -1.0545    4.0252 H         1 GTP         0.4761
     46 H46        -3.1256   -0.5638    3.4080 H         1 GTP         0.5030
@<TRIPOS>BOND
     1    1    2 2
     2    1    3 1
     3    1    4 1
     4    1    5 1
     5    4   33 1
     6    5    6 1
     7    6    7 2
     8    6    8 1
     9    6    9 1
    10    9   10 1
    11   10   11 2
    12   10   12 1
    13   10   13 1
    14   13   14 1
    15   14   15 1
    16   14   34 1
    17   14   35 1
    18   15   16 1
    19   15   17 1
    20   15   36 1
    21   16   21 1
    22   17   18 1
    23   17   19 1
    24   17   37 1
    25   18   38 1
    26   19   20 1
    27   19   21 1
    28   19   39 1
    29   20   40 1
    30   21   22 1
    31   21   41 1
    32   22   23 ar
    33   22   32 ar
    34   23   24 ar
    35   23   42 1
    36   24   25 ar
    37   25   26 ar
    38   25   32 ar
    39   26   27 2
    40   26   28 ar
    41   28   29 ar
    42   28   43 1
    43   29   30 1
    44   29   31 ar
    45   30   44 1
    46   30   45 1
    47   31   32 ar
    48   31   46 1
@<TRIPOS>SUBSTRUCTURE
     1 GTP         1 GROUP 0 A     ****
@<TRIPOS>MOLECULE
[[[5-(2-amino-6-oxo-1,3-dihydropurin-2-ylium-9-yl)-3,4-dihydroxy-tetrahydrofuran-2-yl]methoxy-oxido-phosphoryl]oxy-oxido-phosphoryl] hydrogen phosphate
   46    48     1     0     0
SMALL
USER_CHARGES

@<TRIPOS>ATOM
      1 PG         -4.0407    6.2345   -2.3842 P.3       1 GTP         1.5400
      2 O1G        -5.2449    7.0642   -1.9980 O.co2     1 GTP        -0.8909
      3 O2G        -2.7788    6.8893   -2.9005 O.co2     1 GTP        -0.8909
      4 O3G        -4.5148    5.1020   -3.4606 O.3       1 GTP        -0.7980
      5 O3B        -3.6549    5.2482   -1.1424 O.3       1 GTP        -0.7612
      6 PB         -4.5863    4.1899   -0.3189 P.3       1 GTP         1.5847
      7 O1B        -5.6461    4.9615    0.4354 O.co2     1 GTP        -0.8859
      8 O2B        -4.9441    3.0359   -1.2287 O.co2     1 GTP        -0.8859
      9 O3A        -3.4727    3.6234    0.7318 O.3       1 GTP        -0.7486
     10 PA         -2.5926    4.4187    1.8556 P.3       1 GTP         1.5001
     11 O1A        -1.6707    5.3914    1.1526 O.co2     1 GTP        -0.8487
     12 O2A        -3.5190    4.8780    2.9603 O.co2     1 GTP        -0.8487
     13 O5'        -1.7336    3.1724    2.4750 O.3       1 GTP        -0.5474
     14 C5'        -0.8811    2.4285    1.6206 C.3       1 GTP         0.2547
     15 C4'        -0.1994    1.3333    2.4288 C.3       1 GTP         0.0926
     16 O4'        -1.1285    0.2356    2.5840 O.3       1 GTP        -0.3593
     17 C3'         1.0324    0.7610    1.7344 C.3       1 GTP         0.0907
     18 O3'         1.9175    0.2377    2.7247 O.3       1 GTP        -0.5209
     19 C2'         0.4468   -0.3802    0.9263 C.3       1 GTP         0.0305
     20 O2'         1.3993   -1.3703    0.5961 O.3       1 GTP        -0.5978
     21 C1'        -0.6159   -0.9100    1.8769 C.3       1 GTP         0.2339
     22 N9         -1.7127   -1.6108    1.2130 N.pl3     1 GTP        -0.1765
     23 C8         -1.6311   -2.3341    0.0493 C.ar      1 GTP         0.4947
     24 N7         -2.7933   -2.8506   -0.3007 N.2       1 GTP        -0.5802
     25 C5         -3.6607   -2.4436    0.6786 C.ar      1 GTP         0.2279
     26 C6         -5.0651   -2.7506    0.7505 C.ar      1 GTP         0.6513
     27 O6         -5.6735   -3.4256   -0.0671 O.2       1 GTP        -0.5111
     28 N1         -5.6834   -2.1585    1.9182 N.pl3     1 GTP        -0.4713
     29 C2         -5.0007   -1.3738    2.8765 C.ar      1 GTP         0.5256
     30 N2         -5.6847   -0.8521    3.9640 N.pl3     1 GTP        -0.8665
     31 N3         -3.6227   -1.1271    2.7212 N.pl3     1 GTP        -0.5398
     32 C4         -3.0090   -1.6802    1.6149 C.ar      1 GTP        -0.0275
     33 HOG3       -3.8421    4.4795   -3.8102 H         1 GTP         0.4161
     34 H5'        -1.4800    1.9927    0.8146 H         1 GTP         0.0348
     35 H5''       -0.1367    3.1040    1.1872 H         1 GTP         0.0348
     36 H4'         0.0403    1.7078    3.4343 H         1 GTP         0.1215
     37 H3'         1.5907    1.4859    1.1353 H         1 GTP         0.0576
     38 HO3'        2.6839   -0.1150    2.2479 H         1 GTP         0.3842
     39 H2'        -0.0017    0.0018    0.0005 H         1 GTP         0.0252
     40 HO2'        2.0953   -0.9375    0.0709 H         1 GTP         0.4224
     41 H1'        -0.1998   -1.6319    2.6178 H         1 GTP         0.0745
     42 H8         -0.7029   -2.4474   -0.4941 H         1 GTP         0.1522
     43 HN1        -6.6800   -2.3183    2.0594 H         1 GTP         0.3518
     44 HN21       -5.1660   -0.3153    4.5987 H         1 GTP         0.4761
     45 HN22       -6.6415   -1.0545    4.0252 H         1 GTP         0.4761
     46 H46        -3.1256   -0.5638    3.4080 H         1 GTP         0.5030
@<TRIPOS>BOND
     1    1    2 2
     2    1    3 1
     3    1    4 1
     4    1    5 1
     5    4   33 1
     6    5    6 1
     7    6    7 2
     8    6    8 1
     9    6    9 1
    10    9   10 1
    11   10   11 2
    12   10   12 1
    13   10   13 1
    14   13   14 1
    15   14   15 1
    16   14   34 1
    17   14   35 1
    18   15   16 1
    19   15   17 1
    20   15   36 1
    21   16   21 1
    22   17   18 1
    23   17   19 1
    24   17   37 1
    25   18   38 1
    26   19   20 1
    27   19   21 1
    28   19   39 1
    29   20   40 1
    30   21   22 1
    31   21   41 1
    32   22   23 ar
    33   22   32 ar
    34   23   24 ar
    35   23   42 1
    36   24   25 ar
    37   25   26 ar
    38   25   32 ar
    39   26   27 2
    40   26   28 ar
    41   28   29 ar
    42   28   43 1
    43   29   30 1
    44   29   31 ar
    45   30   44 1
    46   30   45 1
    47   31   32 ar
    48   31   46 1
@<TRIPOS>SUBSTRUCTURE
     1 GTP         1 GROUP 0 A     ****
@<TRIPOS>MOLECULE
[[[5-(2-amino-6-oxo-1,3-dihydropurin-2-ylium-9-yl)-3,4-dihydroxy-tetrahydrofuran-2-yl]methoxy-oxido-phosphoryl]oxy-oxido-phosphoryl] hydrogen phosphate
   46    48     1     0     0
SMALL
USER_CHARGES

@<TRIPOS>ATOM
      1 PG          1.2617    6.1829   -0.4681 P.3       1 GTP         1.5400
      2 O1G         2.4651    5.3434   -0.1012 O.co2     1 GTP        -0.8909
      3 O2G         0.1531    5.6182   -1.3283 O.co2     1 GTP        -0.8909
      4 O3G         1.7860    7.5732   -1.1450 O.3       1 GTP        -0.7980
      5 O3B         0.6107    6.8021    0.8944 O.3       1 GTP        -0.7612
      6 PB         -0.1374    6.0464    2.1333 P.3       1 GTP         1.5847
      7 O1B         0.7774    4.9660    2.6655 O.co2     1 GTP        -0.8859
      8 O2B        -0.7512    7.0846    3.0460 O.co2     1 GTP        -0.8859
      9 O3A        -1.3723    5.3610    1.3148 O.3       1 GTP        -0.7486
     10 PA         -2.5926    4.4187    1.8556 P.3       1 GTP         1.5001
     11 O1A        -3.3211    5.1526    2.9606 O.co2     1 GTP        -0.8487
     12 O2A        -3.3385    3.8605    0.6632 O.co2     1 GTP        -0.8487
     13 O5'        -1.7336    3.1724    2.4750 O.3       1 GTP        -0.5474
     14 C5'        -0.8811    2.4285    1.6206 C.3       1 GTP         0.2547
     15 C4'        -0.1994    1.3333    2.4288 C.3       1 GTP         0.0926
     16 O4'        -1.1285    0.2356    2.5840 O.3       1 GTP        -0.3593
     17 C3'         1.0324    0.7610    1.7344 C.3       1 GTP         0.0907
     18 O3'         1.9175    0.2377    2.7247 O.3       1 GTP        -0.5209
     19 C2'         0.4468   -0.3802    0.9263 C.3       1 GTP         0.0305
     20 O2'         1.3993   -1.3703    0.5961 O.3       1 GTP        -0.5978
     21 C1'        -0.6159   -0.9100    1.8769 C.3       1 GTP         0.2339
     22 N9         -1.7127   -1.6108    1.2130 N.pl3     1 GTP        -0.1765
     23 C8         -3.0389   -1.2578    1.2391 C.ar      1 GTP         0.4947
     24 N7         -3.7909   -2.0880    0.5425 N.2       1 GTP        -0.5802
     25 C5         -2.9127   -3.0150    0.0458 C.ar      1 GTP         0.2279
     26 C6         -3.2467   -4.1411   -0.7860 C.ar      1 GTP         0.6513
     27 O6         -4.3761   -4.4189   -1.1621 O.2       1 GTP        -0.5111
     28 N1         -2.0748   -4.9191   -1.1296 N.pl3     1 GTP        -0.4713
     29 C2         -0.7595   -4.6181   -0.7058 C.ar      1 GTP         0.5256
     30 N2          0.2985   -5.4268   -1.0920 N.pl3     1 GTP        -0.8665
     31 N3         -0.5304   -3.4919    0.1084 N.pl3     1 GTP        -0.5398
     32 C4         -1.6318   -2.7332    0.4512 C.ar      1 GTP        -0.0275
     33 HOG3        1.1192    8.2296   -1.4394 H         1 GTP         0.4161
     34 H5'        -1.4800    1.9927    0.8146 H         1 GTP         0.0348
     35 H5''       -0.1367    3.1040    1.1872 H         1 GTP         0.0348
     36 H4'         0.0403    1.7078    3.4343 H         1 GTP         0.1215
     37 H3'         1.5907    1.4859    1.1353 H         1 GTP         0.0576
     38 HO3'        2.1521    0.9800    3.3017 H         1 GTP         0.3842
     39 H2'        -0.0017    0.0018    0.0005 H         1 GTP         0.0252
     40 HO2'        1.7495   -1.7243    1.4324 H         1 GTP         0.4224
     41 H1'        -0.1998   -1.6319    2.6178 H         1 GTP         0.0745
     42 H8         -3.3933   -0.3909    1.7800 H         1 GTP         0.1522
     43 HN1        -2.2071   -5.7408   -1.7178 H         1 GTP         0.3518
     44 HN21        0.0848   -6.1964   -1.6597 H         1 GTP         0.4761
     45 HN22        1.1896   -5.1747   -0.7719 H         1 GTP         0.4761
     46 H46         0.4142   -3.2695    0.4160 H         1 GTP         0.5030
@<TRIPOS>BOND
     1    1    2 2
     2    1    3 1
     3    1    4 1
     4    1    5 1
     5    4   33 1
     6    5    6 1
     7    6    7 2
     8    6    8 1
     9    6    9 1
    10    9   10 1
    11   10   11 2
    12   10   12 1
    13   10   13 1
    14   13   14 1
    15   14   15 1
    16   14   34 1
    17   14   35 1
    18   15   16 1
    19   15   17 1
    20   15   36 1
    21   16   21 1
    22   17   18 1
    23   17   19 1
    24   17   37 1
    25   18   38 1
    26   19   20 1
    27   19   21 1
    28   19   39 1
    29   20   40 1
    30   21   22 1
    31   21   41 1
    32   22   23 ar
    33   22   32 ar
    34   23   24 ar
    35   23   42 1
    36   24   25 ar
    37   25   26 ar
    38   25   32 ar
    39   26   27 2
    40   26   28 ar
    41   28   29 ar
    42   28   43 1
    43   29   30 1
    44   29   31 ar
    45   30   44 1
    46   30   45 1
    47   31   32 ar
    48   31   46 1
@<TRIPOS>SUBSTRUCTURE
     1 GTP         1 GROUP 0 A     ****
@<TRIPOS>MOLECULE
[[[5-(2-amino-6-oxo-1,3-dihydropurin-2-ylium-9-yl)-3,4-dihydroxy-tetrahydrofuran-2-yl]methoxy-oxido-phosphoryl]oxy-oxido-phosphoryl] hydrogen phosphate
   46    48     1     0     0
SMALL
USER_CHARGES

@<TRIPOS>ATOM
      1 PG         -2.9752    8.4527    4.6043 P.3       1 GTP         1.5400
      2 O1G        -3.7701    9.2267    3.5764 O.co2     1 GTP        -0.8909
      3 O2G        -3.5413    8.1796    5.9801 O.co2     1 GTP        -0.8909
      4 O3G        -1.5164    9.1657    4.7762 O.3       1 GTP        -0.7980
      5 O3B        -2.4844    7.0428    3.9448 O.3       1 GTP        -0.7612
      6 PB         -3.3605    5.7510    3.4661 P.3       1 GTP         1.5847
      7 O1B        -4.0036    5.1235    4.6827 O.co2     1 GTP        -0.8859
      8 O2B        -4.1729    6.1300    2.2479 O.co2     1 GTP        -0.8859
      9 O3A        -2.1486    4.7947    2.9355 O.3       1 GTP        -0.7486
     10 PA         -1.0483    5.0551    1.7560 P.3       1 GTP         1.5001
     11 O1A        -1.7704    5.1510    0.4295 O.co2     1 GTP        -0.8487
     12 O2A        -0.0993    6.1426    2.2105 O.co2     1 GTP        -0.8487
     13 O5'        -0.2062    3.6557    1.8417 O.3       1 GTP        -0.5474
     14 C5'        -0.8811    2.4285    1.6206 C.3       1 GTP         0.2547
     15 C4'        -0.1994    1.3333    2.4288 C.3       1 GTP         0.0926
     16 O4'        -1.1285    0.2356    2.5840 O.3       1 GTP        -0.3593
     17 C3'         1.0324    0.7610    1.7344 C.3       1 GTP         0.0907
     18 O3'         1.9175    0.2377    2.7247 O.3       1 GTP        -0.5209
     19 C2'         0.4468   -0.3802    0.9263 C.3       1 GTP         0.0305
     20 O2'         1.3993   -1.3703    0.5961 O.3       1 GTP        -0.5978
     21 C1'        -0.6159   -0.9100    1.8769 C.3       1 GTP         0.2339
     22 N9         -1.7127   -1.6108    1.2130 N.pl3     1 GTP        -0.1765
     23 C8         -2.5534   -1.0907    0.2607 C.ar      1 GTP         0.4947
     24 N7         -3.4469   -1.9695   -0.1508 N.2       1 GTP        -0.5802
     25 C5         -3.1705   -3.1041    0.5657 C.ar      1 GTP         0.2279
     26 C6         -3.8738   -4.3568    0.4777 C.ar      1 GTP         0.6513
     27 O6         -4.8240   -4.5720   -0.2607 O.2       1 GTP        -0.5111
     28 N1         -3.3198   -5.3462    1.3780 N.pl3     1 GTP        -0.4713
     29 C2         -2.2226   -5.1203    2.2413 C.ar      1 GTP         0.5256
     30 N2         -1.7649   -6.1367    3.0659 N.pl3     1 GTP        -0.8665
     31 N3         -1.5969   -3.8585    2.2574 N.pl3     1 GTP        -0.5398
     32 C4         -2.1068   -2.8965    1.4082 C.ar      1 GTP        -0.0275
     33 HOG3       -0.8793    8.7778    5.4133 H         1 GTP         0.4161
     34 H5'        -1.9256    2.5380    1.9293 H         1 GTP         0.0348
     35 H5''       -0.8474    2.1930    0.5521 H         1 GTP         0.0348
     36 H4'         0.0403    1.7078    3.4343 H         1 GTP         0.1215
     37 H3'         1.5907    1.4859    1.1353 H         1 GTP         0.0576
     38 HO3'        2.6839   -0.1150    2.2479 H         1 GTP         0.3842
     39 H2'        -0.0017    0.0018    0.0005 H         1 GTP         0.0252
     40 HO2'        0.9369   -2.0558    0.0825 H         1 GTP         0.4224
     41 H1'        -0.1998   -1.6319    2.6178 H         1 GTP         0.0745
     42 H8         -2.4657   -0.0713   -0.0897 H         1 GTP         0.1522
     43 HN1        -3.7505   -6.2699    1.3904 H         1 GTP         0.3518
     44 HN21       -1.0023   -5.9289    3.6451 H         1 GTP         0.4761
     45 HN22       -2.2347   -6.9951    3.0150 H         1 GTP         0.4761
     46 H46        -0.8062   -3.6900    2.8760 H         1 GTP         0.5030
@<TRIPOS>BOND
     1    1    2 2
     2    1    3 1
     3    1    4 1
     4    1    5 1
     5    4   33 1
     6    5    6 1
     7    6    7 2
     8    6    8 1
     9    6    9 1
    10    9   10 1
    11   10   11 2
    12   10   12 1
    13   10   13 1
    14   13   14 1
    15   14   15 1
    16   14   34 1
    17   14   35 1
    18   15   16 1
    19   15   17 1
    20   15   36 1
    21   16   21 1
    22   17   18 1
    23   17   19 1
    24   17   37 1
    25   18   38 1
    26   19   20 1
    27   19   21 1
    28   19   39 1
    29   20   40 1
    30   21   22 1
    31   21   41 1
    32   22   23 ar
    33   22   32 ar
    34   23   24 ar
    35   23   42 1
    36   24   25 ar
    37   25   26 ar
    38   25   32 ar
    39   26   27 2
    40   26   28 ar
    41   28   29 ar
    42   28   43 1
    43   29   30 1
    44   29   31 ar
    45   30   44 1
    46   30   45 1
    47   31   32 ar
    48   31   46 1
@<TRIPOS>SUBSTRUCTURE
     1 GTP         1 GROUP 0 A     ****
@<TRIPOS>MOLECULE
[[[5-(2-amino-6-oxo-1,3-dihydropurin-2-ylium-9-yl)-3,4-dihydroxy-tetrahydrofuran-2-yl]methoxy-oxido-phosphoryl]oxy-oxido-phosphoryl] hydrogen phosphate
   46    48     1     0     0
SMALL
USER_CHARGES

@<TRIPOS>ATOM
      1 PG          9.4186    5.3814   -2.8822 P.3       1 GTP         1.5400
      2 O1G        10.7079    4.8762   -2.2739 O.co2     1 GTP        -0.8909
      3 O2G         9.2198    5.3957   -4.3815 O.co2     1 GTP        -0.8909
      4 O3G         9.1260    6.8809   -2.3062 O.3       1 GTP        -0.7980
      5 O3B         8.1632    4.6018   -2.1895 O.3       1 GTP        -0.7612
      6 PB          7.7333    3.0291   -2.2744 P.3       1 GTP         1.5847
      7 O1B         7.3304    2.7126   -3.6974 O.co2     1 GTP        -0.8859
      8 O2B         8.7595    2.1968   -1.5383 O.co2     1 GTP        -0.8859
      9 O3A         6.4041    3.0694   -1.3275 O.3       1 GTP        -0.7486
     10 PA          6.2486    3.4952    0.2423 P.3       1 GTP         1.5001
     11 O1A         7.0221    2.5106    1.0923 O.co2     1 GTP        -0.8487
     12 O2A         6.4800    4.9855    0.3652 O.co2     1 GTP        -0.8487
     13 O5'         4.6405    3.2699    0.4378 O.3       1 GTP        -0.5474
     14 C5'         4.0922    1.9801    0.2227 C.3       1 GTP         0.2547
     15 C4'         2.5944    2.0310    0.4653 C.3       1 GTP         0.0926
     16 O4'         1.9327    2.5740   -0.6889 O.3       1 GTP        -0.3593
     17 C3'         1.9685    0.6634    0.6767 C.3       1 GTP         0.0907
     18 O3'         2.1425    0.1975    1.9977 O.3       1 GTP        -0.5209
     19 C2'         0.5176    0.9128    0.3099 C.3       1 GTP         0.0305
     20 O2'        -0.2103    1.4454    1.4152 O.3       1 GTP        -0.5978
     21 C1'         0.6219    1.9765   -0.7844 C.3       1 GTP         0.2339
     22 N9          0.4237    1.4496   -2.1357 N.pl3     1 GTP        -0.1765
     23 C8          1.3988    0.9691   -2.9736 C.ar      1 GTP         0.4947
     24 N7          0.9092    0.5634   -4.1293 N.2       1 GTP        -0.5802
     25 C5         -0.4383    0.7914   -4.0325 C.ar      1 GTP         0.2279
     26 C6         -1.4217    0.5138   -5.0461 C.ar      1 GTP         0.6513
     27 O6         -1.1759    0.0306   -6.1417 O.2       1 GTP        -0.5111
     28 N1         -2.7543    0.8794   -4.6134 N.pl3     1 GTP        -0.4713
     29 C2         -3.0626    1.4402   -3.3523 C.ar      1 GTP         0.5256
     30 N2         -4.3747    1.7544   -3.0321 N.pl3     1 GTP        -0.8665
     31 N3         -2.0304    1.6759   -2.4233 N.pl3     1 GTP        -0.5398
     32 C4         -0.7497    1.3366   -2.8118 C.ar      1 GTP        -0.0275
     33 HOG3        8.3186    7.3482   -2.6093 H         1 GTP         0.4161
     34 H5'         4.3028    1.6728   -0.8066 H         1 GTP         0.0348
     35 H5''        4.5677    1.2738    0.9106 H         1 GTP         0.0348
     36 H4'         2.3752    2.7029    1.3156 H         1 GTP         0.1215
     37 H3'         2.4336   -0.1217   -0.0015 H         1 GTP         0.0576
     38 HO3'        3.0987    0.1465    2.1461 H         1 GTP         0.3842
     39 H2'         0.0316    0.0155   -0.0339 H         1 GTP         0.0252
     40 HO2'       -0.1608    0.7921    2.1351 H         1 GTP         0.4224
     41 H1'        -0.1474    2.7798   -0.6651 H         1 GTP         0.0745
     42 H8          2.4413    0.9409   -2.6872 H         1 GTP         0.1522
     43 HN1        -3.5236    0.7214   -5.2629 H         1 GTP         0.3518
     44 HN21       -4.5350    2.1409   -2.1461 H         1 GTP         0.4761
     45 HN22       -5.0542    1.5695   -3.7134 H         1 GTP         0.4761
     46 H46        -2.2462    2.0786   -1.5136 H         1 GTP         0.5030
@<TRIPOS>BOND
     1    1    2 2
     2    1    3 1
     3    1    4 1
     4    1    5 1
     5    4   33 1
     6    5    6 1
     7    6    7 2
     8    6    8 1
     9    6    9 1
    10    9   10 1
    11   10   11 2
    12   10   12 1
    13   10   13 1
    14   13   14 1
    15   14   15 1
    16   14   34 1
    17   14   35 1
    18   15   16 1
    19   15   17 1
    20   15   36 1
    21   16   21 1
    22   17   18 1
    23   17   19 1
    24   17   37 1
    25   18   38 1
    26   19   20 1
    27   19   21 1
    28   19   39 1
    29   20   40 1
    30   21   22 1
    31   21   41 1
    32   22   23 ar
    33   22   32 ar
    34   23   24 ar
    35   23   42 1
    36   24   25 ar
    37   25   26 ar
    38   25   32 ar
    39   26   27 2
    40   26   28 ar
    41   28   29 ar
    42   28   43 1
    43   29   30 1
    44   29   31 ar
    45   30   44 1
    46   30   45 1
    47   31   32 ar
    48   31   46 1
@<TRIPOS>SUBSTRUCTURE
     1 GTP         1 GROUP 0 A     ****
@<TRIPOS>MOLECULE
[[[5-(2-amino-6-oxo-1,3-dihydropurin-2-ylium-9-yl)-3,4-dihydroxy-tetrahydrofuran-2-yl]methoxy-oxido-phosphoryl]oxy-oxido-phosphoryl] hydrogen phosphate
   46    48     1     0     0
SMALL
USER_CHARGES

@<TRIPOS>ATOM
      1 PG         -4.1205    3.8783   -1.6126 P.3       1 GTP         1.5400
      2 O1G        -3.1919    2.8278   -2.1796 O.co2     1 GTP        -0.8909
      3 O2G        -5.0198    3.5678   -0.4368 O.co2     1 GTP        -0.8909
      4 O3G        -5.0395    4.4678   -2.8266 O.3       1 GTP        -0.7980
      5 O3B        -3.2596    5.2242   -1.2792 O.3       1 GTP        -0.7612
      6 PB         -2.0951    5.4707   -0.1616 P.3       1 GTP         1.5847
      7 O1B        -1.5202    6.8558   -0.3580 O.co2     1 GTP        -0.8859
      8 O2B        -2.5991    5.0065    1.1867 O.co2     1 GTP        -0.8859
      9 O3A        -1.0127    4.3553   -0.6607 O.3       1 GTP        -0.7486
     10 PA          0.4528    3.9705   -0.0493 P.3       1 GTP         1.5001
     11 O1A         1.0046    2.7881   -0.8159 O.co2     1 GTP        -0.8487
     12 O2A         1.2580    5.2411    0.1148 O.co2     1 GTP        -0.8487
     13 O5'         0.0178    3.5131    1.4595 O.3       1 GTP        -0.5474
     14 C5'        -0.8811    2.4285    1.6206 C.3       1 GTP         0.2547
     15 C4'        -0.1994    1.3333    2.4288 C.3       1 GTP         0.0926
     16 O4'        -1.1285    0.2356    2.5840 O.3       1 GTP        -0.3593
     17 C3'         1.0324    0.7610    1.7344 C.3       1 GTP         0.0907
     18 O3'         1.9175    0.2377    2.7247 O.3       1 GTP        -0.5209
     19 C2'         0.4468   -0.3802    0.9263 C.3       1 GTP         0.0305
     20 O2'         1.3993   -1.3703    0.5961 O.3       1 GTP        -0.5978
     21 C1'        -0.6159   -0.9100    1.8769 C.3       1 GTP         0.2339
     22 N9         -1.7127   -1.6108    1.2130 N.pl3     1 GTP        -0.1765
     23 C8         -2.8692   -1.0463    0.7355 C.ar      1 GTP         0.4947
     24 N7         -3.6707   -1.9381    0.1856 N.2       1 GTP        -0.5802
     25 C5         -3.0027   -3.1275    0.3134 C.ar      1 GTP         0.2279
     26 C6         -3.4659   -4.4142   -0.1355 C.ar      1 GTP         0.6513
     27 O6         -4.5328   -4.6133   -0.6980 O.2       1 GTP        -0.5111
     28 N1         -2.5102   -5.4606    0.1612 N.pl3     1 GTP        -0.4713
     29 C2         -1.2711   -5.2547    0.8113 C.ar      1 GTP         0.5256
     30 N2         -0.4228   -6.3256    1.0482 N.pl3     1 GTP        -0.8665
     31 N3         -0.9033   -3.9563    1.2146 N.pl3     1 GTP        -0.5398
     32 C4         -1.7979   -2.9400    0.9438 C.ar      1 GTP        -0.0275
     33 HOG3       -5.6983    5.1640   -2.6178 H         1 GTP         0.4161
     34 H5'        -1.7771    2.7849    2.1387 H         1 GTP         0.0348
     35 H5''       -1.1654    2.0541    0.6320 H         1 GTP         0.0348
     36 H4'         0.0403    1.7078    3.4343 H         1 GTP         0.1215
     37 H3'         1.5907    1.4859    1.1353 H         1 GTP         0.0576
     38 HO3'        2.1521    0.9800    3.3017 H         1 GTP         0.3842
     39 H2'        -0.0017    0.0018    0.0005 H         1 GTP         0.0252
     40 HO2'        0.9369   -2.0558    0.0825 H         1 GTP         0.4224
     41 H1'        -0.1998   -1.6319    2.6178 H         1 GTP         0.0745
     42 H8         -3.0691    0.0134    0.8177 H         1 GTP         0.1522
     43 HN1        -2.7468   -6.4119   -0.1177 H         1 GTP         0.3518
     44 HN21        0.4233   -6.1297    1.5018 H         1 GTP         0.4761
     45 HN22       -0.7261   -7.2071    0.7466 H         1 GTP         0.4761
     46 H46        -0.0124   -3.8015    1.6821 H         1 GTP         0.5030
@<TRIPOS>BOND
     1    1    2 2
     2    1    3 1
     3    1    4 1
     4    1    5 1
     5    4   33 1
     6    5    6 1
     7    6    7 2
     8    6    8 1
     9    6    9 1
    10    9   10 1
    11   10   11 2
    12   10   12 1
    13   10   13 1
    14   13   14 1
    15   14   15 1
    16   14   34 1
    17   14   35 1
    18   15   16 1
    19   15   17 1
    20   15   36 1
    21   16   21 1
    22   17   18 1
    23   17   19 1
    24   17   37 1
    25   18   38 1
    26   19   20 1
    27   19   21 1
    28   19   39 1
    29   20   40 1
    30   21   22 1
    31   21   41 1
    32   22   23 ar
    33   22   32 ar
    34   23   24 ar
    35   23   42 1
    36   24   25 ar
    37   25   26 ar
    38   25   32 ar
    39   26   27 2
    40   26   28 ar
    41   28   29 ar
    42   28   43 1
    43   29   30 1
    44   29   31 ar
    45   30   44 1
    46   30   45 1
    47   31   32 ar
    48   31   46 1
@<TRIPOS>SUBSTRUCTURE
     1 GTP         1 GROUP 0 A     ****
@<TRIPOS>MOLECULE
[[[5-(2-amino-6-oxo-1,3-dihydropurin-2-ylium-9-yl)-3,4-dihydroxy-tetrahydrofuran-2-yl]methoxy-oxido-phosphoryl]oxy-oxido-phosphoryl] hydrogen phosphate
   46    48     1     0     0
SMALL
USER_CHARGES

@<TRIPOS>ATOM
      1 PG         10.1753    5.1361    1.8399 P.3       1 GTP         1.5400
      2 O1G        10.4562    4.9959    3.3194 O.co2     1 GTP        -0.8909
      3 O2G        11.2008    4.7153    0.8108 O.co2     1 GTP        -0.8909
      4 O3G         9.7421    6.6812    1.5383 O.3       1 GTP        -0.7980
      5 O3B         8.7541    4.4103    1.4980 O.3       1 GTP        -0.7612
      6 PB          8.3466    2.8302    1.5532 P.3       1 GTP         1.5847
      7 O1B         9.1427    2.0872    0.5036 O.co2     1 GTP        -0.8859
      8 O2B         8.3220    2.3773    2.9961 O.co2     1 GTP        -0.8859
      9 O3A         6.7894    2.9445    1.0769 O.3       1 GTP        -0.7486
     10 PA          6.1593    3.5241   -0.3148 P.3       1 GTP         1.5001
     11 O1A         6.4655    5.0032   -0.4087 O.co2     1 GTP        -0.8487
     12 O2A         6.5181    2.5780   -1.4399 O.co2     1 GTP        -0.8487
     13 O5'         4.5670    3.2937   -0.0211 O.3       1 GTP        -0.5474
     14 C5'         4.0922    1.9801    0.2227 C.3       1 GTP         0.2547
     15 C4'         2.5944    2.0310    0.4653 C.3       1 GTP         0.0926
     16 O4'         1.9327    2.5740   -0.6889 O.3       1 GTP        -0.3593
     17 C3'         1.9685    0.6634    0.6767 C.3       1 GTP         0.0907
     18 O3'         2.1425    0.1975    1.9977 O.3       1 GTP        -0.5209
     19 C2'         0.5176    0.9128    0.3099 C.3       1 GTP         0.0305
     20 O2'        -0.2103    1.4454    1.4152 O.3       1 GTP        -0.5978
     21 C1'         0.6219    1.9765   -0.7844 C.3       1 GTP         0.2339
     22 N9          0.4237    1.4496   -2.1357 N.pl3     1 GTP        -0.1765
     23 C8          1.3988    0.9691   -2.9736 C.ar      1 GTP         0.4947
     24 N7          0.9092    0.5634   -4.1293 N.2       1 GTP        -0.5802
     25 C5         -0.4383    0.7914   -4.0325 C.ar      1 GTP         0.2279
     26 C6         -1.4217    0.5138   -5.0461 C.ar      1 GTP         0.6513
     27 O6         -1.1759    0.0306   -6.1417 O.2       1 GTP        -0.5111
     28 N1         -2.7543    0.8794   -4.6134 N.pl3     1 GTP        -0.4713
     29 C2         -3.0626    1.4402   -3.3523 C.ar      1 GTP         0.5256
     30 N2         -4.3747    1.7544   -3.0321 N.pl3     1 GTP        -0.8665
     31 N3         -2.0304    1.6759   -2.4233 N.pl3     1 GTP        -0.5398
     32 C4         -0.7497    1.3366   -2.8118 C.ar      1 GTP        -0.0275
     33 HOG3        9.5259    6.9338    0.6154 H         1 GTP         0.4161
     34 H5'         4.3179    1.3548   -0.6470 H         1 GTP         0.0348
     35 H5''        4.6083    1.5737    1.0983 H         1 GTP         0.0348
     36 H4'         2.3752    2.7029    1.3156 H         1 GTP         0.1215
     37 H3'         2.4336   -0.1217   -0.0015 H         1 GTP         0.0576
     38 HO3'        1.7160   -0.6716    2.0397 H         1 GTP         0.3842
     39 H2'         0.0316    0.0155   -0.0339 H         1 GTP         0.0252
     40 HO2'       -0.1608    0.7921    2.1351 H         1 GTP         0.4224
     41 H1'        -0.1474    2.7798   -0.6651 H         1 GTP         0.0745
     42 H8          2.4413    0.9409   -2.6872 H         1 GTP         0.1522
     43 HN1        -3.5236    0.7214   -5.2629 H         1 GTP         0.3518
     44 HN21       -4.5350    2.1409   -2.1461 H         1 GTP         0.4761
     45 HN22       -5.0542    1.5695   -3.7134 H         1 GTP         0.4761
     46 H46        -2.2462    2.0786   -1.5136 H         1 GTP         0.5030
@<TRIPOS>BOND
     1    1    2 2
     2    1    3 1
     3    1    4 1
     4    1    5 1
     5    4   33 1
     6    5    6 1
     7    6    7 2
     8    6    8 1
     9    6    9 1
    10    9   10 1
    11   10   11 2
    12   10   12 1
    13   10   13 1
    14   13   14 1
    15   14   15 1
    16   14   34 1
    17   14   35 1
    18   15   16 1
    19   15   17 1
    20   15   36 1
    21   16   21 1
    22   17   18 1
    23   17   19 1
    24   17   37 1
    25   18   38 1
    26   19   20 1
    27   19   21 1
    28   19   39 1
    29   20   40 1
    30   21   22 1
    31   21   41 1
    32   22   23 ar
    33   22   32 ar
    34   23   24 ar
    35   23   42 1
    36   24   25 ar
    37   25   26 ar
    38   25   32 ar
    39   26   27 2
    40   26   28 ar
    41   28   29 ar
    42   28   43 1
    43   29   30 1
    44   29   31 ar
    45   30   44 1
    46   30   45 1
    47   31   32 ar
    48   31   46 1
@<TRIPOS>SUBSTRUCTURE
     1 GTP         1 GROUP 0 A     ****
@<TRIPOS>MOLECULE
[[[5-(2-amino-6-oxo-1,3-dihydropurin-2-ylium-9-yl)-3,4-dihydroxy-tetrahydrofuran-2-yl]methoxy-oxido-phosphoryl]oxy-oxido-phosphoryl] hydrogen phosphate
   46    48     1     0     0
SMALL
USER_CHARGES

@<TRIPOS>ATOM
      1 PG         -0.0300    8.7735    0.7223 P.3       1 GTP         1.5400
      2 O1G         0.4210    8.6587   -0.7168 O.co2     1 GTP        -0.8909
      3 O2G        -1.0320    9.8262    1.1412 O.co2     1 GTP        -0.8909
      4 O3G         1.2921    8.9096    1.6708 O.3       1 GTP        -0.7980
      5 O3B        -0.5512    7.3139    1.2337 O.3       1 GTP        -0.7612
      6 PB         -1.0016    6.8281    2.7259 P.3       1 GTP         1.5847
      7 O1B         0.2052    6.8760    3.6363 O.co2     1 GTP        -0.8859
      8 O2B        -2.2999    7.5101    3.0957 O.co2     1 GTP        -0.8859
      9 O3A        -1.3731    5.2735    2.3942 O.3       1 GTP        -0.7486
     10 PA         -1.9156    4.0918    3.3837 P.3       1 GTP         1.5001
     11 O1A        -0.8453    3.7865    4.4092 O.co2     1 GTP        -0.8487
     12 O2A        -3.3304    4.4243    3.8049 O.co2     1 GTP        -0.8487
     13 O5'        -2.0401    2.8620    2.3128 O.3       1 GTP        -0.5474
     14 C5'        -0.8811    2.4285    1.6206 C.3       1 GTP         0.2547
     15 C4'        -0.1994    1.3333    2.4288 C.3       1 GTP         0.0926
     16 O4'        -1.1285    0.2356    2.5840 O.3       1 GTP        -0.3593
     17 C3'         1.0324    0.7610    1.7344 C.3       1 GTP         0.0907
     18 O3'         1.9175    0.2377    2.7247 O.3       1 GTP        -0.5209
     19 C2'         0.4468   -0.3802    0.9263 C.3       1 GTP         0.0305
     20 O2'         1.3993   -1.3703    0.5961 O.3       1 GTP        -0.5978
     21 C1'        -0.6159   -0.9100    1.8769 C.3       1 GTP         0.2339
     22 N9         -1.7127   -1.6108    1.2130 N.pl3     1 GTP        -0.1765
     23 C8         -2.5534   -1.0907    0.2607 C.ar      1 GTP         0.4947
     24 N7         -3.4469   -1.9695   -0.1508 N.2       1 GTP        -0.5802
     25 C5         -3.1705   -3.1041    0.5657 C.ar      1 GTP         0.2279
     26 C6         -3.8738   -4.3568    0.4777 C.ar      1 GTP         0.6513
     27 O6         -4.8240   -4.5720   -0.2607 O.2       1 GTP        -0.5111
     28 N1         -3.3198   -5.3462    1.3780 N.pl3     1 GTP        -0.4713
     29 C2         -2.2226   -5.1203    2.2413 C.ar      1 GTP         0.5256
     30 N2         -1.7649   -6.1367    3.0659 N.pl3     1 GTP        -0.8665
     31 N3         -1.5969   -3.8585    2.2574 N.pl3     1 GTP        -0.5398
     32 C4         -2.1068   -2.8965    1.4082 C.ar      1 GTP        -0.0275
     33 HOG3        1.1648    8.9936    2.6398 H         1 GTP         0.4161
     34 H5'        -1.1767    2.0502    0.6368 H         1 GTP         0.0348
     35 H5''       -0.2080    3.2814    1.4876 H         1 GTP         0.0348
     36 H4'         0.0403    1.7078    3.4343 H         1 GTP         0.1215
     37 H3'         1.5907    1.4859    1.1353 H         1 GTP         0.0576
     38 HO3'        2.6839   -0.1150    2.2479 H         1 GTP         0.3842
     39 H2'        -0.0017    0.0018    0.0005 H         1 GTP         0.0252
     40 HO2'        2.0953   -0.9375    0.0709 H         1 GTP         0.4224
     41 H1'        -0.1998   -1.6319    2.6178 H         1 GTP         0.0745
     42 H8         -2.4657   -0.0713   -0.0897 H         1 GTP         0.1522
     43 HN1        -3.7505   -6.2699    1.3904 H         1 GTP         0.3518
     44 HN21       -1.0023   -5.9289    3.6451 H         1 GTP         0.4761
     45 HN22       -2.2347   -6.9951    3.0150 H         1 GTP         0.4761
     46 H46        -0.8062   -3.6900    2.8760 H         1 GTP         0.5030
@<TRIPOS>BOND
     1    1    2 2
     2    1    3 1
     3    1    4 1
     4    1    5 1
     5    4   33 1
     6    5    6 1
     7    6    7 2
     8    6    8 1
     9    6    9 1
    10    9   10 1
    11   10   11 2
    12   10   12 1
    13   10   13 1
    14   13   14 1
    15   14   15 1
    16   14   34 1
    17   14   35 1
    18   15   16 1
    19   15   17 1
    20   15   36 1
    21   16   21 1
    22   17   18 1
    23   17   19 1
    24   17   37 1
    25   18   38 1
    26   19   20 1
    27   19   21 1
    28   19   39 1
    29   20   40 1
    30   21   22 1
    31   21   41 1
    32   22   23 ar
    33   22   32 ar
    34   23   24 ar
    35   23   42 1
    36   24   25 ar
    37   25   26 ar
    38   25   32 ar
    39   26   27 2
    40   26   28 ar
    41   28   29 ar
    42   28   43 1
    43   29   30 1
    44   29   31 ar
    45   30   44 1
    46   30   45 1
    47   31   32 ar
    48   31   46 1
@<TRIPOS>SUBSTRUCTURE
     1 GTP         1 GROUP 0 A     ****
@<TRIPOS>MOLECULE
[[[5-(2-amino-6-oxo-1,3-dihydropurin-2-ylium-9-yl)-3,4-dihydroxy-tetrahydrofuran-2-yl]methoxy-oxido-phosphoryl]oxy-oxido-phosphoryl] hydrogen phosphate
   46    48     1     0     0
SMALL
USER_CHARGES

@<TRIPOS>ATOM
      1 PG         -0.4634    5.4024    7.3340 P.3       1 GTP         1.5400
      2 O1G        -0.0388    4.4001    8.3840 O.co2     1 GTP        -0.8909
      3 O2G        -0.0364    6.8506    7.4242 O.co2     1 GTP        -0.8909
      4 O3G        -2.0892    5.3491    7.1934 O.3       1 GTP        -0.7980
      5 O3B        -0.0693    4.8256    5.8590 O.3       1 GTP        -0.7612
      6 PB          1.3998    4.5651    5.1961 P.3       1 GTP         1.5847
      7 O1B         2.0950    5.8967    5.0193 O.co2     1 GTP        -0.8859
      8 O2B         2.0671    3.4126    5.9130 O.co2     1 GTP        -0.8859
      9 O3A         0.9326    3.9962    3.7391 O.3       1 GTP        -0.7486
     10 PA          0.0330    4.7083    2.5757 P.3       1 GTP         1.5001
     11 O1A        -1.3626    4.9400    3.1133 O.co2     1 GTP        -0.8487
     12 O2A         0.8346    5.8384    1.9673 O.co2     1 GTP        -0.8487
     13 O5'         0.0178    3.5131    1.4595 O.3       1 GTP        -0.5474
     14 C5'        -0.8811    2.4285    1.6206 C.3       1 GTP         0.2547
     15 C4'        -0.1994    1.3333    2.4288 C.3       1 GTP         0.0926
     16 O4'        -1.1285    0.2356    2.5840 O.3       1 GTP        -0.3593
     17 C3'         1.0324    0.7610    1.7344 C.3       1 GTP         0.0907
     18 O3'         1.9175    0.2377    2.7247 O.3       1 GTP        -0.5209
     19 C2'         0.4468   -0.3802    0.9263 C.3       1 GTP         0.0305
     20 O2'         1.3993   -1.3703    0.5961 O.3       1 GTP        -0.5978
     21 C1'        -0.6159   -0.9100    1.8769 C.3       1 GTP         0.2339
     22 N9         -1.7127   -1.6108    1.2130 N.pl3     1 GTP        -0.1765
     23 C8         -2.8692   -1.0463    0.7355 C.ar      1 GTP         0.4947
     24 N7         -3.6707   -1.9381    0.1856 N.2       1 GTP        -0.5802
     25 C5         -3.0027   -3.1275    0.3134 C.ar      1 GTP         0.2279
     26 C6         -3.4659   -4.4142   -0.1355 C.ar      1 GTP         0.6513
     27 O6         -4.5328   -4.6133   -0.6980 O.2       1 GTP        -0.5111
     28 N1         -2.5102   -5.4606    0.1612 N.pl3     1 GTP        -0.4713
     29 C2         -1.2711   -5.2547    0.8113 C.ar      1 GTP         0.5256
     30 N2         -0.4228   -6.3256    1.0482 N.pl3     1 GTP        -0.8665
     31 N3         -0.9033   -3.9563    1.2146 N.pl3     1 GTP        -0.5398
     32 C4         -1.7979   -2.9400    0.9438 C.ar      1 GTP        -0.0275
     33 HOG3       -2.5218    5.9463    6.5464 H         1 GTP         0.4161
     34 H5'        -1.7771    2.7849    2.1387 H         1 GTP         0.0348
     35 H5''       -1.1654    2.0541    0.6320 H         1 GTP         0.0348
     36 H4'         0.0403    1.7078    3.4343 H         1 GTP         0.1215
     37 H3'         1.5907    1.4859    1.1353 H         1 GTP         0.0576
     38 HO3'        2.1521    0.9800    3.3017 H         1 GTP         0.3842
     39 H2'        -0.0017    0.0018    0.0005 H         1 GTP         0.0252
     40 HO2'        1.7495   -1.7243    1.4324 H         1 GTP         0.4224
     41 H1'        -0.1998   -1.6319    2.6178 H         1 GTP         0.0745
     42 H8         -3.0691    0.0134    0.8177 H         1 GTP         0.1522
     43 HN1        -2.7468   -6.4119   -0.1177 H         1 GTP         0.3518
     44 HN21       -0.7258   -7.2071    0.7462 H         1 GTP         0.4761
     45 HN22        0.4235   -6.1295    1.5014 H         1 GTP         0.4761
     46 H46        -0.0124   -3.8015    1.6821 H         1 GTP         0.5030
@<TRIPOS>BOND
     1    1    2 2
     2    1    3 1
     3    1    4 1
     4    1    5 1
     5    4   33 1
     6    5    6 1
     7    6    7 2
     8    6    8 1
     9    6    9 1
    10    9   10 1
    11   10   11 2
    12   10   12 1
    13   10   13 1
    14   13   14 1
    15   14   15 1
    16   14   34 1
    17   14   35 1
    18   15   16 1
    19   15   17 1
    20   15   36 1
    21   16   21 1
    22   17   18 1
    23   17   19 1
    24   17   37 1
    25   18   38 1
    26   19   20 1
    27   19   21 1
    28   19   39 1
    29   20   40 1
    30   21   22 1
    31   21   41 1
    32   22   23 ar
    33   22   32 ar
    34   23   24 ar
    35   23   42 1
    36   24   25 ar
    37   25   26 ar
    38   25   32 ar
    39   26   27 2
    40   26   28 ar
    41   28   29 ar
    42   28   43 1
    43   29   30 1
    44   29   31 ar
    45   30   44 1
    46   30   45 1
    47   31   32 ar
    48   31   46 1
@<TRIPOS>SUBSTRUCTURE
     1 GTP         1 GROUP 0 A     ****
@<TRIPOS>MOLECULE
[[[5-(2-amino-6-oxo-1,3-dihydropurin-2-ylium-9-yl)-3,4-dihydroxy-tetrahydrofuran-2-yl]methoxy-oxido-phosphoryl]oxy-oxido-phosphoryl] hydrogen phosphate
   46    48     1     0     0
SMALL
USER_CHARGES

@<TRIPOS>ATOM
      1 PG         10.3980    1.0754    1.3226 P.3       1 GTP         1.5400
      2 O1G        11.1659   -0.0850    0.7299 O.co2     1 GTP        -0.8909
      3 O2G        10.9793    2.4717    1.3254 O.co2     1 GTP        -0.8909
      4 O3G         9.9710    0.6885    2.8504 O.3       1 GTP        -0.7980
      5 O3B         8.9094    1.1234    0.6552 O.3       1 GTP        -0.7612
      6 PB          8.4618    1.4491   -0.8808 P.3       1 GTP         1.5847
      7 O1B         8.8039    2.8894   -1.1904 O.co2     1 GTP        -0.8859
      8 O2B         8.9141    0.3176   -1.7768 O.co2     1 GTP        -0.8859
      9 O3A         6.8446    1.2950   -0.7206 O.3       1 GTP        -0.7486
     10 PA          5.6603    1.4687   -1.8328 P.3       1 GTP         1.5001
     11 O1A         5.6395    2.9078   -2.3006 O.co2     1 GTP        -0.8487
     12 O2A         5.7523    0.3263   -2.8207 O.co2     1 GTP        -0.8487
     13 O5'         4.3516    1.1575   -0.9026 O.3       1 GTP        -0.5474
     14 C5'         4.0922    1.9801    0.2227 C.3       1 GTP         0.2547
     15 C4'         2.5944    2.0310    0.4653 C.3       1 GTP         0.0926
     16 O4'         1.9327    2.5740   -0.6889 O.3       1 GTP        -0.3593
     17 C3'         1.9685    0.6634    0.6767 C.3       1 GTP         0.0907
     18 O3'         2.1425    0.1975    1.9977 O.3       1 GTP        -0.5209
     19 C2'         0.5176    0.9128    0.3099 C.3       1 GTP         0.0305
     20 O2'        -0.2103    1.4454    1.4152 O.3       1 GTP        -0.5978
     21 C1'         0.6219    1.9765   -0.7844 C.3       1 GTP         0.2339
     22 N9          0.4237    1.4496   -2.1357 N.pl3     1 GTP        -0.1765
     23 C8          1.3988    0.9691   -2.9736 C.ar      1 GTP         0.4947
     24 N7          0.9092    0.5634   -4.1293 N.2       1 GTP        -0.5802
     25 C5         -0.4383    0.7914   -4.0325 C.ar      1 GTP         0.2279
     26 C6         -1.4217    0.5138   -5.0461 C.ar      1 GTP         0.6513
     27 O6         -1.1759    0.0306   -6.1417 O.2       1 GTP        -0.5111
     28 N1         -2.7543    0.8794   -4.6134 N.pl3     1 GTP        -0.4713
     29 C2         -3.0626    1.4402   -3.3523 C.ar      1 GTP         0.5256
     30 N2         -4.3747    1.7544   -3.0321 N.pl3     1 GTP        -0.8665
     31 N3         -2.0304    1.6759   -2.4233 N.pl3     1 GTP        -0.5398
     32 C4         -0.7497    1.3366   -2.8118 C.ar      1 GTP        -0.0275
     33 HOG3        9.4625    1.3444    3.3733 H         1 GTP         0.4161
     34 H5'         4.6069    1.5618    1.0936 H         1 GTP         0.0348
     35 H5''        4.4824    2.9837    0.0254 H         1 GTP         0.0348
     36 H4'         2.3752    2.7029    1.3156 H         1 GTP         0.1215
     37 H3'         2.4336   -0.1217   -0.0015 H         1 GTP         0.0576
     38 HO3'        1.7160   -0.6716    2.0397 H         1 GTP         0.3842
     39 H2'         0.0316    0.0155   -0.0339 H         1 GTP         0.0252
     40 HO2'       -0.1608    0.7921    2.1351 H         1 GTP         0.4224
     41 H1'        -0.1474    2.7798   -0.6651 H         1 GTP         0.0745
     42 H8          2.4413    0.9409   -2.6872 H         1 GTP         0.1522
     43 HN1        -3.5236    0.7214   -5.2629 H         1 GTP         0.3518
     44 HN21       -4.5350    2.1409   -2.1461 H         1 GTP         0.4761
     45 HN22       -5.0542    1.5695   -3.7134 H         1 GTP         0.4761
     46 H46        -2.2462    2.0786   -1.5136 H         1 GTP         0.5030
@<TRIPOS>BOND
     1    1    2 2
     2    1    3 1
     3    1    4 1
     4    1    5 1
     5    4   33 1
     6    5    6 1
     7    6    7 2
     8    6    8 1
     9    6    9 1
    10    9   10 1
    11   10   11 2
    12   10   12 1
    13   10   13 1
    14   13   14 1
    15   14   15 1
    16   14   34 1
    17   14   35 1
    18   15   16 1
    19   15   17 1
    20   15   36 1
    21   16   21 1
    22   17   18 1
    23   17   19 1
    24   17   37 1
    25   18   38 1
    26   19   20 1
    27   19   21 1
    28   19   39 1
    29   20   40 1
    30   21   22 1
    31   21   41 1
    32   22   23 ar
    33   22   32 ar
    34   23   24 ar
    35   23   42 1
    36   24   25 ar
    37   25   26 ar
    38   25   32 ar
    39   26   27 2
    40   26   28 ar
    41   28   29 ar
    42   28   43 1
    43   29   30 1
    44   29   31 ar
    45   30   44 1
    46   30   45 1
    47   31   32 ar
    48   31   46 1
@<TRIPOS>SUBSTRUCTURE
     1 GTP         1 GROUP 0 A     ****
@<TRIPOS>MOLECULE
[[[5-(2-amino-6-oxo-1,3-dihydropurin-2-ylium-9-yl)-3,4-dihydroxy-tetrahydrofuran-2-yl]methoxy-oxido-phosphoryl]oxy-oxido-phosphoryl] hydrogen phosphate
   46    48     1     0     0
SMALL
USER_CHARGES

@<TRIPOS>ATOM
      1 PG          4.7959    6.4195    2.7124 P.3       1 GTP         1.5400
      2 O1G         5.5350    7.3699    1.7970 O.co2     1 GTP        -0.8909
      3 O2G         3.7488    5.4731    2.1686 O.co2     1 GTP        -0.8909
      4 O3G         4.1329    7.2822    3.9297 O.3       1 GTP        -0.7980
      5 O3B         5.8825    5.5643    3.5794 O.3       1 GTP        -0.7612
      6 PB          6.9663    4.4466    3.0877 P.3       1 GTP         1.5847
      7 O1B         7.8172    5.0461    1.9905 O.co2     1 GTP        -0.8859
      8 O2B         7.5862    3.7927    4.3025 O.co2     1 GTP        -0.8859
      9 O3A         5.9401    3.3516    2.4452 O.3       1 GTP        -0.7486
     10 PA          6.2528    1.9160    1.7305 P.3       1 GTP         1.5001
     11 O1A         7.0379    2.1653    0.4610 O.co2     1 GTP        -0.8487
     12 O2A         6.7526    0.9499    2.7824 O.co2     1 GTP        -0.8487
     13 O5'         4.7294    1.4427    1.3696 O.3       1 GTP        -0.5474
     14 C5'         4.0922    1.9801    0.2227 C.3       1 GTP         0.2547
     15 C4'         2.5944    2.0310    0.4653 C.3       1 GTP         0.0926
     16 O4'         1.9327    2.5740   -0.6889 O.3       1 GTP        -0.3593
     17 C3'         1.9685    0.6634    0.6767 C.3       1 GTP         0.0907
     18 O3'         2.1425    0.1975    1.9977 O.3       1 GTP        -0.5209
     19 C2'         0.5176    0.9128    0.3099 C.3       1 GTP         0.0305
     20 O2'        -0.2103    1.4454    1.4152 O.3       1 GTP        -0.5978
     21 C1'         0.6219    1.9765   -0.7844 C.3       1 GTP         0.2339
     22 N9          0.4237    1.4496   -2.1357 N.pl3     1 GTP        -0.1765
     23 C8          1.3988    0.9691   -2.9736 C.ar      1 GTP         0.4947
     24 N7          0.9092    0.5634   -4.1293 N.2       1 GTP        -0.5802
     25 C5         -0.4383    0.7914   -4.0325 C.ar      1 GTP         0.2279
     26 C6         -1.4217    0.5138   -5.0461 C.ar      1 GTP         0.6513
     27 O6         -1.1759    0.0306   -6.1417 O.2       1 GTP        -0.5111
     28 N1         -2.7543    0.8794   -4.6134 N.pl3     1 GTP        -0.4713
     29 C2         -3.0626    1.4402   -3.3523 C.ar      1 GTP         0.5256
     30 N2         -4.3747    1.7544   -3.0321 N.pl3     1 GTP        -0.8665
     31 N3         -2.0304    1.6759   -2.4233 N.pl3     1 GTP        -0.5398
     32 C4         -0.7497    1.3366   -2.8118 C.ar      1 GTP        -0.0275
     33 HOG3        3.6161    6.8044    4.6130 H         1 GTP         0.4161
     34 H5'         4.4843    2.9854    0.0380 H         1 GTP         0.0348
     35 H5''        4.3191    1.3446   -0.6392 H         1 GTP         0.0348
     36 H4'         2.3752    2.7029    1.3156 H         1 GTP         0.1215
     37 H3'         2.4336   -0.1217   -0.0015 H         1 GTP         0.0576
     38 HO3'        3.0987    0.1465    2.1461 H         1 GTP         0.3842
     39 H2'         0.0316    0.0155   -0.0339 H         1 GTP         0.0252
     40 HO2'       -0.1608    0.7921    2.1351 H         1 GTP         0.4224
     41 H1'        -0.1474    2.7798   -0.6651 H         1 GTP         0.0745
     42 H8          2.4413    0.9409   -2.6872 H         1 GTP         0.1522
     43 HN1        -3.5236    0.7214   -5.2629 H         1 GTP         0.3518
     44 HN21       -4.5350    2.1409   -2.1461 H         1 GTP         0.4761
     45 HN22       -5.0542    1.5695   -3.7134 H         1 GTP         0.4761
     46 H46        -2.2462    2.0786   -1.5136 H         1 GTP         0.5030
@<TRIPOS>BOND
     1    1    2 2
     2    1    3 1
     3    1    4 1
     4    1    5 1
     5    4   33 1
     6    5    6 1
     7    6    7 2
     8    6    8 1
     9    6    9 1
    10    9   10 1
    11   10   11 2
    12   10   12 1
    13   10   13 1
    14   13   14 1
    15   14   15 1
    16   14   34 1
    17   14   35 1
    18   15   16 1
    19   15   17 1
    20   15   36 1
    21   16   21 1
    22   17   18 1
    23   17   19 1
    24   17   37 1
    25   18   38 1
    26   19   20 1
    27   19   21 1
    28   19   39 1
    29   20   40 1
    30   21   22 1
    31   21   41 1
    32   22   23 ar
    33   22   32 ar
    34   23   24 ar
    35   23   42 1
    36   24   25 ar
    37   25   26 ar
    38   25   32 ar
    39   26   27 2
    40   26   28 ar
    41   28   29 ar
    42   28   43 1
    43   29   30 1
    44   29   31 ar
    45   30   44 1
    46   30   45 1
    47   31   32 ar
    48   31   46 1
@<TRIPOS>SUBSTRUCTURE
     1 GTP         1 GROUP 0 A     ****
@<TRIPOS>MOLECULE
[[[5-(2-amino-6-oxo-1,3-dihydropurin-2-ylium-9-yl)-3,4-dihydroxy-tetrahydrofuran-2-yl]methoxy-oxido-phosphoryl]oxy-oxido-phosphoryl] hydrogen phosphate
   46    48     1     0     0
SMALL
USER_CHARGES

@<TRIPOS>ATOM
      1 PG         -2.0597    4.2371   -2.6677 P.3       1 GTP         1.5400
      2 O1G        -1.0959    5.1351   -1.9246 O.co2     1 GTP        -0.8909
      3 O2G        -1.6673    2.8292   -3.0571 O.co2     1 GTP        -0.8909
      4 O3G        -2.5729    5.0209   -4.0049 O.3       1 GTP        -0.7980
      5 O3B        -3.4734    4.1862   -1.8538 O.3       1 GTP        -0.7612
      6 PB         -3.8148    3.5508   -0.3891 P.3       1 GTP         1.5847
      7 O1B        -5.2453    3.8908   -0.0346 O.co2     1 GTP        -0.8859
      8 O2B        -3.3028    2.1287   -0.3369 O.co2     1 GTP        -0.8859
      9 O3A        -2.7994    4.4428    0.5264 O.3       1 GTP        -0.7486
     10 PA         -2.5400    4.4095    2.1393 P.3       1 GTP         1.5001
     11 O1A        -1.4132    5.3638    2.4707 O.co2     1 GTP        -0.8487
     12 O2A        -3.8748    4.4994    2.8464 O.co2     1 GTP        -0.8487
     13 O5'        -2.0401    2.8620    2.3128 O.3       1 GTP        -0.5474
     14 C5'        -0.8811    2.4285    1.6206 C.3       1 GTP         0.2547
     15 C4'        -0.1994    1.3333    2.4288 C.3       1 GTP         0.0926
     16 O4'        -1.1285    0.2356    2.5840 O.3       1 GTP        -0.3593
     17 C3'         1.0324    0.7610    1.7344 C.3       1 GTP         0.0907
     18 O3'         1.9175    0.2377    2.7247 O.3       1 GTP        -0.5209
     19 C2'         0.4468   -0.3802    0.9263 C.3       1 GTP         0.0305
     20 O2'         1.3993   -1.3703    0.5961 O.3       1 GTP        -0.5978
     21 C1'        -0.6159   -0.9100    1.8769 C.3       1 GTP         0.2339
     22 N9         -1.7127   -1.6108    1.2130 N.pl3     1 GTP        -0.1765
     23 C8         -3.0389   -1.2578    1.2391 C.ar      1 GTP         0.4947
     24 N7         -3.7909   -2.0880    0.5425 N.2       1 GTP        -0.5802
     25 C5         -2.9127   -3.0150    0.0458 C.ar      1 GTP         0.2279
     26 C6         -3.2467   -4.1411   -0.7860 C.ar      1 GTP         0.6513
     27 O6         -4.3761   -4.4189   -1.1621 O.2       1 GTP        -0.5111
     28 N1         -2.0748   -4.9191   -1.1296 N.pl3     1 GTP        -0.4713
     29 C2         -0.7595   -4.6181   -0.7058 C.ar      1 GTP         0.5256
     30 N2          0.2985   -5.4268   -1.0920 N.pl3     1 GTP        -0.8665
     31 N3         -0.5304   -3.4919    0.1084 N.pl3     1 GTP        -0.5398
     32 C4         -1.6318   -2.7332    0.4512 C.ar      1 GTP        -0.0275
     33 HOG3       -3.2086    4.5660   -4.5976 H         1 GTP         0.4161
     34 H5'        -1.1767    2.0502    0.6368 H         1 GTP         0.0348
     35 H5''       -0.2080    3.2814    1.4876 H         1 GTP         0.0348
     36 H4'         0.0403    1.7078    3.4343 H         1 GTP         0.1215
     37 H3'         1.5907    1.4859    1.1353 H         1 GTP         0.0576
     38 HO3'        2.6839   -0.1150    2.2479 H         1 GTP         0.3842
     39 H2'        -0.0017    0.0018    0.0005 H         1 GTP         0.0252
     40 HO2'        2.0953   -0.9375    0.0709 H         1 GTP         0.4224
     41 H1'        -0.1998   -1.6319    2.6178 H         1 GTP         0.0745
     42 H8         -3.3933   -0.3909    1.7800 H         1 GTP         0.1522
     43 HN1        -2.2071   -5.7408   -1.7178 H         1 GTP         0.3518
     44 HN21        1.1896   -5.1751   -0.7715 H         1 GTP         0.4761
     45 HN22        0.0846   -6.1966   -1.6593 H         1 GTP         0.4761
     46 H46         0.4142   -3.2695    0.4160 H         1 GTP         0.5030
@<TRIPOS>BOND
     1    1    2 2
     2    1    3 1
     3    1    4 1
     4    1    5 1
     5    4   33 1
     6    5    6 1
     7    6    7 2
     8    6    8 1
     9    6    9 1
    10    9   10 1
    11   10   11 2
    12   10   12 1
    13   10   13 1
    14   13   14 1
    15   14   15 1
    16   14   34 1
    17   14   35 1
    18   15   16 1
    19   15   17 1
    20   15   36 1
    21   16   21 1
    22   17   18 1
    23   17   19 1
    24   17   37 1
    25   18   38 1
    26   19   20 1
    27   19   21 1
    28   19   39 1
    29   20   40 1
    30   21   22 1
    31   21   41 1
    32   22   23 ar
    33   22   32 ar
    34   23   24 ar
    35   23   42 1
    36   24   25 ar
    37   25   26 ar
    38   25   32 ar
    39   26   27 2
    40   26   28 ar
    41   28   29 ar
    42   28   43 1
    43   29   30 1
    44   29   31 ar
    45   30   44 1
    46   30   45 1
    47   31   32 ar
    48   31   46 1
@<TRIPOS>SUBSTRUCTURE
     1 GTP         1 GROUP 0 A     ****
@<TRIPOS>MOLECULE
[[[5-(2-amino-6-oxo-1,3-dihydropurin-2-ylium-9-yl)-3,4-dihydroxy-tetrahydrofuran-2-yl]methoxy-oxido-phosphoryl]oxy-oxido-phosphoryl] hydrogen phosphate
   46    48     1     0     0
SMALL
USER_CHARGES

@<TRIPOS>ATOM
      1 PG          6.8938    5.6519   -1.0885 P.3       1 GTP         1.5400
      2 O1G         5.6210    6.3861   -0.7306 O.co2     1 GTP        -0.8909
      3 O2G         7.5800    4.7515   -0.0854 O.co2     1 GTP        -0.8909
      4 O3G         7.9816    6.7377   -1.6396 O.3       1 GTP        -0.7980
      5 O3B         6.6553    4.8183   -2.4712 O.3       1 GTP        -0.7612
      6 PB          5.6856    3.5385   -2.7670 P.3       1 GTP         1.5847
      7 O1B         4.2763    3.8905   -2.3460 O.co2     1 GTP        -0.8859
      8 O2B         5.9882    2.9989   -4.1471 O.co2     1 GTP        -0.8859
      9 O3A         6.3229    2.4759   -1.7041 O.3       1 GTP        -0.7486
     10 PA          5.8979    0.9309   -1.3848 P.3       1 GTP         1.5001
     11 O1A         5.9332    0.1400   -2.6746 O.co2     1 GTP        -0.8487
     12 O2A         6.6537    0.4639   -0.1599 O.co2     1 GTP        -0.8487
     13 O5'         4.3516    1.1575   -0.9026 O.3       1 GTP        -0.5474
     14 C5'         4.0922    1.9801    0.2227 C.3       1 GTP         0.2547
     15 C4'         2.5944    2.0310    0.4653 C.3       1 GTP         0.0926
     16 O4'         1.9327    2.5740   -0.6889 O.3       1 GTP        -0.3593
     17 C3'         1.9685    0.6634    0.6767 C.3       1 GTP         0.0907
     18 O3'         2.1425    0.1975    1.9977 O.3       1 GTP        -0.5209
     19 C2'         0.5176    0.9128    0.3099 C.3       1 GTP         0.0305
     20 O2'        -0.2103    1.4454    1.4152 O.3       1 GTP        -0.5978
     21 C1'         0.6219    1.9765   -0.7844 C.3       1 GTP         0.2339
     22 N9          0.4237    1.4496   -2.1357 N.pl3     1 GTP        -0.1765
     23 C8          1.3988    0.9691   -2.9736 C.ar      1 GTP         0.4947
     24 N7          0.9092    0.5634   -4.1293 N.2       1 GTP        -0.5802
     25 C5         -0.4383    0.7914   -4.0325 C.ar      1 GTP         0.2279
     26 C6         -1.4217    0.5138   -5.0461 C.ar      1 GTP         0.6513
     27 O6         -1.1759    0.0306   -6.1417 O.2       1 GTP        -0.5111
     28 N1         -2.7543    0.8794   -4.6134 N.pl3     1 GTP        -0.4713
     29 C2         -3.0626    1.4402   -3.3523 C.ar      1 GTP         0.5256
     30 N2         -4.3747    1.7544   -3.0321 N.pl3     1 GTP        -0.8665
     31 N3         -2.0304    1.6759   -2.4233 N.pl3     1 GTP        -0.5398
     32 C4         -0.7497    1.3366   -2.8118 C.ar      1 GTP        -0.0275
     33 HOG3        8.8658    6.4143   -1.9149 H         1 GTP         0.4161
     34 H5'         4.6069    1.5618    1.0936 H         1 GTP         0.0348
     35 H5''        4.4824    2.9837    0.0254 H         1 GTP         0.0348
     36 H4'         2.3752    2.7029    1.3156 H         1 GTP         0.1215
     37 H3'         2.4336   -0.1217   -0.0015 H         1 GTP         0.0576
     38 HO3'        1.7160   -0.6716    2.0397 H         1 GTP         0.3842
     39 H2'         0.0316    0.0155   -0.0339 H         1 GTP         0.0252
     40 HO2'       -0.1608    0.7921    2.1351 H         1 GTP         0.4224
     41 H1'        -0.1474    2.7798   -0.6651 H         1 GTP         0.0745
     42 H8          2.4413    0.9409   -2.6872 H         1 GTP         0.1522
     43 HN1        -3.5236    0.7214   -5.2629 H         1 GTP         0.3518
     44 HN21       -4.5350    2.1409   -2.1461 H         1 GTP         0.4761
     45 HN22       -5.0542    1.5695   -3.7134 H         1 GTP         0.4761
     46 H46        -2.2462    2.0786   -1.5136 H         1 GTP         0.5030
@<TRIPOS>BOND
     1    1    2 2
     2    1    3 1
     3    1    4 1
     4    1    5 1
     5    4   33 1
     6    5    6 1
     7    6    7 2
     8    6    8 1
     9    6    9 1
    10    9   10 1
    11   10   11 2
    12   10   12 1
    13   10   13 1
    14   13   14 1
    15   14   15 1
    16   14   34 1
    17   14   35 1
    18   15   16 1
    19   15   17 1
    20   15   36 1
    21   16   21 1
    22   17   18 1
    23   17   19 1
    24   17   37 1
    25   18   38 1
    26   19   20 1
    27   19   21 1
    28   19   39 1
    29   20   40 1
    30   21   22 1
    31   21   41 1
    32   22   23 ar
    33   22   32 ar
    34   23   24 ar
    35   23   42 1
    36   24   25 ar
    37   25   26 ar
    38   25   32 ar
    39   26   27 2
    40   26   28 ar
    41   28   29 ar
    42   28   43 1
    43   29   30 1
    44   29   31 ar
    45   30   44 1
    46   30   45 1
    47   31   32 ar
    48   31   46 1
@<TRIPOS>SUBSTRUCTURE
     1 GTP         1 GROUP 0 A     ****
@<TRIPOS>MOLECULE
[[[5-(2-amino-6-oxo-1,3-dihydropurin-2-ylium-9-yl)-3,4-dihydroxy-tetrahydrofuran-2-yl]methoxy-oxido-phosphoryl]oxy-oxido-phosphoryl] hydrogen phosphate
   46    48     1     0     0
SMALL
USER_CHARGES

@<TRIPOS>ATOM
      1 PG         10.4170    1.2770    0.1234 P.3       1 GTP         1.5400
      2 O1G        11.3460    2.4239   -0.2071 O.co2     1 GTP        -0.8909
      3 O2G        10.7478    0.3038    1.2330 O.co2     1 GTP        -0.8909
      4 O3G        10.1337    0.4288   -1.2427 O.3       1 GTP        -0.7980
      5 O3B         8.9135    1.8641    0.3654 O.3       1 GTP        -0.7612
      6 PB          8.3466    2.8302    1.5532 P.3       1 GTP         1.5847
      7 O1B         8.4201    2.0804    2.8646 O.co2     1 GTP        -0.8859
      8 O2B         8.9461    4.2098    1.3953 O.co2     1 GTP        -0.8859
      9 O3A         6.7894    2.9445    1.0769 O.3       1 GTP        -0.7486
     10 PA          6.1593    3.5241   -0.3148 P.3       1 GTP         1.5001
     11 O1A         6.4655    5.0032   -0.4087 O.co2     1 GTP        -0.8487
     12 O2A         6.5181    2.5780   -1.4399 O.co2     1 GTP        -0.8487
     13 O5'         4.5670    3.2937   -0.0211 O.3       1 GTP        -0.5474
     14 C5'         4.0922    1.9801    0.2227 C.3       1 GTP         0.2547
     15 C4'         2.5944    2.0310    0.4653 C.3       1 GTP         0.0926
     16 O4'         1.9327    2.5740   -0.6889 O.3       1 GTP        -0.3593
     17 C3'         1.9685    0.6634    0.6767 C.3       1 GTP         0.0907
     18 O3'         2.1425    0.1975    1.9977 O.3       1 GTP        -0.5209
     19 C2'         0.5176    0.9128    0.3099 C.3       1 GTP         0.0305
     20 O2'        -0.2103    1.4454    1.4152 O.3       1 GTP        -0.5978
     21 C1'         0.6219    1.9765   -0.7844 C.3       1 GTP         0.2339
     22 N9          0.4237    1.4496   -2.1357 N.pl3     1 GTP        -0.1765
     23 C8          1.3988    0.9691   -2.9736 C.ar      1 GTP         0.4947
     24 N7          0.9092    0.5634   -4.1293 N.2       1 GTP        -0.5802
     25 C5         -0.4383    0.7914   -4.0325 C.ar      1 GTP         0.2279
     26 C6         -1.4217    0.5138   -5.0461 C.ar      1 GTP         0.6513
     27 O6         -1.1759    0.0306   -6.1417 O.2       1 GTP        -0.5111
     28 N1         -2.7543    0.8794   -4.6134 N.pl3     1 GTP        -0.4713
     29 C2         -3.0626    1.4402   -3.3523 C.ar      1 GTP         0.5256
     30 N2         -4.3747    1.7544   -3.0321 N.pl3     1 GTP        -0.8665
     31 N3         -2.0304    1.6759   -2.4233 N.pl3     1 GTP        -0.5398
     32 C4         -0.7497    1.3366   -2.8118 C.ar      1 GTP        -0.0275
     33 HOG3        9.5440   -0.3535   -1.1927 H         1 GTP         0.4161
     34 H5'         4.3179    1.3548   -0.6470 H         1 GTP         0.0348
     35 H5''        4.6083    1.5737    1.0983 H         1 GTP         0.0348
     36 H4'         2.3752    2.7029    1.3156 H         1 GTP         0.1215
     37 H3'         2.4336   -0.1217   -0.0015 H         1 GTP         0.0576
     38 HO3'        1.7160   -0.6716    2.0397 H         1 GTP         0.3842
     39 H2'         0.0316    0.0155   -0.0339 H         1 GTP         0.0252
     40 HO2'       -0.1608    0.7921    2.1351 H         1 GTP         0.4224
     41 H1'        -0.1474    2.7798   -0.6651 H         1 GTP         0.0745
     42 H8          2.4413    0.9409   -2.6872 H         1 GTP         0.1522
     43 HN1        -3.5236    0.7214   -5.2629 H         1 GTP         0.3518
     44 HN21       -4.5350    2.1409   -2.1461 H         1 GTP         0.4761
     45 HN22       -5.0542    1.5695   -3.7134 H         1 GTP         0.4761
     46 H46        -2.2462    2.0786   -1.5136 H         1 GTP         0.5030
@<TRIPOS>BOND
     1    1    2 2
     2    1    3 1
     3    1    4 1
     4    1    5 1
     5    4   33 1
     6    5    6 1
     7    6    7 2
     8    6    8 1
     9    6    9 1
    10    9   10 1
    11   10   11 2
    12   10   12 1
    13   10   13 1
    14   13   14 1
    15   14   15 1
    16   14   34 1
    17   14   35 1
    18   15   16 1
    19   15   17 1
    20   15   36 1
    21   16   21 1
    22   17   18 1
    23   17   19 1
    24   17   37 1
    25   18   38 1
    26   19   20 1
    27   19   21 1
    28   19   39 1
    29   20   40 1
    30   21   22 1
    31   21   41 1
    32   22   23 ar
    33   22   32 ar
    34   23   24 ar
    35   23   42 1
    36   24   25 ar
    37   25   26 ar
    38   25   32 ar
    39   26   27 2
    40   26   28 ar
    41   28   29 ar
    42   28   43 1
    43   29   30 1
    44   29   31 ar
    45   30   44 1
    46   30   45 1
    47   31   32 ar
    48   31   46 1
@<TRIPOS>SUBSTRUCTURE
     1 GTP         1 GROUP 0 A     ****
@<TRIPOS>MOLECULE
[[[5-(2-amino-6-oxo-1,3-dihydropurin-2-ylium-9-yl)-3,4-dihydroxy-tetrahydrofuran-2-yl]methoxy-oxido-phosphoryl]oxy-oxido-phosphoryl] hydrogen phosphate
   46    48     1     0     0
SMALL
USER_CHARGES

@<TRIPOS>ATOM
      1 PG          7.9898    3.2337   -4.7672 P.3       1 GTP         1.5400
      2 O1G         7.2048    3.1038   -6.0535 O.co2     1 GTP        -0.8909
      3 O2G         9.1123    4.2395   -4.6399 O.co2     1 GTP        -0.8909
      4 O3G         8.5646    1.7609   -4.3594 O.3       1 GTP        -0.7980
      5 O3B         6.9483    3.4437   -3.5283 O.3       1 GTP        -0.7612
      6 PB          5.9567    4.6976   -3.1965 P.3       1 GTP         1.5847
      7 O1B         6.8003    5.9128   -2.8816 O.co2     1 GTP        -0.8859
      8 O2B         4.8568    4.7445   -4.2336 O.co2     1 GTP        -0.8859
      9 O3A         5.2751    4.1363   -1.8235 O.3       1 GTP        -0.7486
     10 PA          5.9684    3.7219   -0.4031 P.3       1 GTP         1.5001
     11 O1A         6.8731    2.5306   -0.6326 O.co2     1 GTP        -0.8487
     12 O2A         6.4822    4.9763    0.2693 O.co2     1 GTP        -0.8487
     13 O5'         4.6405    3.2699    0.4378 O.3       1 GTP        -0.5474
     14 C5'         4.0922    1.9801    0.2227 C.3       1 GTP         0.2547
     15 C4'         2.5944    2.0310    0.4653 C.3       1 GTP         0.0926
     16 O4'         1.9327    2.5740   -0.6889 O.3       1 GTP        -0.3593
     17 C3'         1.9685    0.6634    0.6767 C.3       1 GTP         0.0907
     18 O3'         2.1425    0.1975    1.9977 O.3       1 GTP        -0.5209
     19 C2'         0.5176    0.9128    0.3099 C.3       1 GTP         0.0305
     20 O2'        -0.2103    1.4454    1.4152 O.3       1 GTP        -0.5978
     21 C1'         0.6219    1.9765   -0.7844 C.3       1 GTP         0.2339
     22 N9          0.4237    1.4496   -2.1357 N.pl3     1 GTP        -0.1765
     23 C8          1.3988    0.9691   -2.9736 C.ar      1 GTP         0.4947
     24 N7          0.9092    0.5634   -4.1293 N.2       1 GTP        -0.5802
     25 C5         -0.4383    0.7914   -4.0325 C.ar      1 GTP         0.2279
     26 C6         -1.4217    0.5138   -5.0461 C.ar      1 GTP         0.6513
     27 O6         -1.1759    0.0306   -6.1417 O.2       1 GTP        -0.5111
     28 N1         -2.7543    0.8794   -4.6134 N.pl3     1 GTP        -0.4713
     29 C2         -3.0626    1.4402   -3.3523 C.ar      1 GTP         0.5256
     30 N2         -4.3747    1.7544   -3.0321 N.pl3     1 GTP        -0.8665
     31 N3         -2.0304    1.6759   -2.4233 N.pl3     1 GTP        -0.5398
     32 C4         -0.7497    1.3366   -2.8118 C.ar      1 GTP        -0.0275
     33 HOG3        9.0995    1.6786   -3.5412 H         1 GTP         0.4161
     34 H5'         4.3028    1.6728   -0.8066 H         1 GTP         0.0348
     35 H5''        4.5677    1.2738    0.9106 H         1 GTP         0.0348
     36 H4'         2.3752    2.7029    1.3156 H         1 GTP         0.1215
     37 H3'         2.4336   -0.1217   -0.0015 H         1 GTP         0.0576
     38 HO3'        1.7160   -0.6716    2.0397 H         1 GTP         0.3842
     39 H2'         0.0316    0.0155   -0.0339 H         1 GTP         0.0252
     40 HO2'       -1.1270    1.5823    1.1180 H         1 GTP         0.4224
     41 H1'        -0.1474    2.7798   -0.6651 H         1 GTP         0.0745
     42 H8          2.4413    0.9409   -2.6872 H         1 GTP         0.1522
     43 HN1        -3.5236    0.7214   -5.2629 H         1 GTP         0.3518
     44 HN21       -4.5350    2.1409   -2.1461 H         1 GTP         0.4761
     45 HN22       -5.0542    1.5695   -3.7134 H         1 GTP         0.4761
     46 H46        -2.2462    2.0786   -1.5136 H         1 GTP         0.5030
@<TRIPOS>BOND
     1    1    2 2
     2    1    3 1
     3    1    4 1
     4    1    5 1
     5    4   33 1
     6    5    6 1
     7    6    7 2
     8    6    8 1
     9    6    9 1
    10    9   10 1
    11   10   11 2
    12   10   12 1
    13   10   13 1
    14   13   14 1
    15   14   15 1
    16   14   34 1
    17   14   35 1
    18   15   16 1
    19   15   17 1
    20   15   36 1
    21   16   21 1
    22   17   18 1
    23   17   19 1
    24   17   37 1
    25   18   38 1
    26   19   20 1
    27   19   21 1
    28   19   39 1
    29   20   40 1
    30   21   22 1
    31   21   41 1
    32   22   23 ar
    33   22   32 ar
    34   23   24 ar
    35   23   42 1
    36   24   25 ar
    37   25   26 ar
    38   25   32 ar
    39   26   27 2
    40   26   28 ar
    41   28   29 ar
    42   28   43 1
    43   29   30 1
    44   29   31 ar
    45   30   44 1
    46   30   45 1
    47   31   32 ar
    48   31   46 1
@<TRIPOS>SUBSTRUCTURE
     1 GTP         1 GROUP 0 A     ****
@<TRIPOS>MOLECULE
[[[5-(2-amino-6-oxo-1,3-dihydropurin-2-ylium-9-yl)-3,4-dihydroxy-tetrahydrofuran-2-yl]methoxy-oxido-phosphoryl]oxy-oxido-phosphoryl] hydrogen phosphate
   46    48     1     0     0
SMALL
USER_CHARGES

@<TRIPOS>ATOM
      1 PG         -0.7342    9.1618    3.6751 P.3       1 GTP         1.5400
      2 O1G         0.6221    9.4993    4.2529 O.co2     1 GTP        -0.8909
      3 O2G        -1.3357    9.9954    2.5656 O.co2     1 GTP        -0.8909
      4 O3G        -1.8116    9.0723    4.8986 O.3       1 GTP        -0.7980
      5 O3B        -0.7437    7.5935    3.2230 O.3       1 GTP        -0.7612
      6 PB          0.0882    6.8422    2.0360 P.3       1 GTP         1.5847
      7 O1B        -0.3800    7.3784    0.7016 O.co2     1 GTP        -0.8859
      8 O2B         1.5544    6.8094    2.4058 O.co2     1 GTP        -0.8859
      9 O3A        -0.4755    5.3240    2.2417 O.3       1 GTP        -0.7486
     10 PA         -2.0037    4.7528    2.1522 P.3       1 GTP         1.5001
     11 O1A        -2.8233    5.3804    3.2590 O.co2     1 GTP        -0.8487
     12 O2A        -2.4597    4.8131    0.7107 O.co2     1 GTP        -0.8487
     13 O5'        -1.7336    3.1724    2.4750 O.3       1 GTP        -0.5474
     14 C5'        -0.8811    2.4285    1.6206 C.3       1 GTP         0.2547
     15 C4'        -0.1994    1.3333    2.4288 C.3       1 GTP         0.0926
     16 O4'        -1.1285    0.2356    2.5840 O.3       1 GTP        -0.3593
     17 C3'         1.0324    0.7610    1.7344 C.3       1 GTP         0.0907
     18 O3'         1.9175    0.2377    2.7247 O.3       1 GTP        -0.5209
     19 C2'         0.4468   -0.3802    0.9263 C.3       1 GTP         0.0305
     20 O2'         1.3993   -1.3703    0.5961 O.3       1 GTP        -0.5978
     21 C1'        -0.6159   -0.9100    1.8769 C.3       1 GTP         0.2339
     22 N9         -1.7127   -1.6108    1.2130 N.pl3     1 GTP        -0.1765
     23 C8         -3.0389   -1.2578    1.2391 C.ar      1 GTP         0.4947
     24 N7         -3.7909   -2.0880    0.5425 N.2       1 GTP        -0.5802
     25 C5         -2.9127   -3.0150    0.0458 C.ar      1 GTP         0.2279
     26 C6         -3.2467   -4.1411   -0.7860 C.ar      1 GTP         0.6513
     27 O6         -4.3761   -4.4189   -1.1621 O.2       1 GTP        -0.5111
     28 N1         -2.0748   -4.9191   -1.1296 N.pl3     1 GTP        -0.4713
     29 C2         -0.7595   -4.6181   -0.7058 C.ar      1 GTP         0.5256
     30 N2          0.2985   -5.4268   -1.0920 N.pl3     1 GTP        -0.8665
     31 N3         -0.5304   -3.4919    0.1084 N.pl3     1 GTP        -0.5398
     32 C4         -1.6318   -2.7332    0.4512 C.ar      1 GTP        -0.0275
     33 HOG3       -2.7449    8.8595    4.6843 H         1 GTP         0.4161
     34 H5'        -1.4800    1.9927    0.8146 H         1 GTP         0.0348
     35 H5''       -0.1367    3.1040    1.1872 H         1 GTP         0.0348
     36 H4'         0.0403    1.7078    3.4343 H         1 GTP         0.1215
     37 H3'         1.5907    1.4859    1.1353 H         1 GTP         0.0576
     38 HO3'        2.1521    0.9800    3.3017 H         1 GTP         0.3842
     39 H2'        -0.0017    0.0018    0.0005 H         1 GTP         0.0252
     40 HO2'        2.0953   -0.9375    0.0709 H         1 GTP         0.4224
     41 H1'        -0.1998   -1.6319    2.6178 H         1 GTP         0.0745
     42 H8         -3.3933   -0.3909    1.7800 H         1 GTP         0.1522
     43 HN1        -2.2071   -5.7408   -1.7178 H         1 GTP         0.3518
     44 HN21        1.1896   -5.1751   -0.7715 H         1 GTP         0.4761
     45 HN22        0.0846   -6.1966   -1.6593 H         1 GTP         0.4761
     46 H46         0.4142   -3.2695    0.4160 H         1 GTP         0.5030
@<TRIPOS>BOND
     1    1    2 2
     2    1    3 1
     3    1    4 1
     4    1    5 1
     5    4   33 1
     6    5    6 1
     7    6    7 2
     8    6    8 1
     9    6    9 1
    10    9   10 1
    11   10   11 2
    12   10   12 1
    13   10   13 1
    14   13   14 1
    15   14   15 1
    16   14   34 1
    17   14   35 1
    18   15   16 1
    19   15   17 1
    20   15   36 1
    21   16   21 1
    22   17   18 1
    23   17   19 1
    24   17   37 1
    25   18   38 1
    26   19   20 1
    27   19   21 1
    28   19   39 1
    29   20   40 1
    30   21   22 1
    31   21   41 1
    32   22   23 ar
    33   22   32 ar
    34   23   24 ar
    35   23   42 1
    36   24   25 ar
    37   25   26 ar
    38   25   32 ar
    39   26   27 2
    40   26   28 ar
    41   28   29 ar
    42   28   43 1
    43   29   30 1
    44   29   31 ar
    45   30   44 1
    46   30   45 1
    47   31   32 ar
    48   31   46 1
@<TRIPOS>SUBSTRUCTURE
     1 GTP         1 GROUP 0 A     ****
@<TRIPOS>MOLECULE
[[[5-(2-amino-6-oxo-1,3-dihydropurin-2-ylium-9-yl)-3,4-dihydroxy-tetrahydrofuran-2-yl]methoxy-oxido-phosphoryl]oxy-oxido-phosphoryl] hydrogen phosphate
   46    48     1     0     0
SMALL
USER_CHARGES

@<TRIPOS>ATOM
      1 PG          7.5190   -4.1379   -0.4147 P.3       1 GTP         1.5400
      2 O1G         9.0004   -3.8363   -0.4591 O.co2     1 GTP        -0.8909
      3 O2G         6.9604   -5.1483    0.5623 O.co2     1 GTP        -0.8909
      4 O3G         7.0270   -4.5434   -1.9179 O.3       1 GTP        -0.7980
      5 O3B         6.6964   -2.7373   -0.2555 O.3       1 GTP        -0.7612
      6 PB          6.6479   -1.6892    0.9954 P.3       1 GTP         1.5847
      7 O1B         5.9955   -2.3732    2.1761 O.co2     1 GTP        -0.8859
      8 O2B         7.9918   -1.0065    1.1193 O.co2     1 GTP        -0.8859
      9 O3A         5.6224   -0.5833    0.3709 O.3       1 GTP        -0.7486
     10 PA          5.7602    0.3298   -0.9771 P.3       1 GTP         1.5001
     11 O1A         6.9313    1.2734   -0.8079 O.co2     1 GTP        -0.8487
     12 O2A         5.6513   -0.5728   -2.1867 O.co2     1 GTP        -0.8487
     13 O5'         4.3516    1.1575   -0.9026 O.3       1 GTP        -0.5474
     14 C5'         4.0922    1.9801    0.2227 C.3       1 GTP         0.2547
     15 C4'         2.5944    2.0310    0.4653 C.3       1 GTP         0.0926
     16 O4'         1.9327    2.5740   -0.6889 O.3       1 GTP        -0.3593
     17 C3'         1.9685    0.6634    0.6767 C.3       1 GTP         0.0907
     18 O3'         2.1425    0.1975    1.9977 O.3       1 GTP        -0.5209
     19 C2'         0.5176    0.9128    0.3099 C.3       1 GTP         0.0305
     20 O2'        -0.2103    1.4454    1.4152 O.3       1 GTP        -0.5978
     21 C1'         0.6219    1.9765   -0.7844 C.3       1 GTP         0.2339
     22 N9          0.4237    1.4496   -2.1357 N.pl3     1 GTP        -0.1765
     23 C8          1.3988    0.9691   -2.9736 C.ar      1 GTP         0.4947
     24 N7          0.9092    0.5634   -4.1293 N.2       1 GTP        -0.5802
     25 C5         -0.4383    0.7914   -4.0325 C.ar      1 GTP         0.2279
     26 C6         -1.4217    0.5138   -5.0461 C.ar      1 GTP         0.6513
     27 O6         -1.1759    0.0306   -6.1417 O.2       1 GTP        -0.5111
     28 N1         -2.7543    0.8794   -4.6134 N.pl3     1 GTP        -0.4713
     29 C2         -3.0626    1.4402   -3.3523 C.ar      1 GTP         0.5256
     30 N2         -4.3747    1.7544   -3.0321 N.pl3     1 GTP        -0.8665
     31 N3         -2.0304    1.6759   -2.4233 N.pl3     1 GTP        -0.5398
     32 C4         -0.7497    1.3366   -2.8118 C.ar      1 GTP        -0.0275
     33 HOG3        6.0823   -4.7690   -2.0550 H         1 GTP         0.4161
     34 H5'         4.6069    1.5618    1.0936 H         1 GTP         0.0348
     35 H5''        4.4824    2.9837    0.0254 H         1 GTP         0.0348
     36 H4'         2.3752    2.7029    1.3156 H         1 GTP         0.1215
     37 H3'         2.4336   -0.1217   -0.0015 H         1 GTP         0.0576
     38 HO3'        1.7160   -0.6716    2.0397 H         1 GTP         0.3842
     39 H2'         0.0316    0.0155   -0.0339 H         1 GTP         0.0252
     40 HO2'       -0.1608    0.7921    2.1351 H         1 GTP         0.4224
     41 H1'        -0.1474    2.7798   -0.6651 H         1 GTP         0.0745
     42 H8          2.4413    0.9409   -2.6872 H         1 GTP         0.1522
     43 HN1        -3.5236    0.7214   -5.2629 H         1 GTP         0.3518
     44 HN21       -4.5350    2.1409   -2.1461 H         1 GTP         0.4761
     45 HN22       -5.0542    1.5695   -3.7134 H         1 GTP         0.4761
     46 H46        -2.2462    2.0786   -1.5136 H         1 GTP         0.5030
@<TRIPOS>BOND
     1    1    2 2
     2    1    3 1
     3    1    4 1
     4    1    5 1
     5    4   33 1
     6    5    6 1
     7    6    7 2
     8    6    8 1
     9    6    9 1
    10    9   10 1
    11   10   11 2
    12   10   12 1
    13   10   13 1
    14   13   14 1
    15   14   15 1
    16   14   34 1
    17   14   35 1
    18   15   16 1
    19   15   17 1
    20   15   36 1
    21   16   21 1
    22   17   18 1
    23   17   19 1
    24   17   37 1
    25   18   38 1
    26   19   20 1
    27   19   21 1
    28   19   39 1
    29   20   40 1
    30   21   22 1
    31   21   41 1
    32   22   23 ar
    33   22   32 ar
    34   23   24 ar
    35   23   42 1
    36   24   25 ar
    37   25   26 ar
    38   25   32 ar
    39   26   27 2
    40   26   28 ar
    41   28   29 ar
    42   28   43 1
    43   29   30 1
    44   29   31 ar
    45   30   44 1
    46   30   45 1
    47   31   32 ar
    48   31   46 1
@<TRIPOS>SUBSTRUCTURE
     1 GTP         1 GROUP 0 A     ****
@<TRIPOS>MOLECULE
[[[5-(2-amino-6-oxo-1,3-dihydropurin-2-ylium-9-yl)-3,4-dihydroxy-tetrahydrofuran-2-yl]methoxy-oxido-phosphoryl]oxy-oxido-phosphoryl] hydrogen phosphate
   46    48     1     0     0
SMALL
USER_CHARGES

@<TRIPOS>ATOM
      1 PG         -0.1643    8.7462    1.9028 P.3       1 GTP         1.5400
      2 O1G         0.9426    8.7175    2.9331 O.co2     1 GTP        -0.8909
      3 O2G         0.0776    9.3030    0.5175 O.co2     1 GTP        -0.8909
      4 O3G        -1.4553    9.5083    2.5497 O.3       1 GTP        -0.7980
      5 O3B        -0.8031    7.2504    1.7677 O.3       1 GTP        -0.7612
      6 PB         -2.1077    6.7422    0.9279 P.3       1 GTP         1.5847
      7 O1B        -3.3453    7.3726    1.5264 O.co2     1 GTP        -0.8859
      8 O2B        -1.8085    6.8348   -0.5518 O.co2     1 GTP        -0.8859
      9 O3A        -2.0640    5.1559    1.3109 O.3       1 GTP        -0.7486
     10 PA         -2.1561    4.4278    2.7707 P.3       1 GTP         1.5001
     11 O1A        -0.9467    4.8245    3.5894 O.co2     1 GTP        -0.8487
     12 O2A        -3.5584    4.6024    3.3116 O.co2     1 GTP        -0.8487
     13 O5'        -2.0401    2.8620    2.3128 O.3       1 GTP        -0.5474
     14 C5'        -0.8811    2.4285    1.6206 C.3       1 GTP         0.2547
     15 C4'        -0.1994    1.3333    2.4288 C.3       1 GTP         0.0926
     16 O4'        -1.1285    0.2356    2.5840 O.3       1 GTP        -0.3593
     17 C3'         1.0324    0.7610    1.7344 C.3       1 GTP         0.0907
     18 O3'         1.9175    0.2377    2.7247 O.3       1 GTP        -0.5209
     19 C2'         0.4468   -0.3802    0.9263 C.3       1 GTP         0.0305
     20 O2'         1.3993   -1.3703    0.5961 O.3       1 GTP        -0.5978
     21 C1'        -0.6159   -0.9100    1.8769 C.3       1 GTP         0.2339
     22 N9         -1.7127   -1.6108    1.2130 N.pl3     1 GTP        -0.1765
     23 C8         -3.0389   -1.2578    1.2391 C.ar      1 GTP         0.4947
     24 N7         -3.7909   -2.0880    0.5425 N.2       1 GTP        -0.5802
     25 C5         -2.9127   -3.0150    0.0458 C.ar      1 GTP         0.2279
     26 C6         -3.2467   -4.1411   -0.7860 C.ar      1 GTP         0.6513
     27 O6         -4.3761   -4.4189   -1.1621 O.2       1 GTP        -0.5111
     28 N1         -2.0748   -4.9191   -1.1296 N.pl3     1 GTP        -0.4713
     29 C2         -0.7595   -4.6181   -0.7058 C.ar      1 GTP         0.5256
     30 N2          0.2985   -5.4268   -1.0920 N.pl3     1 GTP        -0.8665
     31 N3         -0.5304   -3.4919    0.1084 N.pl3     1 GTP        -0.5398
     32 C4         -1.6318   -2.7332    0.4512 C.ar      1 GTP        -0.0275
     33 HOG3       -2.2618    9.6086    2.0004 H         1 GTP         0.4161
     34 H5'        -1.1767    2.0502    0.6368 H         1 GTP         0.0348
     35 H5''       -0.2080    3.2814    1.4876 H         1 GTP         0.0348
     36 H4'         0.0403    1.7078    3.4343 H         1 GTP         0.1215
     37 H3'         1.5907    1.4859    1.1353 H         1 GTP         0.0576
     38 HO3'        2.1521    0.9800    3.3017 H         1 GTP         0.3842
     39 H2'        -0.0017    0.0018    0.0005 H         1 GTP         0.0252
     40 HO2'        2.0953   -0.9375    0.0709 H         1 GTP         0.4224
     41 H1'        -0.1998   -1.6319    2.6178 H         1 GTP         0.0745
     42 H8         -3.3933   -0.3909    1.7800 H         1 GTP         0.1522
     43 HN1        -2.2071   -5.7408   -1.7178 H         1 GTP         0.3518
     44 HN21        1.1896   -5.1751   -0.7715 H         1 GTP         0.4761
     45 HN22        0.0846   -6.1966   -1.6593 H         1 GTP         0.4761
     46 H46         0.4142   -3.2695    0.4160 H         1 GTP         0.5030
@<TRIPOS>BOND
     1    1    2 2
     2    1    3 1
     3    1    4 1
     4    1    5 1
     5    4   33 1
     6    5    6 1
     7    6    7 2
     8    6    8 1
     9    6    9 1
    10    9   10 1
    11   10   11 2
    12   10   12 1
    13   10   13 1
    14   13   14 1
    15   14   15 1
    16   14   34 1
    17   14   35 1
    18   15   16 1
    19   15   17 1
    20   15   36 1
    21   16   21 1
    22   17   18 1
    23   17   19 1
    24   17   37 1
    25   18   38 1
    26   19   20 1
    27   19   21 1
    28   19   39 1
    29   20   40 1
    30   21   22 1
    31   21   41 1
    32   22   23 ar
    33   22   32 ar
    34   23   24 ar
    35   23   42 1
    36   24   25 ar
    37   25   26 ar
    38   25   32 ar
    39   26   27 2
    40   26   28 ar
    41   28   29 ar
    42   28   43 1
    43   29   30 1
    44   29   31 ar
    45   30   44 1
    46   30   45 1
    47   31   32 ar
    48   31   46 1
@<TRIPOS>SUBSTRUCTURE
     1 GTP         1 GROUP 0 A     ****
@<TRIPOS>MOLECULE
[[[5-(2-amino-6-oxo-1,3-dihydropurin-2-ylium-9-yl)-3,4-dihydroxy-tetrahydrofuran-2-yl]methoxy-oxido-phosphoryl]oxy-oxido-phosphoryl] hydrogen phosphate
   46    48     1     0     0
SMALL
USER_CHARGES

@<TRIPOS>ATOM
      1 PG          8.8948   -1.4689    2.8362 P.3       1 GTP         1.5400
      2 O1G        10.1070   -0.5710    2.9449 O.co2     1 GTP        -0.8909
      3 O2G         8.1589   -1.9344    4.0729 O.co2     1 GTP        -0.8909
      4 O3G         9.2976   -2.7790    1.9489 O.3       1 GTP        -0.7980
      5 O3B         7.8239   -0.7934    1.8063 O.3       1 GTP        -0.7612
      6 PB          8.0344   -0.2669    0.2752 P.3       1 GTP         1.5847
      7 O1B         8.9791    0.9140    0.2941 O.co2     1 GTP        -0.8859
      8 O2B         8.2726   -1.4570   -0.6272 O.co2     1 GTP        -0.8859
      9 O3A         6.5180    0.2527   -0.0338 O.3       1 GTP        -0.7486
     10 PA          5.8979    0.9309   -1.3848 P.3       1 GTP         1.5001
     11 O1A         6.5752    2.2645   -1.6146 O.co2     1 GTP        -0.8487
     12 O2A         5.8467   -0.1185   -2.4739 O.co2     1 GTP        -0.8487
     13 O5'         4.3516    1.1575   -0.9026 O.3       1 GTP        -0.5474
     14 C5'         4.0922    1.9801    0.2227 C.3       1 GTP         0.2547
     15 C4'         2.5944    2.0310    0.4653 C.3       1 GTP         0.0926
     16 O4'         1.9327    2.5740   -0.6889 O.3       1 GTP        -0.3593
     17 C3'         1.9685    0.6634    0.6767 C.3       1 GTP         0.0907
     18 O3'         2.1425    0.1975    1.9977 O.3       1 GTP        -0.5209
     19 C2'         0.5176    0.9128    0.3099 C.3       1 GTP         0.0305
     20 O2'        -0.2103    1.4454    1.4152 O.3       1 GTP        -0.5978
     21 C1'         0.6219    1.9765   -0.7844 C.3       1 GTP         0.2339
     22 N9          0.4237    1.4496   -2.1357 N.pl3     1 GTP        -0.1765
     23 C8          1.3988    0.9691   -2.9736 C.ar      1 GTP         0.4947
     24 N7          0.9092    0.5634   -4.1293 N.2       1 GTP        -0.5802
     25 C5         -0.4383    0.7914   -4.0325 C.ar      1 GTP         0.2279
     26 C6         -1.4217    0.5138   -5.0461 C.ar      1 GTP         0.6513
     27 O6         -1.1759    0.0306   -6.1417 O.2       1 GTP        -0.5111
     28 N1         -2.7543    0.8794   -4.6134 N.pl3     1 GTP        -0.4713
     29 C2         -3.0626    1.4402   -3.3523 C.ar      1 GTP         0.5256
     30 N2         -4.3747    1.7544   -3.0321 N.pl3     1 GTP        -0.8665
     31 N3         -2.0304    1.6759   -2.4233 N.pl3     1 GTP        -0.5398
     32 C4         -0.7497    1.3366   -2.8118 C.ar      1 GTP        -0.0275
     33 HOG3        8.6123   -3.4619    1.7868 H         1 GTP         0.4161
     34 H5'         4.6069    1.5618    1.0936 H         1 GTP         0.0348
     35 H5''        4.4824    2.9837    0.0254 H         1 GTP         0.0348
     36 H4'         2.3752    2.7029    1.3156 H         1 GTP         0.1215
     37 H3'         2.4336   -0.1217   -0.0015 H         1 GTP         0.0576
     38 HO3'        1.7160   -0.6716    2.0397 H         1 GTP         0.3842
     39 H2'         0.0316    0.0155   -0.0339 H         1 GTP         0.0252
     40 HO2'       -0.1608    0.7921    2.1351 H         1 GTP         0.4224
     41 H1'        -0.1474    2.7798   -0.6651 H         1 GTP         0.0745
     42 H8          2.4413    0.9409   -2.6872 H         1 GTP         0.1522
     43 HN1        -3.5236    0.7214   -5.2629 H         1 GTP         0.3518
     44 HN21       -4.5350    2.1409   -2.1461 H         1 GTP         0.4761
     45 HN22       -5.0542    1.5695   -3.7134 H         1 GTP         0.4761
     46 H46        -2.2462    2.0786   -1.5136 H         1 GTP         0.5030
@<TRIPOS>BOND
     1    1    2 2
     2    1    3 1
     3    1    4 1
     4    1    5 1
     5    4   33 1
     6    5    6 1
     7    6    7 2
     8    6    8 1
     9    6    9 1
    10    9   10 1
    11   10   11 2
    12   10   12 1
    13   10   13 1
    14   13   14 1
    15   14   15 1
    16   14   34 1
    17   14   35 1
    18   15   16 1
    19   15   17 1
    20   15   36 1
    21   16   21 1
    22   17   18 1
    23   17   19 1
    24   17   37 1
    25   18   38 1
    26   19   20 1
    27   19   21 1
    28   19   39 1
    29   20   40 1
    30   21   22 1
    31   21   41 1
    32   22   23 ar
    33   22   32 ar
    34   23   24 ar
    35   23   42 1
    36   24   25 ar
    37   25   26 ar
    38   25   32 ar
    39   26   27 2
    40   26   28 ar
    41   28   29 ar
    42   28   43 1
    43   29   30 1
    44   29   31 ar
    45   30   44 1
    46   30   45 1
    47   31   32 ar
    48   31   46 1
@<TRIPOS>SUBSTRUCTURE
     1 GTP         1 GROUP 0 A     ****
@<TRIPOS>MOLECULE
[[[5-(2-amino-6-oxo-1,3-dihydropurin-2-ylium-9-yl)-3,4-dihydroxy-tetrahydrofuran-2-yl]methoxy-oxido-phosphoryl]oxy-oxido-phosphoryl] hydrogen phosphate
   46    48     1     0     0
SMALL
USER_CHARGES

@<TRIPOS>ATOM
      1 PG          1.9327    6.1051    2.8376 P.3       1 GTP         1.5400
      2 O1G         1.7840    4.6017    2.7662 O.co2     1 GTP        -0.8909
      3 O2G         2.3346    6.9052    1.6186 O.co2     1 GTP        -0.8909
      4 O3G         2.9567    6.4678    4.0565 O.3       1 GTP        -0.7980
      5 O3B         0.5678    6.7446    3.4637 O.3       1 GTP        -0.7612
      6 PB         -0.9420    6.7977    2.8447 P.3       1 GTP         1.5847
      7 O1B        -1.8726    7.3789    3.8857 O.co2     1 GTP        -0.8859
      8 O2B        -0.8798    7.3538    1.4395 O.co2     1 GTP        -0.8859
      9 O3A        -1.2210    5.1961    2.6972 O.3       1 GTP        -0.7486
     10 PA         -2.5400    4.4095    2.1393 P.3       1 GTP         1.5001
     11 O1A        -3.7027    4.6909    3.0663 O.co2     1 GTP        -0.8487
     12 O2A        -2.6521    4.6480    0.6493 O.co2     1 GTP        -0.8487
     13 O5'        -2.0401    2.8620    2.3128 O.3       1 GTP        -0.5474
     14 C5'        -0.8811    2.4285    1.6206 C.3       1 GTP         0.2547
     15 C4'        -0.1994    1.3333    2.4288 C.3       1 GTP         0.0926
     16 O4'        -1.1285    0.2356    2.5840 O.3       1 GTP        -0.3593
     17 C3'         1.0324    0.7610    1.7344 C.3       1 GTP         0.0907
     18 O3'         1.9175    0.2377    2.7247 O.3       1 GTP        -0.5209
     19 C2'         0.4468   -0.3802    0.9263 C.3       1 GTP         0.0305
     20 O2'         1.3993   -1.3703    0.5961 O.3       1 GTP        -0.5978
     21 C1'        -0.6159   -0.9100    1.8769 C.3       1 GTP         0.2339
     22 N9         -1.7127   -1.6108    1.2130 N.pl3     1 GTP        -0.1765
     23 C8         -1.6311   -2.3341    0.0493 C.ar      1 GTP         0.4947
     24 N7         -2.7933   -2.8506   -0.3007 N.2       1 GTP        -0.5802
     25 C5         -3.6607   -2.4436    0.6786 C.ar      1 GTP         0.2279
     26 C6         -5.0651   -2.7506    0.7505 C.ar      1 GTP         0.6513
     27 O6         -5.6735   -3.4256   -0.0671 O.2       1 GTP        -0.5111
     28 N1         -5.6834   -2.1585    1.9182 N.pl3     1 GTP        -0.4713
     29 C2         -5.0007   -1.3738    2.8765 C.ar      1 GTP         0.5256
     30 N2         -5.6847   -0.8521    3.9640 N.pl3     1 GTP        -0.8665
     31 N3         -3.6227   -1.1271    2.7212 N.pl3     1 GTP        -0.5398
     32 C4         -3.0090   -1.6802    1.6149 C.ar      1 GTP        -0.0275
     33 HOG3        3.1577    7.4117    4.2323 H         1 GTP         0.4161
     34 H5'        -1.1767    2.0502    0.6368 H         1 GTP         0.0348
     35 H5''       -0.2080    3.2814    1.4876 H         1 GTP         0.0348
     36 H4'         0.0403    1.7078    3.4343 H         1 GTP         0.1215
     37 H3'         1.5907    1.4859    1.1353 H         1 GTP         0.0576
     38 HO3'        2.6839   -0.1150    2.2479 H         1 GTP         0.3842
     39 H2'        -0.0017    0.0018    0.0005 H         1 GTP         0.0252
     40 HO2'        2.0953   -0.9375    0.0709 H         1 GTP         0.4224
     41 H1'        -0.1998   -1.6319    2.6178 H         1 GTP         0.0745
     42 H8         -0.7029   -2.4474   -0.4941 H         1 GTP         0.1522
     43 HN1        -6.6800   -2.3183    2.0594 H         1 GTP         0.3518
     44 HN21       -5.1660   -0.3153    4.5987 H         1 GTP         0.4761
     45 HN22       -6.6415   -1.0545    4.0252 H         1 GTP         0.4761
     46 H46        -3.1256   -0.5638    3.4080 H         1 GTP         0.5030
@<TRIPOS>BOND
     1    1    2 2
     2    1    3 1
     3    1    4 1
     4    1    5 1
     5    4   33 1
     6    5    6 1
     7    6    7 2
     8    6    8 1
     9    6    9 1
    10    9   10 1
    11   10   11 2
    12   10   12 1
    13   10   13 1
    14   13   14 1
    15   14   15 1
    16   14   34 1
    17   14   35 1
    18   15   16 1
    19   15   17 1
    20   15   36 1
    21   16   21 1
    22   17   18 1
    23   17   19 1
    24   17   37 1
    25   18   38 1
    26   19   20 1
    27   19   21 1
    28   19   39 1
    29   20   40 1
    30   21   22 1
    31   21   41 1
    32   22   23 ar
    33   22   32 ar
    34   23   24 ar
    35   23   42 1
    36   24   25 ar
    37   25   26 ar
    38   25   32 ar
    39   26   27 2
    40   26   28 ar
    41   28   29 ar
    42   28   43 1
    43   29   30 1
    44   29   31 ar
    45   30   44 1
    46   30   45 1
    47   31   32 ar
    48   31   46 1
@<TRIPOS>SUBSTRUCTURE
     1 GTP         1 GROUP 0 A     ****
@<TRIPOS>MOLECULE
[[[5-(2-amino-6-oxo-1,3-dihydropurin-2-ylium-9-yl)-3,4-dihydroxy-tetrahydrofuran-2-yl]methoxy-oxido-phosphoryl]oxy-oxido-phosphoryl] hydrogen phosphate
   46    48     1     0     0
SMALL
USER_CHARGES

@<TRIPOS>ATOM
      1 PG          0.6657    6.7786    0.3038 P.3       1 GTP         1.5400
      2 O1G         1.3920    6.2711    1.5295 O.co2     1 GTP        -0.8909
      3 O2G         0.7544    6.0405   -1.0135 O.co2     1 GTP        -0.8909
      4 O3G         1.0920    8.3350    0.0556 O.3       1 GTP        -0.7980
      5 O3B        -0.9065    7.0098    0.6757 O.3       1 GTP        -0.7612
      6 PB         -2.0606    5.9218    1.0631 P.3       1 GTP         1.5847
      7 O1B        -3.3171    6.6667    1.4553 O.co2     1 GTP        -0.8859
      8 O2B        -2.0814    4.8307    0.0160 O.co2     1 GTP        -0.8859
      9 O3A        -1.3731    5.2735    2.3942 O.3       1 GTP        -0.7486
     10 PA         -1.9156    4.0918    3.3837 P.3       1 GTP         1.5001
     11 O1A        -0.8453    3.7865    4.4092 O.co2     1 GTP        -0.8487
     12 O2A        -3.3304    4.4243    3.8049 O.co2     1 GTP        -0.8487
     13 O5'        -2.0401    2.8620    2.3128 O.3       1 GTP        -0.5474
     14 C5'        -0.8811    2.4285    1.6206 C.3       1 GTP         0.2547
     15 C4'        -0.1994    1.3333    2.4288 C.3       1 GTP         0.0926
     16 O4'        -1.1285    0.2356    2.5840 O.3       1 GTP        -0.3593
     17 C3'         1.0324    0.7610    1.7344 C.3       1 GTP         0.0907
     18 O3'         1.9175    0.2377    2.7247 O.3       1 GTP        -0.5209
     19 C2'         0.4468   -0.3802    0.9263 C.3       1 GTP         0.0305
     20 O2'         1.3993   -1.3703    0.5961 O.3       1 GTP        -0.5978
     21 C1'        -0.6159   -0.9100    1.8769 C.3       1 GTP         0.2339
     22 N9         -1.7127   -1.6108    1.2130 N.pl3     1 GTP        -0.1765
     23 C8         -1.7789   -2.9564    0.9503 C.ar      1 GTP         0.4947
     24 N7         -2.8980   -3.2916    0.3377 N.2       1 GTP        -0.5802
     25 C5         -3.5824   -2.1127    0.2000 C.ar      1 GTP         0.2279
     26 C6         -4.8740   -1.9471   -0.4133 C.ar      1 GTP         0.6513
     27 O6         -5.5366   -2.8529   -0.8978 O.2       1 GTP        -0.5111
     28 N1         -5.3036   -0.5645   -0.3916 N.pl3     1 GTP        -0.4713
     29 C2         -4.5545    0.4997    0.1619 C.ar      1 GTP         0.5256
     30 N2         -5.0561    1.7921    0.1348 N.pl3     1 GTP        -0.8665
     31 N3         -3.2977    0.2393    0.7420 N.pl3     1 GTP        -0.5398
     32 C4         -2.8643   -1.0716    0.7336 C.ar      1 GTP        -0.0275
     33 HOG3        0.7015    8.8099   -0.7088 H         1 GTP         0.4161
     34 H5'        -1.1767    2.0502    0.6368 H         1 GTP         0.0348
     35 H5''       -0.2080    3.2814    1.4876 H         1 GTP         0.0348
     36 H4'         0.0403    1.7078    3.4343 H         1 GTP         0.1215
     37 H3'         1.5907    1.4859    1.1353 H         1 GTP         0.0576
     38 HO3'        2.6839   -0.1150    2.2479 H         1 GTP         0.3842
     39 H2'        -0.0017    0.0018    0.0005 H         1 GTP         0.0252
     40 HO2'        2.0953   -0.9375    0.0709 H         1 GTP         0.4224
     41 H1'        -0.1998   -1.6319    2.6178 H         1 GTP         0.0745
     42 H8         -0.9852   -3.6367    1.2276 H         1 GTP         0.1522
     43 HN1        -6.2089   -0.3428   -0.8039 H         1 GTP         0.3518
     44 HN21       -4.4981    2.4933    0.5311 H         1 GTP         0.4761
     45 HN22       -5.9352    1.9183   -0.2793 H         1 GTP         0.4761
     46 H46        -2.7541    1.0010    1.1428 H         1 GTP         0.5030
@<TRIPOS>BOND
     1    1    2 2
     2    1    3 1
     3    1    4 1
     4    1    5 1
     5    4   33 1
     6    5    6 1
     7    6    7 2
     8    6    8 1
     9    6    9 1
    10    9   10 1
    11   10   11 2
    12   10   12 1
    13   10   13 1
    14   13   14 1
    15   14   15 1
    16   14   34 1
    17   14   35 1
    18   15   16 1
    19   15   17 1
    20   15   36 1
    21   16   21 1
    22   17   18 1
    23   17   19 1
    24   17   37 1
    25   18   38 1
    26   19   20 1
    27   19   21 1
    28   19   39 1
    29   20   40 1
    30   21   22 1
    31   21   41 1
    32   22   23 ar
    33   22   32 ar
    34   23   24 ar
    35   23   42 1
    36   24   25 ar
    37   25   26 ar
    38   25   32 ar
    39   26   27 2
    40   26   28 ar
    41   28   29 ar
    42   28   43 1
    43   29   30 1
    44   29   31 ar
    45   30   44 1
    46   30   45 1
    47   31   32 ar
    48   31   46 1
@<TRIPOS>SUBSTRUCTURE
     1 GTP         1 GROUP 0 A     ****
@<TRIPOS>MOLECULE
[[[5-(2-amino-6-oxo-1,3-dihydropurin-2-ylium-9-yl)-3,4-dihydroxy-tetrahydrofuran-2-yl]methoxy-oxido-phosphoryl]oxy-oxido-phosphoryl] hydrogen phosphate
   46    48     1     0     0
SMALL
USER_CHARGES

@<TRIPOS>ATOM
      1 PG          0.5592    7.9659    5.7245 P.3       1 GTP         1.5400
      2 O1G        -0.5217    9.0003    5.5025 O.co2     1 GTP        -0.8909
      3 O2G         0.9133    7.4987    7.1188 O.co2     1 GTP        -0.8909
      4 O3G         1.9237    8.4748    4.9861 O.3       1 GTP        -0.7980
      5 O3B         0.2464    6.6625    4.7933 O.3       1 GTP        -0.7612
      6 PB         -0.9772    5.5850    4.8794 P.3       1 GTP         1.5847
      7 O1B        -0.8508    4.8101    6.1722 O.co2     1 GTP        -0.8859
      8 O2B        -2.2675    6.2717    4.4909 O.co2     1 GTP        -0.8859
      9 O3A        -0.5682    4.6235    3.6252 O.3       1 GTP        -0.7486
     10 PA         -0.3962    4.9846    2.0409 P.3       1 GTP         1.5001
     11 O1A        -1.7409    5.4059    1.4892 O.co2     1 GTP        -0.8487
     12 O2A         0.8270    5.8595    1.8736 O.co2     1 GTP        -0.8487
     13 O5'         0.0178    3.5131    1.4595 O.3       1 GTP        -0.5474
     14 C5'        -0.8811    2.4285    1.6206 C.3       1 GTP         0.2547
     15 C4'        -0.1994    1.3333    2.4288 C.3       1 GTP         0.0926
     16 O4'        -1.1285    0.2356    2.5840 O.3       1 GTP        -0.3593
     17 C3'         1.0324    0.7610    1.7344 C.3       1 GTP         0.0907
     18 O3'         1.9175    0.2377    2.7247 O.3       1 GTP        -0.5209
     19 C2'         0.4468   -0.3802    0.9263 C.3       1 GTP         0.0305
     20 O2'         1.3993   -1.3703    0.5961 O.3       1 GTP        -0.5978
     21 C1'        -0.6159   -0.9100    1.8769 C.3       1 GTP         0.2339
     22 N9         -1.7127   -1.6108    1.2130 N.pl3     1 GTP        -0.1765
     23 C8         -1.6092   -2.7449    0.4467 C.ar      1 GTP         0.4947
     24 N7         -2.7778   -3.1416   -0.0191 N.2       1 GTP        -0.5802
     25 C5         -3.6725   -2.2253    0.4675 C.ar      1 GTP         0.2279
     26 C6         -5.0932   -2.2202    0.2371 C.ar      1 GTP         0.6513
     27 O6         -5.6933   -3.0474   -0.4337 O.2       1 GTP        -0.5111
     28 N1         -5.7390   -1.1061    0.8992 N.pl3     1 GTP        -0.4713
     29 C2         -5.0661   -0.1368    1.6789 C.ar      1 GTP         0.5256
     30 N2         -5.7774    0.8934    2.2749 N.pl3     1 GTP        -0.8665
     31 N3         -3.6705   -0.2251    1.8481 N.pl3     1 GTP        -0.5398
     32 C4         -3.0303   -1.2785    1.2262 C.ar      1 GTP        -0.0275
     33 HOG3        2.7225    7.9080    5.0393 H         1 GTP         0.4161
     34 H5'        -1.7771    2.7849    2.1387 H         1 GTP         0.0348
     35 H5''       -1.1654    2.0541    0.6320 H         1 GTP         0.0348
     36 H4'         0.0403    1.7078    3.4343 H         1 GTP         0.1215
     37 H3'         1.5907    1.4859    1.1353 H         1 GTP         0.0576
     38 HO3'        2.6839   -0.1150    2.2479 H         1 GTP         0.3842
     39 H2'        -0.0017    0.0018    0.0005 H         1 GTP         0.0252
     40 HO2'        2.0953   -0.9375    0.0709 H         1 GTP         0.4224
     41 H1'        -0.1998   -1.6319    2.6178 H         1 GTP         0.0745
     42 H8         -0.6610   -3.2324    0.2653 H         1 GTP         0.1522
     43 HN1        -6.7487   -1.0139    0.7961 H         1 GTP         0.3518
     44 HN21       -5.2644    1.5388    2.8044 H         1 GTP         0.4761
     45 HN22       -6.7459    0.9078    2.1265 H         1 GTP         0.4761
     46 H46        -3.1807    0.4690    2.4089 H         1 GTP         0.5030
@<TRIPOS>BOND
     1    1    2 2
     2    1    3 1
     3    1    4 1
     4    1    5 1
     5    4   33 1
     6    5    6 1
     7    6    7 2
     8    6    8 1
     9    6    9 1
    10    9   10 1
    11   10   11 2
    12   10   12 1
    13   10   13 1
    14   13   14 1
    15   14   15 1
    16   14   34 1
    17   14   35 1
    18   15   16 1
    19   15   17 1
    20   15   36 1
    21   16   21 1
    22   17   18 1
    23   17   19 1
    24   17   37 1
    25   18   38 1
    26   19   20 1
    27   19   21 1
    28   19   39 1
    29   20   40 1
    30   21   22 1
    31   21   41 1
    32   22   23 ar
    33   22   32 ar
    34   23   24 ar
    35   23   42 1
    36   24   25 ar
    37   25   26 ar
    38   25   32 ar
    39   26   27 2
    40   26   28 ar
    41   28   29 ar
    42   28   43 1
    43   29   30 1
    44   29   31 ar
    45   30   44 1
    46   30   45 1
    47   31   32 ar
    48   31   46 1
@<TRIPOS>SUBSTRUCTURE
     1 GTP         1 GROUP 0 A     ****
@<TRIPOS>MOLECULE
[[[5-(2-amino-6-oxo-1,3-dihydropurin-2-ylium-9-yl)-3,4-dihydroxy-tetrahydrofuran-2-yl]methoxy-oxido-phosphoryl]oxy-oxido-phosphoryl] hydrogen phosphate
   46    48     1     0     0
SMALL
USER_CHARGES

@<TRIPOS>ATOM
      1 PG          2.4600    3.9794    5.3626 P.3       1 GTP         1.5400
      2 O1G         2.2524    4.6312    6.7115 O.co2     1 GTP        -0.8909
      3 O2G         1.6603    2.7615    4.9564 O.co2     1 GTP        -0.8909
      4 O3G         4.0474    3.6383    5.1902 O.3       1 GTP        -0.7980
      5 O3B         2.3238    5.1143    4.1976 O.3       1 GTP        -0.7612
      6 PB          1.0195    5.9733    3.7217 P.3       1 GTP         1.5847
      7 O1B         0.4284    6.6664    4.9291 O.co2     1 GTP        -0.8859
      8 O2B         1.3636    6.7350    2.4612 O.co2     1 GTP        -0.8859
      9 O3A         0.0468    4.7431    3.2686 O.3       1 GTP        -0.7486
     10 PA         -1.4709    4.7755    2.6641 P.3       1 GTP         1.5001
     11 O1A        -2.4018    5.3379    3.7164 O.co2     1 GTP        -0.8487
     12 O2A        -1.4241    5.3590    1.2687 O.co2     1 GTP        -0.8487
     13 O5'        -1.7336    3.1724    2.4750 O.3       1 GTP        -0.5474
     14 C5'        -0.8811    2.4285    1.6206 C.3       1 GTP         0.2547
     15 C4'        -0.1994    1.3333    2.4288 C.3       1 GTP         0.0926
     16 O4'        -1.1285    0.2356    2.5840 O.3       1 GTP        -0.3593
     17 C3'         1.0324    0.7610    1.7344 C.3       1 GTP         0.0907
     18 O3'         1.9175    0.2377    2.7247 O.3       1 GTP        -0.5209
     19 C2'         0.4468   -0.3802    0.9263 C.3       1 GTP         0.0305
     20 O2'         1.3993   -1.3703    0.5961 O.3       1 GTP        -0.5978
     21 C1'        -0.6159   -0.9100    1.8769 C.3       1 GTP         0.2339
     22 N9         -1.7127   -1.6108    1.2130 N.pl3     1 GTP        -0.1765
     23 C8         -1.6092   -2.7449    0.4467 C.ar      1 GTP         0.4947
     24 N7         -2.7778   -3.1416   -0.0191 N.2       1 GTP        -0.5802
     25 C5         -3.6725   -2.2253    0.4675 C.ar      1 GTP         0.2279
     26 C6         -5.0932   -2.2202    0.2371 C.ar      1 GTP         0.6513
     27 O6         -5.6933   -3.0474   -0.4337 O.2       1 GTP        -0.5111
     28 N1         -5.7390   -1.1061    0.8992 N.pl3     1 GTP        -0.4713
     29 C2         -5.0661   -0.1368    1.6789 C.ar      1 GTP         0.5256
     30 N2         -5.7774    0.8934    2.2749 N.pl3     1 GTP        -0.8665
     31 N3         -3.6705   -0.2251    1.8481 N.pl3     1 GTP        -0.5398
     32 C4         -3.0303   -1.2785    1.2262 C.ar      1 GTP        -0.0275
     33 HOG3        4.3453    3.2090    4.3600 H         1 GTP         0.4161
     34 H5'        -1.4800    1.9927    0.8146 H         1 GTP         0.0348
     35 H5''       -0.1367    3.1040    1.1872 H         1 GTP         0.0348
     36 H4'         0.0403    1.7078    3.4343 H         1 GTP         0.1215
     37 H3'         1.5907    1.4859    1.1353 H         1 GTP         0.0576
     38 HO3'        2.6839   -0.1150    2.2479 H         1 GTP         0.3842
     39 H2'        -0.0017    0.0018    0.0005 H         1 GTP         0.0252
     40 HO2'        2.0953   -0.9375    0.0709 H         1 GTP         0.4224
     41 H1'        -0.1998   -1.6319    2.6178 H         1 GTP         0.0745
     42 H8         -0.6610   -3.2324    0.2653 H         1 GTP         0.1522
     43 HN1        -6.7487   -1.0139    0.7961 H         1 GTP         0.3518
     44 HN21       -5.2644    1.5388    2.8044 H         1 GTP         0.4761
     45 HN22       -6.7459    0.9078    2.1265 H         1 GTP         0.4761
     46 H46        -3.1807    0.4690    2.4089 H         1 GTP         0.5030
@<TRIPOS>BOND
     1    1    2 2
     2    1    3 1
     3    1    4 1
     4    1    5 1
     5    4   33 1
     6    5    6 1
     7    6    7 2
     8    6    8 1
     9    6    9 1
    10    9   10 1
    11   10   11 2
    12   10   12 1
    13   10   13 1
    14   13   14 1
    15   14   15 1
    16   14   34 1
    17   14   35 1
    18   15   16 1
    19   15   17 1
    20   15   36 1
    21   16   21 1
    22   17   18 1
    23   17   19 1
    24   17   37 1
    25   18   38 1
    26   19   20 1
    27   19   21 1
    28   19   39 1
    29   20   40 1
    30   21   22 1
    31   21   41 1
    32   22   23 ar
    33   22   32 ar
    34   23   24 ar
    35   23   42 1
    36   24   25 ar
    37   25   26 ar
    38   25   32 ar
    39   26   27 2
    40   26   28 ar
    41   28   29 ar
    42   28   43 1
    43   29   30 1
    44   29   31 ar
    45   30   44 1
    46   30   45 1
    47   31   32 ar
    48   31   46 1
@<TRIPOS>SUBSTRUCTURE
     1 GTP         1 GROUP 0 A     ****
@<TRIPOS>MOLECULE
[[[5-(2-amino-6-oxo-1,3-dihydropurin-2-ylium-9-yl)-3,4-dihydroxy-tetrahydrofuran-2-yl]methoxy-oxido-phosphoryl]oxy-oxido-phosphoryl] hydrogen phosphate
   46    48     1     0     0
SMALL
USER_CHARGES

@<TRIPOS>ATOM
      1 PG         10.4352    1.4574    0.1978 P.3       1 GTP         1.5400
      2 O1G        10.6926    2.8751   -0.2619 O.co2     1 GTP        -0.8909
      3 O2G        10.9212    0.9777    1.5474 O.co2     1 GTP        -0.8909
      4 O3G        10.9882    0.4325   -0.9466 O.3       1 GTP        -0.7980
      5 O3B         8.8403    1.1374    0.0656 O.3       1 GTP        -0.7612
      6 PB          8.0344   -0.2669    0.2752 P.3       1 GTP         1.5847
      7 O1B         8.4648   -1.2383   -0.8011 O.co2     1 GTP        -0.8859
      8 O2B         8.0694   -0.6418    1.7401 O.co2     1 GTP        -0.8859
      9 O3A         6.5180    0.2527   -0.0338 O.3       1 GTP        -0.7486
     10 PA          5.8979    0.9309   -1.3848 P.3       1 GTP         1.5001
     11 O1A         6.5752    2.2645   -1.6146 O.co2     1 GTP        -0.8487
     12 O2A         5.8467   -0.1185   -2.4739 O.co2     1 GTP        -0.8487
     13 O5'         4.3516    1.1575   -0.9026 O.3       1 GTP        -0.5474
     14 C5'         4.0922    1.9801    0.2227 C.3       1 GTP         0.2547
     15 C4'         2.5944    2.0310    0.4653 C.3       1 GTP         0.0926
     16 O4'         1.9327    2.5740   -0.6889 O.3       1 GTP        -0.3593
     17 C3'         1.9685    0.6634    0.6767 C.3       1 GTP         0.0907
     18 O3'         2.1425    0.1975    1.9977 O.3       1 GTP        -0.5209
     19 C2'         0.5176    0.9128    0.3099 C.3       1 GTP         0.0305
     20 O2'        -0.2103    1.4454    1.4152 O.3       1 GTP        -0.5978
     21 C1'         0.6219    1.9765   -0.7844 C.3       1 GTP         0.2339
     22 N9          0.4237    1.4496   -2.1357 N.pl3     1 GTP        -0.1765
     23 C8          1.3988    0.9691   -2.9736 C.ar      1 GTP         0.4947
     24 N7          0.9092    0.5634   -4.1293 N.2       1 GTP        -0.5802
     25 C5         -0.4383    0.7914   -4.0325 C.ar      1 GTP         0.2279
     26 C6         -1.4217    0.5138   -5.0461 C.ar      1 GTP         0.6513
     27 O6         -1.1759    0.0306   -6.1417 O.2       1 GTP        -0.5111
     28 N1         -2.7543    0.8794   -4.6134 N.pl3     1 GTP        -0.4713
     29 C2         -3.0626    1.4402   -3.3523 C.ar      1 GTP         0.5256
     30 N2         -4.3747    1.7544   -3.0321 N.pl3     1 GTP        -0.8665
     31 N3         -2.0304    1.6759   -2.4233 N.pl3     1 GTP        -0.5398
     32 C4         -0.7497    1.3366   -2.8118 C.ar      1 GTP        -0.0275
     33 HOG3       10.8936   -0.5320   -0.7947 H         1 GTP         0.4161
     34 H5'         4.6069    1.5618    1.0936 H         1 GTP         0.0348
     35 H5''        4.4824    2.9837    0.0254 H         1 GTP         0.0348
     36 H4'         2.3752    2.7029    1.3156 H         1 GTP         0.1215
     37 H3'         2.4336   -0.1217   -0.0015 H         1 GTP         0.0576
     38 HO3'        1.7160   -0.6716    2.0397 H         1 GTP         0.3842
     39 H2'         0.0316    0.0155   -0.0339 H         1 GTP         0.0252
     40 HO2'       -0.1608    0.7921    2.1351 H         1 GTP         0.4224
     41 H1'        -0.1474    2.7798   -0.6651 H         1 GTP         0.0745
     42 H8          2.4413    0.9409   -2.6872 H         1 GTP         0.1522
     43 HN1        -3.5236    0.7214   -5.2629 H         1 GTP         0.3518
     44 HN21       -4.5350    2.1409   -2.1461 H         1 GTP         0.4761
     45 HN22       -5.0542    1.5695   -3.7134 H         1 GTP         0.4761
     46 H46        -2.2462    2.0786   -1.5136 H         1 GTP         0.5030
@<TRIPOS>BOND
     1    1    2 2
     2    1    3 1
     3    1    4 1
     4    1    5 1
     5    4   33 1
     6    5    6 1
     7    6    7 2
     8    6    8 1
     9    6    9 1
    10    9   10 1
    11   10   11 2
    12   10   12 1
    13   10   13 1
    14   13   14 1
    15   14   15 1
    16   14   34 1
    17   14   35 1
    18   15   16 1
    19   15   17 1
    20   15   36 1
    21   16   21 1
    22   17   18 1
    23   17   19 1
    24   17   37 1
    25   18   38 1
    26   19   20 1
    27   19   21 1
    28   19   39 1
    29   20   40 1
    30   21   22 1
    31   21   41 1
    32   22   23 ar
    33   22   32 ar
    34   23   24 ar
    35   23   42 1
    36   24   25 ar
    37   25   26 ar
    38   25   32 ar
    39   26   27 2
    40   26   28 ar
    41   28   29 ar
    42   28   43 1
    43   29   30 1
    44   29   31 ar
    45   30   44 1
    46   30   45 1
    47   31   32 ar
    48   31   46 1
@<TRIPOS>SUBSTRUCTURE
     1 GTP         1 GROUP 0 A     ****
@<TRIPOS>MOLECULE
[[[5-(2-amino-6-oxo-1,3-dihydropurin-2-ylium-9-yl)-3,4-dihydroxy-tetrahydrofuran-2-yl]methoxy-oxido-phosphoryl]oxy-oxido-phosphoryl] hydrogen phosphate
   46    48     1     0     0
SMALL
USER_CHARGES

@<TRIPOS>ATOM
      1 PG          2.1506    5.7272    6.2810 P.3       1 GTP         1.5400
      2 O1G         3.0570    4.6155    6.7605 O.co2     1 GTP        -0.8909
      3 O2G         2.7219    6.9839    5.6629 O.co2     1 GTP        -0.8909
      4 O3G         1.1620    6.1559    7.5077 O.3       1 GTP        -0.7980
      5 O3B         1.0322    5.1018    5.2700 O.3       1 GTP        -0.7612
      6 PB         -0.2716    5.8082    4.5869 P.3       1 GTP         1.5847
      7 O1B        -1.2533    6.1725    5.6783 O.co2     1 GTP        -0.8859
      8 O2B         0.1949    6.8256    3.5697 O.co2     1 GTP        -0.8859
      9 O3A        -0.8451    4.5359    3.7400 O.3       1 GTP        -0.7486
     10 PA         -2.1561    4.4278    2.7707 P.3       1 GTP         1.5001
     11 O1A        -3.3990    4.6374    3.6082 O.co2     1 GTP        -0.8487
     12 O2A        -1.9055    5.2477    1.5239 O.co2     1 GTP        -0.8487
     13 O5'        -2.0401    2.8620    2.3128 O.3       1 GTP        -0.5474
     14 C5'        -0.8811    2.4285    1.6206 C.3       1 GTP         0.2547
     15 C4'        -0.1994    1.3333    2.4288 C.3       1 GTP         0.0926
     16 O4'        -1.1285    0.2356    2.5840 O.3       1 GTP        -0.3593
     17 C3'         1.0324    0.7610    1.7344 C.3       1 GTP         0.0907
     18 O3'         1.9175    0.2377    2.7247 O.3       1 GTP        -0.5209
     19 C2'         0.4468   -0.3802    0.9263 C.3       1 GTP         0.0305
     20 O2'         1.3993   -1.3703    0.5961 O.3       1 GTP        -0.5978
     21 C1'        -0.6159   -0.9100    1.8769 C.3       1 GTP         0.2339
     22 N9         -1.7127   -1.6108    1.2130 N.pl3     1 GTP        -0.1765
     23 C8         -3.0389   -1.2578    1.2391 C.ar      1 GTP         0.4947
     24 N7         -3.7909   -2.0880    0.5425 N.2       1 GTP        -0.5802
     25 C5         -2.9127   -3.0150    0.0458 C.ar      1 GTP         0.2279
     26 C6         -3.2467   -4.1411   -0.7860 C.ar      1 GTP         0.6513
     27 O6         -4.3761   -4.4189   -1.1621 O.2       1 GTP        -0.5111
     28 N1         -2.0748   -4.9191   -1.1296 N.pl3     1 GTP        -0.4713
     29 C2         -0.7595   -4.6181   -0.7058 C.ar      1 GTP         0.5256
     30 N2          0.2985   -5.4268   -1.0920 N.pl3     1 GTP        -0.8665
     31 N3         -0.5304   -3.4919    0.1084 N.pl3     1 GTP        -0.5398
     32 C4         -1.6318   -2.7332    0.4512 C.ar      1 GTP        -0.0275
     33 HOG3        0.5090    6.8714    7.3528 H         1 GTP         0.4161
     34 H5'        -1.1767    2.0502    0.6368 H         1 GTP         0.0348
     35 H5''       -0.2080    3.2814    1.4876 H         1 GTP         0.0348
     36 H4'         0.0403    1.7078    3.4343 H         1 GTP         0.1215
     37 H3'         1.5907    1.4859    1.1353 H         1 GTP         0.0576
     38 HO3'        2.6839   -0.1150    2.2479 H         1 GTP         0.3842
     39 H2'        -0.0017    0.0018    0.0005 H         1 GTP         0.0252
     40 HO2'        2.0953   -0.9375    0.0709 H         1 GTP         0.4224
     41 H1'        -0.1998   -1.6319    2.6178 H         1 GTP         0.0745
     42 H8         -3.3933   -0.3909    1.7800 H         1 GTP         0.1522
     43 HN1        -2.2071   -5.7408   -1.7178 H         1 GTP         0.3518
     44 HN21        1.1896   -5.1751   -0.7715 H         1 GTP         0.4761
     45 HN22        0.0846   -6.1966   -1.6593 H         1 GTP         0.4761
     46 H46         0.4142   -3.2695    0.4160 H         1 GTP         0.5030
@<TRIPOS>BOND
     1    1    2 2
     2    1    3 1
     3    1    4 1
     4    1    5 1
     5    4   33 1
     6    5    6 1
     7    6    7 2
     8    6    8 1
     9    6    9 1
    10    9   10 1
    11   10   11 2
    12   10   12 1
    13   10   13 1
    14   13   14 1
    15   14   15 1
    16   14   34 1
    17   14   35 1
    18   15   16 1
    19   15   17 1
    20   15   36 1
    21   16   21 1
    22   17   18 1
    23   17   19 1
    24   17   37 1
    25   18   38 1
    26   19   20 1
    27   19   21 1
    28   19   39 1
    29   20   40 1
    30   21   22 1
    31   21   41 1
    32   22   23 ar
    33   22   32 ar
    34   23   24 ar
    35   23   42 1
    36   24   25 ar
    37   25   26 ar
    38   25   32 ar
    39   26   27 2
    40   26   28 ar
    41   28   29 ar
    42   28   43 1
    43   29   30 1
    44   29   31 ar
    45   30   44 1
    46   30   45 1
    47   31   32 ar
    48   31   46 1
@<TRIPOS>SUBSTRUCTURE
     1 GTP         1 GROUP 0 A     ****
@<TRIPOS>MOLECULE
[[[5-(2-amino-6-oxo-1,3-dihydropurin-2-ylium-9-yl)-3,4-dihydroxy-tetrahydrofuran-2-yl]methoxy-oxido-phosphoryl]oxy-oxido-phosphoryl] hydrogen phosphate
   46    48     1     0     0
SMALL
USER_CHARGES

@<TRIPOS>ATOM
      1 PG         -5.5383    6.3202   -0.2957 P.3       1 GTP         1.5400
      2 O1G        -5.1155    7.7145    0.1097 O.co2     1 GTP        -0.8909
      3 O2G        -6.3021    6.0819   -1.5793 O.co2     1 GTP        -0.8909
      4 O3G        -6.3755    5.6530    0.9371 O.3       1 GTP        -0.7980
      5 O3B        -4.2337    5.3400   -0.2668 O.3       1 GTP        -0.7612
      6 PB         -2.9005    5.3451   -1.2092 P.3       1 GTP         1.5847
      7 O1B        -3.3063    5.0012   -2.6250 O.co2     1 GTP        -0.8859
      8 O2B        -2.0809    6.5775   -0.8977 O.co2     1 GTP        -0.8859
      9 O3A        -2.1069    4.0814   -0.5472 O.3       1 GTP        -0.7486
     10 PA         -2.5569    2.5166   -0.4115 P.3       1 GTP         1.5001
     11 O1A        -3.7696    2.4355    0.4902 O.co2     1 GTP        -0.8487
     12 O2A        -2.5642    1.8933   -1.7903 O.co2     1 GTP        -0.8487
     13 O5'        -1.2434    1.9104    0.3515 O.3       1 GTP        -0.5474
     14 C5'        -0.8811    2.4285    1.6206 C.3       1 GTP         0.2547
     15 C4'        -0.1994    1.3333    2.4288 C.3       1 GTP         0.0926
     16 O4'        -1.1285    0.2356    2.5840 O.3       1 GTP        -0.3593
     17 C3'         1.0324    0.7610    1.7344 C.3       1 GTP         0.0907
     18 O3'         1.9175    0.2377    2.7247 O.3       1 GTP        -0.5209
     19 C2'         0.4468   -0.3802    0.9263 C.3       1 GTP         0.0305
     20 O2'         1.3993   -1.3703    0.5961 O.3       1 GTP        -0.5978
     21 C1'        -0.6159   -0.9100    1.8769 C.3       1 GTP         0.2339
     22 N9         -1.7127   -1.6108    1.2130 N.pl3     1 GTP        -0.1765
     23 C8         -2.8692   -1.0463    0.7355 C.ar      1 GTP         0.4947
     24 N7         -3.6707   -1.9381    0.1856 N.2       1 GTP        -0.5802
     25 C5         -3.0027   -3.1275    0.3134 C.ar      1 GTP         0.2279
     26 C6         -3.4659   -4.4142   -0.1355 C.ar      1 GTP         0.6513
     27 O6         -4.5328   -4.6133   -0.6980 O.2       1 GTP        -0.5111
     28 N1         -2.5102   -5.4606    0.1612 N.pl3     1 GTP        -0.4713
     29 C2         -1.2711   -5.2547    0.8113 C.ar      1 GTP         0.5256
     30 N2         -0.4228   -6.3256    1.0482 N.pl3     1 GTP        -0.8665
     31 N3         -0.9033   -3.9563    1.2146 N.pl3     1 GTP        -0.5398
     32 C4         -1.7979   -2.9400    0.9438 C.ar      1 GTP        -0.0275
     33 HOG3       -6.7211    4.7415    0.8275 H         1 GTP         0.4161
     34 H5'        -0.2033    3.2760    1.4769 H         1 GTP         0.0348
     35 H5''       -1.7841    2.7762    2.1323 H         1 GTP         0.0348
     36 H4'         0.0403    1.7078    3.4343 H         1 GTP         0.1215
     37 H3'         1.5907    1.4859    1.1353 H         1 GTP         0.0576
     38 HO3'        2.6839   -0.1150    2.2479 H         1 GTP         0.3842
     39 H2'        -0.0017    0.0018    0.0005 H         1 GTP         0.0252
     40 HO2'        2.0953   -0.9375    0.0709 H         1 GTP         0.4224
     41 H1'        -0.1998   -1.6319    2.6178 H         1 GTP         0.0745
     42 H8         -3.0691    0.0134    0.8177 H         1 GTP         0.1522
     43 HN1        -2.7468   -6.4119   -0.1177 H         1 GTP         0.3518
     44 HN21        0.4233   -6.1297    1.5018 H         1 GTP         0.4761
     45 HN22       -0.7261   -7.2071    0.7466 H         1 GTP         0.4761
     46 H46        -0.0124   -3.8015    1.6821 H         1 GTP         0.5030
@<TRIPOS>BOND
     1    1    2 2
     2    1    3 1
     3    1    4 1
     4    1    5 1
     5    4   33 1
     6    5    6 1
     7    6    7 2
     8    6    8 1
     9    6    9 1
    10    9   10 1
    11   10   11 2
    12   10   12 1
    13   10   13 1
    14   13   14 1
    15   14   15 1
    16   14   34 1
    17   14   35 1
    18   15   16 1
    19   15   17 1
    20   15   36 1
    21   16   21 1
    22   17   18 1
    23   17   19 1
    24   17   37 1
    25   18   38 1
    26   19   20 1
    27   19   21 1
    28   19   39 1
    29   20   40 1
    30   21   22 1
    31   21   41 1
    32   22   23 ar
    33   22   32 ar
    34   23   24 ar
    35   23   42 1
    36   24   25 ar
    37   25   26 ar
    38   25   32 ar
    39   26   27 2
    40   26   28 ar
    41   28   29 ar
    42   28   43 1
    43   29   30 1
    44   29   31 ar
    45   30   44 1
    46   30   45 1
    47   31   32 ar
    48   31   46 1
@<TRIPOS>SUBSTRUCTURE
     1 GTP         1 GROUP 0 A     ****
@<TRIPOS>MOLECULE
[[[5-(2-amino-6-oxo-1,3-dihydropurin-2-ylium-9-yl)-3,4-dihydroxy-tetrahydrofuran-2-yl]methoxy-oxido-phosphoryl]oxy-oxido-phosphoryl] hydrogen phosphate
   46    48     1     0     0
SMALL
USER_CHARGES

@<TRIPOS>ATOM
      1 PG          7.3181   -0.4576    2.8113 P.3       1 GTP         1.5400
      2 O1G         6.0304   -1.0371    3.3529 O.co2     1 GTP        -0.8909
      3 O2G         7.6311   -0.5068    1.3323 O.co2     1 GTP        -0.8909
      4 O3G         8.5681   -1.1182    3.6280 O.3       1 GTP        -0.7980
      5 O3B         7.4687    1.0816    3.3329 O.3       1 GTP        -0.7612
      6 PB          6.5767    2.4004    2.9716 P.3       1 GTP         1.5847
      7 O1B         5.1230    2.0955    3.2568 O.co2     1 GTP        -0.8859
      8 O2B         7.2552    3.6261    3.5415 O.co2     1 GTP        -0.8859
      9 O3A         6.8179    2.4457    1.3577 O.3       1 GTP        -0.7486
     10 PA          6.2486    3.4952    0.2423 P.3       1 GTP         1.5001
     11 O1A         6.6342    4.8994    0.6541 O.co2     1 GTP        -0.8487
     12 O2A         6.5806    2.9650   -1.1355 O.co2     1 GTP        -0.8487
     13 O5'         4.6405    3.2699    0.4378 O.3       1 GTP        -0.5474
     14 C5'         4.0922    1.9801    0.2227 C.3       1 GTP         0.2547
     15 C4'         2.5944    2.0310    0.4653 C.3       1 GTP         0.0926
     16 O4'         1.9327    2.5740   -0.6889 O.3       1 GTP        -0.3593
     17 C3'         1.9685    0.6634    0.6767 C.3       1 GTP         0.0907
     18 O3'         2.1425    0.1975    1.9977 O.3       1 GTP        -0.5209
     19 C2'         0.5176    0.9128    0.3099 C.3       1 GTP         0.0305
     20 O2'        -0.2103    1.4454    1.4152 O.3       1 GTP        -0.5978
     21 C1'         0.6219    1.9765   -0.7844 C.3       1 GTP         0.2339
     22 N9          0.4237    1.4496   -2.1357 N.pl3     1 GTP        -0.1765
     23 C8          1.3988    0.9691   -2.9736 C.ar      1 GTP         0.4947
     24 N7          0.9092    0.5634   -4.1293 N.2       1 GTP        -0.5802
     25 C5         -0.4383    0.7914   -4.0325 C.ar      1 GTP         0.2279
     26 C6         -1.4217    0.5138   -5.0461 C.ar      1 GTP         0.6513
     27 O6         -1.1759    0.0306   -6.1417 O.2       1 GTP        -0.5111
     28 N1         -2.7543    0.8794   -4.6134 N.pl3     1 GTP        -0.4713
     29 C2         -3.0626    1.4402   -3.3523 C.ar      1 GTP         0.5256
     30 N2         -4.3747    1.7544   -3.0321 N.pl3     1 GTP        -0.8665
     31 N3         -2.0304    1.6759   -2.4233 N.pl3     1 GTP        -0.5398
     32 C4         -0.7497    1.3366   -2.8118 C.ar      1 GTP        -0.0275
     33 HOG3        9.4790   -0.8416    3.3911 H         1 GTP         0.4161
     34 H5'         4.3028    1.6728   -0.8066 H         1 GTP         0.0348
     35 H5''        4.5677    1.2738    0.9106 H         1 GTP         0.0348
     36 H4'         2.3752    2.7029    1.3156 H         1 GTP         0.1215
     37 H3'         2.4336   -0.1217   -0.0015 H         1 GTP         0.0576
     38 HO3'        1.7160   -0.6716    2.0397 H         1 GTP         0.3842
     39 H2'         0.0316    0.0155   -0.0339 H         1 GTP         0.0252
     40 HO2'       -0.1608    0.7921    2.1351 H         1 GTP         0.4224
     41 H1'        -0.1474    2.7798   -0.6651 H         1 GTP         0.0745
     42 H8          2.4413    0.9409   -2.6872 H         1 GTP         0.1522
     43 HN1        -3.5236    0.7214   -5.2629 H         1 GTP         0.3518
     44 HN21       -4.5350    2.1409   -2.1461 H         1 GTP         0.4761
     45 HN22       -5.0542    1.5695   -3.7134 H         1 GTP         0.4761
     46 H46        -2.2462    2.0786   -1.5136 H         1 GTP         0.5030
@<TRIPOS>BOND
     1    1    2 2
     2    1    3 1
     3    1    4 1
     4    1    5 1
     5    4   33 1
     6    5    6 1
     7    6    7 2
     8    6    8 1
     9    6    9 1
    10    9   10 1
    11   10   11 2
    12   10   12 1
    13   10   13 1
    14   13   14 1
    15   14   15 1
    16   14   34 1
    17   14   35 1
    18   15   16 1
    19   15   17 1
    20   15   36 1
    21   16   21 1
    22   17   18 1
    23   17   19 1
    24   17   37 1
    25   18   38 1
    26   19   20 1
    27   19   21 1
    28   19   39 1
    29   20   40 1
    30   21   22 1
    31   21   41 1
    32   22   23 ar
    33   22   32 ar
    34   23   24 ar
    35   23   42 1
    36   24   25 ar
    37   25   26 ar
    38   25   32 ar
    39   26   27 2
    40   26   28 ar
    41   28   29 ar
    42   28   43 1
    43   29   30 1
    44   29   31 ar
    45   30   44 1
    46   30   45 1
    47   31   32 ar
    48   31   46 1
@<TRIPOS>SUBSTRUCTURE
     1 GTP         1 GROUP 0 A     ****
@<TRIPOS>MOLECULE
[[[5-(2-amino-6-oxo-1,3-dihydropurin-2-ylium-9-yl)-3,4-dihydroxy-tetrahydrofuran-2-yl]methoxy-oxido-phosphoryl]oxy-oxido-phosphoryl] hydrogen phosphate
   46    48     1     0     0
SMALL
USER_CHARGES

@<TRIPOS>ATOM
      1 PG         -5.0270    7.1455    3.1542 P.3       1 GTP         1.5400
      2 O1G        -4.5672    8.5114    3.6130 O.co2     1 GTP        -0.8909
      3 O2G        -6.1456    6.9999    2.1466 O.co2     1 GTP        -0.8909
      4 O3G        -5.3958    6.2530    4.4708 O.3       1 GTP        -0.7980
      5 O3B        -3.7335    6.2963    2.6350 O.3       1 GTP        -0.7612
      6 PB         -2.7700    6.5451    1.3406 P.3       1 GTP         1.5847
      7 O1B        -3.5862    6.3453    0.0831 O.co2     1 GTP        -0.8859
      8 O2B        -1.9562    7.8000    1.5654 O.co2     1 GTP        -0.8859
      9 O3A        -1.7457    5.2883    1.5313 O.3       1 GTP        -0.7486
     10 PA         -0.4665    4.8322    0.6228 P.3       1 GTP         1.5001
     11 O1A        -0.9631    4.4288   -0.7487 O.co2     1 GTP        -0.8487
     12 O2A         0.6338    5.8580    0.7859 O.co2     1 GTP        -0.8487
     13 O5'         0.0178    3.5131    1.4595 O.3       1 GTP        -0.5474
     14 C5'        -0.8811    2.4285    1.6206 C.3       1 GTP         0.2547
     15 C4'        -0.1994    1.3333    2.4288 C.3       1 GTP         0.0926
     16 O4'        -1.1285    0.2356    2.5840 O.3       1 GTP        -0.3593
     17 C3'         1.0324    0.7610    1.7344 C.3       1 GTP         0.0907
     18 O3'         1.9175    0.2377    2.7247 O.3       1 GTP        -0.5209
     19 C2'         0.4468   -0.3802    0.9263 C.3       1 GTP         0.0305
     20 O2'         1.3993   -1.3703    0.5961 O.3       1 GTP        -0.5978
     21 C1'        -0.6159   -0.9100    1.8769 C.3       1 GTP         0.2339
     22 N9         -1.7127   -1.6108    1.2130 N.pl3     1 GTP        -0.1765
     23 C8         -1.6311   -2.3341    0.0493 C.ar      1 GTP         0.4947
     24 N7         -2.7933   -2.8506   -0.3007 N.2       1 GTP        -0.5802
     25 C5         -3.6607   -2.4436    0.6786 C.ar      1 GTP         0.2279
     26 C6         -5.0651   -2.7506    0.7505 C.ar      1 GTP         0.6513
     27 O6         -5.6735   -3.4256   -0.0671 O.2       1 GTP        -0.5111
     28 N1         -5.6834   -2.1585    1.9182 N.pl3     1 GTP        -0.4713
     29 C2         -5.0007   -1.3738    2.8765 C.ar      1 GTP         0.5256
     30 N2         -5.6847   -0.8521    3.9640 N.pl3     1 GTP        -0.8665
     31 N3         -3.6227   -1.1271    2.7212 N.pl3     1 GTP        -0.5398
     32 C4         -3.0090   -1.6802    1.6149 C.ar      1 GTP        -0.0275
     33 HOG3       -5.7125    5.3341    4.3382 H         1 GTP         0.4161
     34 H5'        -1.7771    2.7849    2.1387 H         1 GTP         0.0348
     35 H5''       -1.1654    2.0541    0.6320 H         1 GTP         0.0348
     36 H4'         0.0403    1.7078    3.4343 H         1 GTP         0.1215
     37 H3'         1.5907    1.4859    1.1353 H         1 GTP         0.0576
     38 HO3'        2.6839   -0.1150    2.2479 H         1 GTP         0.3842
     39 H2'        -0.0017    0.0018    0.0005 H         1 GTP         0.0252
     40 HO2'        2.0953   -0.9375    0.0709 H         1 GTP         0.4224
     41 H1'        -0.1998   -1.6319    2.6178 H         1 GTP         0.0745
     42 H8         -0.7029   -2.4474   -0.4941 H         1 GTP         0.1522
     43 HN1        -6.6800   -2.3183    2.0594 H         1 GTP         0.3518
     44 HN21       -5.1660   -0.3153    4.5987 H         1 GTP         0.4761
     45 HN22       -6.6415   -1.0545    4.0252 H         1 GTP         0.4761
     46 H46        -3.1256   -0.5638    3.4080 H         1 GTP         0.5030
@<TRIPOS>BOND
     1    1    2 2
     2    1    3 1
     3    1    4 1
     4    1    5 1
     5    4   33 1
     6    5    6 1
     7    6    7 2
     8    6    8 1
     9    6    9 1
    10    9   10 1
    11   10   11 2
    12   10   12 1
    13   10   13 1
    14   13   14 1
    15   14   15 1
    16   14   34 1
    17   14   35 1
    18   15   16 1
    19   15   17 1
    20   15   36 1
    21   16   21 1
    22   17   18 1
    23   17   19 1
    24   17   37 1
    25   18   38 1
    26   19   20 1
    27   19   21 1
    28   19   39 1
    29   20   40 1
    30   21   22 1
    31   21   41 1
    32   22   23 ar
    33   22   32 ar
    34   23   24 ar
    35   23   42 1
    36   24   25 ar
    37   25   26 ar
    38   25   32 ar
    39   26   27 2
    40   26   28 ar
    41   28   29 ar
    42   28   43 1
    43   29   30 1
    44   29   31 ar
    45   30   44 1
    46   30   45 1
    47   31   32 ar
    48   31   46 1
@<TRIPOS>SUBSTRUCTURE
     1 GTP         1 GROUP 0 A     ****
@<TRIPOS>MOLECULE
[[[5-(2-amino-6-oxo-1,3-dihydropurin-2-ylium-9-yl)-3,4-dihydroxy-tetrahydrofuran-2-yl]methoxy-oxido-phosphoryl]oxy-oxido-phosphoryl] hydrogen phosphate
   46    48     1     0     0
SMALL
USER_CHARGES

@<TRIPOS>ATOM
      1 PG          9.2663    1.1799   -0.1766 P.3       1 GTP         1.5400
      2 O1G        10.4455    2.1256   -0.2271 O.co2     1 GTP        -0.8909
      3 O2G         8.1957    1.3283    0.8815 O.co2     1 GTP        -0.8909
      4 O3G         9.8311   -0.3514   -0.1312 O.3       1 GTP        -0.7980
      5 O3B         8.5560    1.1374   -1.6454 O.3       1 GTP        -0.7612
      6 PB          7.7456    2.3045   -2.4495 P.3       1 GTP         1.5847
      7 O1B         8.6271    3.5298   -2.5439 O.co2     1 GTP        -0.8859
      8 O2B         7.0964    1.6999   -3.6744 O.co2     1 GTP        -0.8859
      9 O3A         6.5460    2.5771   -1.3764 O.3       1 GTP        -0.7486
     10 PA          5.2953    3.6262   -1.4472 P.3       1 GTP         1.5001
     11 O1A         5.8426    5.0371   -1.4390 O.co2     1 GTP        -0.8487
     12 O2A         4.3369    3.1652   -2.5236 O.co2     1 GTP        -0.8487
     13 O5'         4.5670    3.2937   -0.0211 O.3       1 GTP        -0.5474
     14 C5'         4.0922    1.9801    0.2227 C.3       1 GTP         0.2547
     15 C4'         2.5944    2.0310    0.4653 C.3       1 GTP         0.0926
     16 O4'         1.9327    2.5740   -0.6889 O.3       1 GTP        -0.3593
     17 C3'         1.9685    0.6634    0.6767 C.3       1 GTP         0.0907
     18 O3'         2.1425    0.1975    1.9977 O.3       1 GTP        -0.5209
     19 C2'         0.5176    0.9128    0.3099 C.3       1 GTP         0.0305
     20 O2'        -0.2103    1.4454    1.4152 O.3       1 GTP        -0.5978
     21 C1'         0.6219    1.9765   -0.7844 C.3       1 GTP         0.2339
     22 N9          0.4237    1.4496   -2.1357 N.pl3     1 GTP        -0.1765
     23 C8          1.3988    0.9691   -2.9736 C.ar      1 GTP         0.4947
     24 N7          0.9092    0.5634   -4.1293 N.2       1 GTP        -0.5802
     25 C5         -0.4383    0.7914   -4.0325 C.ar      1 GTP         0.2279
     26 C6         -1.4217    0.5138   -5.0461 C.ar      1 GTP         0.6513
     27 O6         -1.1759    0.0306   -6.1417 O.2       1 GTP        -0.5111
     28 N1         -2.7543    0.8794   -4.6134 N.pl3     1 GTP        -0.4713
     29 C2         -3.0626    1.4402   -3.3523 C.ar      1 GTP         0.5256
     30 N2         -4.3747    1.7544   -3.0321 N.pl3     1 GTP        -0.8665
     31 N3         -2.0304    1.6759   -2.4233 N.pl3     1 GTP        -0.5398
     32 C4         -0.7497    1.3366   -2.8118 C.ar      1 GTP        -0.0275
     33 HOG3        9.1832   -1.0872   -0.0959 H         1 GTP         0.4161
     34 H5'         4.3179    1.3548   -0.6470 H         1 GTP         0.0348
     35 H5''        4.6083    1.5737    1.0983 H         1 GTP         0.0348
     36 H4'         2.3752    2.7029    1.3156 H         1 GTP         0.1215
     37 H3'         2.4336   -0.1217   -0.0015 H         1 GTP         0.0576
     38 HO3'        1.7160   -0.6716    2.0397 H         1 GTP         0.3842
     39 H2'         0.0316    0.0155   -0.0339 H         1 GTP         0.0252
     40 HO2'       -0.1608    0.7921    2.1351 H         1 GTP         0.4224
     41 H1'        -0.1474    2.7798   -0.6651 H         1 GTP         0.0745
     42 H8          2.4413    0.9409   -2.6872 H         1 GTP         0.1522
     43 HN1        -3.5236    0.7214   -5.2629 H         1 GTP         0.3518
     44 HN21       -4.5350    2.1409   -2.1461 H         1 GTP         0.4761
     45 HN22       -5.0542    1.5695   -3.7134 H         1 GTP         0.4761
     46 H46        -2.2462    2.0786   -1.5136 H         1 GTP         0.5030
@<TRIPOS>BOND
     1    1    2 2
     2    1    3 1
     3    1    4 1
     4    1    5 1
     5    4   33 1
     6    5    6 1
     7    6    7 2
     8    6    8 1
     9    6    9 1
    10    9   10 1
    11   10   11 2
    12   10   12 1
    13   10   13 1
    14   13   14 1
    15   14   15 1
    16   14   34 1
    17   14   35 1
    18   15   16 1
    19   15   17 1
    20   15   36 1
    21   16   21 1
    22   17   18 1
    23   17   19 1
    24   17   37 1
    25   18   38 1
    26   19   20 1
    27   19   21 1
    28   19   39 1
    29   20   40 1
    30   21   22 1
    31   21   41 1
    32   22   23 ar
    33   22   32 ar
    34   23   24 ar
    35   23   42 1
    36   24   25 ar
    37   25   26 ar
    38   25   32 ar
    39   26   27 2
    40   26   28 ar
    41   28   29 ar
    42   28   43 1
    43   29   30 1
    44   29   31 ar
    45   30   44 1
    46   30   45 1
    47   31   32 ar
    48   31   46 1
@<TRIPOS>SUBSTRUCTURE
     1 GTP         1 GROUP 0 A     ****
@<TRIPOS>MOLECULE
[[[5-(2-amino-6-oxo-1,3-dihydropurin-2-ylium-9-yl)-3,4-dihydroxy-tetrahydrofuran-2-yl]methoxy-oxido-phosphoryl]oxy-oxido-phosphoryl] hydrogen phosphate
   46    48     1     0     0
SMALL
USER_CHARGES

@<TRIPOS>ATOM
      1 PG          0.9664    8.3113   -0.3211 P.3       1 GTP         1.5400
      2 O1G         0.4915    9.5987    0.3149 O.co2     1 GTP        -0.8909
      3 O2G         2.4403    7.9810   -0.4001 O.co2     1 GTP        -0.8909
      4 O3G         0.3310    8.2088   -1.8216 O.3       1 GTP        -0.7980
      5 O3B         0.1794    7.0574    0.3661 O.3       1 GTP        -0.7612
      6 PB         -1.4223    6.8072    0.5592 P.3       1 GTP         1.5847
      7 O1B        -1.9658    7.8535    1.5065 O.co2     1 GTP        -0.8859
      8 O2B        -2.0501    6.5625   -0.7949 O.co2     1 GTP        -0.8859
      9 O3A        -1.3723    5.3610    1.3148 O.3       1 GTP        -0.7486
     10 PA         -2.5926    4.4187    1.8556 P.3       1 GTP         1.5001
     11 O1A        -3.3211    5.1526    2.9606 O.co2     1 GTP        -0.8487
     12 O2A        -3.3385    3.8605    0.6632 O.co2     1 GTP        -0.8487
     13 O5'        -1.7336    3.1724    2.4750 O.3       1 GTP        -0.5474
     14 C5'        -0.8811    2.4285    1.6206 C.3       1 GTP         0.2547
     15 C4'        -0.1994    1.3333    2.4288 C.3       1 GTP         0.0926
     16 O4'        -1.1285    0.2356    2.5840 O.3       1 GTP        -0.3593
     17 C3'         1.0324    0.7610    1.7344 C.3       1 GTP         0.0907
     18 O3'         1.9175    0.2377    2.7247 O.3       1 GTP        -0.5209
     19 C2'         0.4468   -0.3802    0.9263 C.3       1 GTP         0.0305
     20 O2'         1.3993   -1.3703    0.5961 O.3       1 GTP        -0.5978
     21 C1'        -0.6159   -0.9100    1.8769 C.3       1 GTP         0.2339
     22 N9         -1.7127   -1.6108    1.2130 N.pl3     1 GTP        -0.1765
     23 C8         -3.0389   -1.2578    1.2391 C.ar      1 GTP         0.4947
     24 N7         -3.7909   -2.0880    0.5425 N.2       1 GTP        -0.5802
     25 C5         -2.9127   -3.0150    0.0458 C.ar      1 GTP         0.2279
     26 C6         -3.2467   -4.1411   -0.7860 C.ar      1 GTP         0.6513
     27 O6         -4.3761   -4.4189   -1.1621 O.2       1 GTP        -0.5111
     28 N1         -2.0748   -4.9191   -1.1296 N.pl3     1 GTP        -0.4713
     29 C2         -0.7595   -4.6181   -0.7058 C.ar      1 GTP         0.5256
     30 N2          0.2985   -5.4268   -1.0920 N.pl3     1 GTP        -0.8665
     31 N3         -0.5304   -3.4919    0.1084 N.pl3     1 GTP        -0.5398
     32 C4         -1.6318   -2.7332    0.4512 C.ar      1 GTP        -0.0275
     33 HOG3        0.5475    7.4232   -2.3677 H         1 GTP         0.4161
     34 H5'        -1.4800    1.9927    0.8146 H         1 GTP         0.0348
     35 H5''       -0.1367    3.1040    1.1872 H         1 GTP         0.0348
     36 H4'         0.0403    1.7078    3.4343 H         1 GTP         0.1215
     37 H3'         1.5907    1.4859    1.1353 H         1 GTP         0.0576
     38 HO3'        2.1521    0.9800    3.3017 H         1 GTP         0.3842
     39 H2'        -0.0017    0.0018    0.0005 H         1 GTP         0.0252
     40 HO2'        1.7495   -1.7243    1.4324 H         1 GTP         0.4224
     41 H1'        -0.1998   -1.6319    2.6178 H         1 GTP         0.0745
     42 H8         -3.3933   -0.3909    1.7800 H         1 GTP         0.1522
     43 HN1        -2.2071   -5.7408   -1.7178 H         1 GTP         0.3518
     44 HN21        0.0848   -6.1964   -1.6597 H         1 GTP         0.4761
     45 HN22        1.1896   -5.1747   -0.7719 H         1 GTP         0.4761
     46 H46         0.4142   -3.2695    0.4160 H         1 GTP         0.5030
@<TRIPOS>BOND
     1    1    2 2
     2    1    3 1
     3    1    4 1
     4    1    5 1
     5    4   33 1
     6    5    6 1
     7    6    7 2
     8    6    8 1
     9    6    9 1
    10    9   10 1
    11   10   11 2
    12   10   12 1
    13   10   13 1
    14   13   14 1
    15   14   15 1
    16   14   34 1
    17   14   35 1
    18   15   16 1
    19   15   17 1
    20   15   36 1
    21   16   21 1
    22   17   18 1
    23   17   19 1
    24   17   37 1
    25   18   38 1
    26   19   20 1
    27   19   21 1
    28   19   39 1
    29   20   40 1
    30   21   22 1
    31   21   41 1
    32   22   23 ar
    33   22   32 ar
    34   23   24 ar
    35   23   42 1
    36   24   25 ar
    37   25   26 ar
    38   25   32 ar
    39   26   27 2
    40   26   28 ar
    41   28   29 ar
    42   28   43 1
    43   29   30 1
    44   29   31 ar
    45   30   44 1
    46   30   45 1
    47   31   32 ar
    48   31   46 1
@<TRIPOS>SUBSTRUCTURE
     1 GTP         1 GROUP 0 A     ****
@<TRIPOS>MOLECULE
[[[5-(2-amino-6-oxo-1,3-dihydropurin-2-ylium-9-yl)-3,4-dihydroxy-tetrahydrofuran-2-yl]methoxy-oxido-phosphoryl]oxy-oxido-phosphoryl] hydrogen phosphate
   46    48     1     0     0
SMALL
USER_CHARGES

@<TRIPOS>ATOM
      1 PG         -4.4799    6.9557   -1.0365 P.3       1 GTP         1.5400
      2 O1G        -5.8216    6.8891   -0.3415 O.co2     1 GTP        -0.8909
      3 O2G        -3.8999    8.2798   -1.4816 O.co2     1 GTP        -0.8909
      4 O3G        -4.5094    5.9454   -2.3189 O.3       1 GTP        -0.7980
      5 O3B        -3.3726    6.1711   -0.1300 O.3       1 GTP        -0.7612
      6 PB         -2.7700    6.5451    1.3406 P.3       1 GTP         1.5847
      7 O1B        -1.9788    7.8291    1.2282 O.co2     1 GTP        -0.8859
      8 O2B        -3.8576    6.3734    2.3776 O.co2     1 GTP        -0.8859
      9 O3A        -1.7457    5.2883    1.5313 O.3       1 GTP        -0.7486
     10 PA         -0.4665    4.8322    0.6228 P.3       1 GTP         1.5001
     11 O1A        -0.9631    4.4288   -0.7487 O.co2     1 GTP        -0.8487
     12 O2A         0.6338    5.8580    0.7859 O.co2     1 GTP        -0.8487
     13 O5'         0.0178    3.5131    1.4595 O.3       1 GTP        -0.5474
     14 C5'        -0.8811    2.4285    1.6206 C.3       1 GTP         0.2547
     15 C4'        -0.1994    1.3333    2.4288 C.3       1 GTP         0.0926
     16 O4'        -1.1285    0.2356    2.5840 O.3       1 GTP        -0.3593
     17 C3'         1.0324    0.7610    1.7344 C.3       1 GTP         0.0907
     18 O3'         1.9175    0.2377    2.7247 O.3       1 GTP        -0.5209
     19 C2'         0.4468   -0.3802    0.9263 C.3       1 GTP         0.0305
     20 O2'         1.3993   -1.3703    0.5961 O.3       1 GTP        -0.5978
     21 C1'        -0.6159   -0.9100    1.8769 C.3       1 GTP         0.2339
     22 N9         -1.7127   -1.6108    1.2130 N.pl3     1 GTP        -0.1765
     23 C8         -1.6311   -2.3341    0.0493 C.ar      1 GTP         0.4947
     24 N7         -2.7933   -2.8506   -0.3007 N.2       1 GTP        -0.5802
     25 C5         -3.6607   -2.4436    0.6786 C.ar      1 GTP         0.2279
     26 C6         -5.0651   -2.7506    0.7505 C.ar      1 GTP         0.6513
     27 O6         -5.6735   -3.4256   -0.0671 O.2       1 GTP        -0.5111
     28 N1         -5.6834   -2.1585    1.9182 N.pl3     1 GTP        -0.4713
     29 C2         -5.0007   -1.3738    2.8765 C.ar      1 GTP         0.5256
     30 N2         -5.6847   -0.8521    3.9640 N.pl3     1 GTP        -0.8665
     31 N3         -3.6227   -1.1271    2.7212 N.pl3     1 GTP        -0.5398
     32 C4         -3.0090   -1.6802    1.6149 C.ar      1 GTP        -0.0275
     33 HOG3       -3.7056    5.8754   -2.8767 H         1 GTP         0.4161
     34 H5'        -1.7771    2.7849    2.1387 H         1 GTP         0.0348
     35 H5''       -1.1654    2.0541    0.6320 H         1 GTP         0.0348
     36 H4'         0.0403    1.7078    3.4343 H         1 GTP         0.1215
     37 H3'         1.5907    1.4859    1.1353 H         1 GTP         0.0576
     38 HO3'        2.6839   -0.1150    2.2479 H         1 GTP         0.3842
     39 H2'        -0.0017    0.0018    0.0005 H         1 GTP         0.0252
     40 HO2'        2.0953   -0.9375    0.0709 H         1 GTP         0.4224
     41 H1'        -0.1998   -1.6319    2.6178 H         1 GTP         0.0745
     42 H8         -0.7029   -2.4474   -0.4941 H         1 GTP         0.1522
     43 HN1        -6.6800   -2.3183    2.0594 H         1 GTP         0.3518
     44 HN21       -5.1660   -0.3153    4.5987 H         1 GTP         0.4761
     45 HN22       -6.6415   -1.0545    4.0252 H         1 GTP         0.4761
     46 H46        -3.1256   -0.5638    3.4080 H         1 GTP         0.5030
@<TRIPOS>BOND
     1    1    2 2
     2    1    3 1
     3    1    4 1
     4    1    5 1
     5    4   33 1
     6    5    6 1
     7    6    7 2
     8    6    8 1
     9    6    9 1
    10    9   10 1
    11   10   11 2
    12   10   12 1
    13   10   13 1
    14   13   14 1
    15   14   15 1
    16   14   34 1
    17   14   35 1
    18   15   16 1
    19   15   17 1
    20   15   36 1
    21   16   21 1
    22   17   18 1
    23   17   19 1
    24   17   37 1
    25   18   38 1
    26   19   20 1
    27   19   21 1
    28   19   39 1
    29   20   40 1
    30   21   22 1
    31   21   41 1
    32   22   23 ar
    33   22   32 ar
    34   23   24 ar
    35   23   42 1
    36   24   25 ar
    37   25   26 ar
    38   25   32 ar
    39   26   27 2
    40   26   28 ar
    41   28   29 ar
    42   28   43 1
    43   29   30 1
    44   29   31 ar
    45   30   44 1
    46   30   45 1
    47   31   32 ar
    48   31   46 1
@<TRIPOS>SUBSTRUCTURE
     1 GTP         1 GROUP 0 A     ****
@<TRIPOS>MOLECULE
[[[5-(2-amino-6-oxo-1,3-dihydropurin-2-ylium-9-yl)-3,4-dihydroxy-tetrahydrofuran-2-yl]methoxy-oxido-phosphoryl]oxy-oxido-phosphoryl] hydrogen phosphate
   46    48     1     0     0
SMALL
USER_CHARGES

@<TRIPOS>ATOM
      1 PG          8.7484   -1.6108   -2.2130 P.3       1 GTP         1.5400
      2 O1G         9.7623   -2.3115   -1.3364 O.co2     1 GTP        -0.8909
      3 O2G         8.1562   -2.3016   -3.4213 O.co2     1 GTP        -0.8909
      4 O3G         9.3750   -0.1802   -2.6891 O.3       1 GTP        -0.7980
      5 O3B         7.5349   -1.0493   -1.2771 O.3       1 GTP        -0.7612
      6 PB          6.4130   -1.8665   -0.4175 P.3       1 GTP         1.5847
      7 O1B         5.5173   -2.6162   -1.3783 O.co2     1 GTP        -0.8859
      8 O2B         7.0907   -2.5637    0.7410 O.co2     1 GTP        -0.8859
      9 O3A         5.5966   -0.6027    0.2159 O.3       1 GTP        -0.7486
     10 PA          6.1203    0.6016    1.1881 P.3       1 GTP         1.5001
     11 O1A         6.5486    0.0066    2.5121 O.co2     1 GTP        -0.8487
     12 O2A         7.0488    1.4952    0.3951 O.co2     1 GTP        -0.8487
     13 O5'         4.7294    1.4427    1.3696 O.3       1 GTP        -0.5474
     14 C5'         4.0922    1.9801    0.2227 C.3       1 GTP         0.2547
     15 C4'         2.5944    2.0310    0.4653 C.3       1 GTP         0.0926
     16 O4'         1.9327    2.5740   -0.6889 O.3       1 GTP        -0.3593
     17 C3'         1.9685    0.6634    0.6767 C.3       1 GTP         0.0907
     18 O3'         2.1425    0.1975    1.9977 O.3       1 GTP        -0.5209
     19 C2'         0.5176    0.9128    0.3099 C.3       1 GTP         0.0305
     20 O2'        -0.2103    1.4454    1.4152 O.3       1 GTP        -0.5978
     21 C1'         0.6219    1.9765   -0.7844 C.3       1 GTP         0.2339
     22 N9          0.4237    1.4496   -2.1357 N.pl3     1 GTP        -0.1765
     23 C8          1.3988    0.9691   -2.9736 C.ar      1 GTP         0.4947
     24 N7          0.9092    0.5634   -4.1293 N.2       1 GTP        -0.5802
     25 C5         -0.4383    0.7914   -4.0325 C.ar      1 GTP         0.2279
     26 C6         -1.4217    0.5138   -5.0461 C.ar      1 GTP         0.6513
     27 O6         -1.1759    0.0306   -6.1417 O.2       1 GTP        -0.5111
     28 N1         -2.7543    0.8794   -4.6134 N.pl3     1 GTP        -0.4713
     29 C2         -3.0626    1.4402   -3.3523 C.ar      1 GTP         0.5256
     30 N2         -4.3747    1.7544   -3.0321 N.pl3     1 GTP        -0.8665
     31 N3         -2.0304    1.6759   -2.4233 N.pl3     1 GTP        -0.5398
     32 C4         -0.7497    1.3366   -2.8118 C.ar      1 GTP        -0.0275
     33 HOG3        8.8334    0.3972   -3.2683 H         1 GTP         0.4161
     34 H5'         4.4843    2.9854    0.0380 H         1 GTP         0.0348
     35 H5''        4.3191    1.3446   -0.6392 H         1 GTP         0.0348
     36 H4'         2.3752    2.7029    1.3156 H         1 GTP         0.1215
     37 H3'         2.4336   -0.1217   -0.0015 H         1 GTP         0.0576
     38 HO3'        3.0987    0.1465    2.1461 H         1 GTP         0.3842
     39 H2'         0.0316    0.0155   -0.0339 H         1 GTP         0.0252
     40 HO2'       -0.1608    0.7921    2.1351 H         1 GTP         0.4224
     41 H1'        -0.1474    2.7798   -0.6651 H         1 GTP         0.0745
     42 H8          2.4413    0.9409   -2.6872 H         1 GTP         0.1522
     43 HN1        -3.5236    0.7214   -5.2629 H         1 GTP         0.3518
     44 HN21       -4.5350    2.1409   -2.1461 H         1 GTP         0.4761
     45 HN22       -5.0542    1.5695   -3.7134 H         1 GTP         0.4761
     46 H46        -2.2462    2.0786   -1.5136 H         1 GTP         0.5030
@<TRIPOS>BOND
     1    1    2 2
     2    1    3 1
     3    1    4 1
     4    1    5 1
     5    4   33 1
     6    5    6 1
     7    6    7 2
     8    6    8 1
     9    6    9 1
    10    9   10 1
    11   10   11 2
    12   10   12 1
    13   10   13 1
    14   13   14 1
    15   14   15 1
    16   14   34 1
    17   14   35 1
    18   15   16 1
    19   15   17 1
    20   15   36 1
    21   16   21 1
    22   17   18 1
    23   17   19 1
    24   17   37 1
    25   18   38 1
    26   19   20 1
    27   19   21 1
    28   19   39 1
    29   20   40 1
    30   21   22 1
    31   21   41 1
    32   22   23 ar
    33   22   32 ar
    34   23   24 ar
    35   23   42 1
    36   24   25 ar
    37   25   26 ar
    38   25   32 ar
    39   26   27 2
    40   26   28 ar
    41   28   29 ar
    42   28   43 1
    43   29   30 1
    44   29   31 ar
    45   30   44 1
    46   30   45 1
    47   31   32 ar
    48   31   46 1
@<TRIPOS>SUBSTRUCTURE
     1 GTP         1 GROUP 0 A     ****
@<TRIPOS>MOLECULE
[[[5-(2-amino-6-oxo-1,3-dihydropurin-2-ylium-9-yl)-3,4-dihydroxy-tetrahydrofuran-2-yl]methoxy-oxido-phosphoryl]oxy-oxido-phosphoryl] hydrogen phosphate
   46    48     1     0     0
SMALL
USER_CHARGES

@<TRIPOS>ATOM
      1 PG         -0.4895    7.2479   -0.4264 P.3       1 GTP         1.5400
      2 O1G        -0.9440    8.6053    0.0618 O.co2     1 GTP        -0.8909
      3 O2G         0.2735    6.3104    0.4828 O.co2     1 GTP        -0.8909
      4 O3G         0.3696    7.4517   -1.7998 O.3       1 GTP        -0.7980
      5 O3B        -1.7699    6.4524   -1.0521 O.3       1 GTP        -0.7612
      6 PB         -3.1074    5.8778   -0.3129 P.3       1 GTP         1.5847
      7 O1B        -3.7613    7.0067    0.4522 O.co2     1 GTP        -0.8859
      8 O2B        -3.8869    5.0298   -1.2931 O.co2     1 GTP        -0.8859
      9 O3A        -2.4032    4.8441    0.7361 O.3       1 GTP        -0.7486
     10 PA         -3.0798    3.8627    1.8536 P.3       1 GTP         1.5001
     11 O1A        -3.7618    4.7157    2.9012 O.co2     1 GTP        -0.8487
     12 O2A        -3.8250    2.7565    1.1390 O.co2     1 GTP        -0.8487
     13 O5'        -1.7336    3.1724    2.4750 O.3       1 GTP        -0.5474
     14 C5'        -0.8811    2.4285    1.6206 C.3       1 GTP         0.2547
     15 C4'        -0.1994    1.3333    2.4288 C.3       1 GTP         0.0926
     16 O4'        -1.1285    0.2356    2.5840 O.3       1 GTP        -0.3593
     17 C3'         1.0324    0.7610    1.7344 C.3       1 GTP         0.0907
     18 O3'         1.9175    0.2377    2.7247 O.3       1 GTP        -0.5209
     19 C2'         0.4468   -0.3802    0.9263 C.3       1 GTP         0.0305
     20 O2'         1.3993   -1.3703    0.5961 O.3       1 GTP        -0.5978
     21 C1'        -0.6159   -0.9100    1.8769 C.3       1 GTP         0.2339
     22 N9         -1.7127   -1.6108    1.2130 N.pl3     1 GTP        -0.1765
     23 C8         -1.6311   -2.3341    0.0493 C.ar      1 GTP         0.4947
     24 N7         -2.7933   -2.8506   -0.3007 N.2       1 GTP        -0.5802
     25 C5         -3.6607   -2.4436    0.6786 C.ar      1 GTP         0.2279
     26 C6         -5.0651   -2.7506    0.7505 C.ar      1 GTP         0.6513
     27 O6         -5.6735   -3.4256   -0.0671 O.2       1 GTP        -0.5111
     28 N1         -5.6834   -2.1585    1.9182 N.pl3     1 GTP        -0.4713
     29 C2         -5.0007   -1.3738    2.8765 C.ar      1 GTP         0.5256
     30 N2         -5.6847   -0.8521    3.9640 N.pl3     1 GTP        -0.8665
     31 N3         -3.6227   -1.1271    2.7212 N.pl3     1 GTP        -0.5398
     32 C4         -3.0090   -1.6802    1.6149 C.ar      1 GTP        -0.0275
     33 HOG3        0.7366    6.6573   -2.2431 H         1 GTP         0.4161
     34 H5'        -1.4800    1.9927    0.8146 H         1 GTP         0.0348
     35 H5''       -0.1367    3.1040    1.1872 H         1 GTP         0.0348
     36 H4'         0.0403    1.7078    3.4343 H         1 GTP         0.1215
     37 H3'         1.5907    1.4859    1.1353 H         1 GTP         0.0576
     38 HO3'        2.6839   -0.1150    2.2479 H         1 GTP         0.3842
     39 H2'        -0.0017    0.0018    0.0005 H         1 GTP         0.0252
     40 HO2'        2.0953   -0.9375    0.0709 H         1 GTP         0.4224
     41 H1'        -0.1998   -1.6319    2.6178 H         1 GTP         0.0745
     42 H8         -0.7029   -2.4474   -0.4941 H         1 GTP         0.1522
     43 HN1        -6.6800   -2.3183    2.0594 H         1 GTP         0.3518
     44 HN21       -5.1660   -0.3153    4.5987 H         1 GTP         0.4761
     45 HN22       -6.6415   -1.0545    4.0252 H         1 GTP         0.4761
     46 H46        -3.1256   -0.5638    3.4080 H         1 GTP         0.5030
@<TRIPOS>BOND
     1    1    2 2
     2    1    3 1
     3    1    4 1
     4    1    5 1
     5    4   33 1
     6    5    6 1
     7    6    7 2
     8    6    8 1
     9    6    9 1
    10    9   10 1
    11   10   11 2
    12   10   12 1
    13   10   13 1
    14   13   14 1
    15   14   15 1
    16   14   34 1
    17   14   35 1
    18   15   16 1
    19   15   17 1
    20   15   36 1
    21   16   21 1
    22   17   18 1
    23   17   19 1
    24   17   37 1
    25   18   38 1
    26   19   20 1
    27   19   21 1
    28   19   39 1
    29   20   40 1
    30   21   22 1
    31   21   41 1
    32   22   23 ar
    33   22   32 ar
    34   23   24 ar
    35   23   42 1
    36   24   25 ar
    37   25   26 ar
    38   25   32 ar
    39   26   27 2
    40   26   28 ar
    41   28   29 ar
    42   28   43 1
    43   29   30 1
    44   29   31 ar
    45   30   44 1
    46   30   45 1
    47   31   32 ar
    48   31   46 1
@<TRIPOS>SUBSTRUCTURE
     1 GTP         1 GROUP 0 A     ****
@<TRIPOS>MOLECULE
[[[5-(2-amino-6-oxo-1,3-dihydropurin-2-ylium-9-yl)-3,4-dihydroxy-tetrahydrofuran-2-yl]methoxy-oxido-phosphoryl]oxy-oxido-phosphoryl] hydrogen phosphate
   46    48     1     0     0
SMALL
USER_CHARGES

@<TRIPOS>ATOM
      1 PG          6.8559    3.4183   -6.0918 P.3       1 GTP         1.5400
      2 O1G         6.1099    4.5652   -6.7366 O.co2     1 GTP        -0.8909
      3 O2G         8.3601    3.4579   -5.9384 O.co2     1 GTP        -0.8909
      4 O3G         6.4496    2.0371   -6.8619 O.3       1 GTP        -0.7980
      5 O3B         6.1843    3.0976   -4.6393 O.3       1 GTP        -0.7612
      6 PB          6.1484    4.0025   -3.2808 P.3       1 GTP         1.5847
      7 O1B         7.5599    4.1469   -2.7570 O.co2     1 GTP        -0.8859
      8 O2B         5.2632    5.2066   -3.5135 O.co2     1 GTP        -0.8859
      9 O3A         5.3088    2.9902   -2.3139 O.3       1 GTP        -0.7486
     10 PA          5.6603    1.4687   -1.8328 P.3       1 GTP         1.5001
     11 O1A         5.6670    0.5641   -3.0461 O.co2     1 GTP        -0.8487
     12 O2A         6.8417    1.5200   -0.8887 O.co2     1 GTP        -0.8487
     13 O5'         4.3516    1.1575   -0.9026 O.3       1 GTP        -0.5474
     14 C5'         4.0922    1.9801    0.2227 C.3       1 GTP         0.2547
     15 C4'         2.5944    2.0310    0.4653 C.3       1 GTP         0.0926
     16 O4'         1.9327    2.5740   -0.6889 O.3       1 GTP        -0.3593
     17 C3'         1.9685    0.6634    0.6767 C.3       1 GTP         0.0907
     18 O3'         2.1425    0.1975    1.9977 O.3       1 GTP        -0.5209
     19 C2'         0.5176    0.9128    0.3099 C.3       1 GTP         0.0305
     20 O2'        -0.2103    1.4454    1.4152 O.3       1 GTP        -0.5978
     21 C1'         0.6219    1.9765   -0.7844 C.3       1 GTP         0.2339
     22 N9          0.4237    1.4496   -2.1357 N.pl3     1 GTP        -0.1765
     23 C8          1.3988    0.9691   -2.9736 C.ar      1 GTP         0.4947
     24 N7          0.9092    0.5634   -4.1293 N.2       1 GTP        -0.5802
     25 C5         -0.4383    0.7914   -4.0325 C.ar      1 GTP         0.2279
     26 C6         -1.4217    0.5138   -5.0461 C.ar      1 GTP         0.6513
     27 O6         -1.1759    0.0306   -6.1417 O.2       1 GTP        -0.5111
     28 N1         -2.7543    0.8794   -4.6134 N.pl3     1 GTP        -0.4713
     29 C2         -3.0626    1.4402   -3.3523 C.ar      1 GTP         0.5256
     30 N2         -4.3747    1.7544   -3.0321 N.pl3     1 GTP        -0.8665
     31 N3         -2.0304    1.6759   -2.4233 N.pl3     1 GTP        -0.5398
     32 C4         -0.7497    1.3366   -2.8118 C.ar      1 GTP        -0.0275
     33 HOG3        6.8541    1.1967   -6.5579 H         1 GTP         0.4161
     34 H5'         4.6069    1.5618    1.0936 H         1 GTP         0.0348
     35 H5''        4.4824    2.9837    0.0254 H         1 GTP         0.0348
     36 H4'         2.3752    2.7029    1.3156 H         1 GTP         0.1215
     37 H3'         2.4336   -0.1217   -0.0015 H         1 GTP         0.0576
     38 HO3'        1.7160   -0.6716    2.0397 H         1 GTP         0.3842
     39 H2'         0.0316    0.0155   -0.0339 H         1 GTP         0.0252
     40 HO2'       -0.1608    0.7921    2.1351 H         1 GTP         0.4224
     41 H1'        -0.1474    2.7798   -0.6651 H         1 GTP         0.0745
     42 H8          2.4413    0.9409   -2.6872 H         1 GTP         0.1522
     43 HN1        -3.5236    0.7214   -5.2629 H         1 GTP         0.3518
     44 HN21       -4.5350    2.1409   -2.1461 H         1 GTP         0.4761
     45 HN22       -5.0542    1.5695   -3.7134 H         1 GTP         0.4761
     46 H46        -2.2462    2.0786   -1.5136 H         1 GTP         0.5030
@<TRIPOS>BOND
     1    1    2 2
     2    1    3 1
     3    1    4 1
     4    1    5 1
     5    4   33 1
     6    5    6 1
     7    6    7 2
     8    6    8 1
     9    6    9 1
    10    9   10 1
    11   10   11 2
    12   10   12 1
    13   10   13 1
    14   13   14 1
    15   14   15 1
    16   14   34 1
    17   14   35 1
    18   15   16 1
    19   15   17 1
    20   15   36 1
    21   16   21 1
    22   17   18 1
    23   17   19 1
    24   17   37 1
    25   18   38 1
    26   19   20 1
    27   19   21 1
    28   19   39 1
    29   20   40 1
    30   21   22 1
    31   21   41 1
    32   22   23 ar
    33   22   32 ar
    34   23   24 ar
    35   23   42 1
    36   24   25 ar
    37   25   26 ar
    38   25   32 ar
    39   26   27 2
    40   26   28 ar
    41   28   29 ar
    42   28   43 1
    43   29   30 1
    44   29   31 ar
    45   30   44 1
    46   30   45 1
    47   31   32 ar
    48   31   46 1
@<TRIPOS>SUBSTRUCTURE
     1 GTP         1 GROUP 0 A     ****
@<TRIPOS>MOLECULE
[[[5-(2-amino-6-oxo-1,3-dihydropurin-2-ylium-9-yl)-3,4-dihydroxy-tetrahydrofuran-2-yl]methoxy-oxido-phosphoryl]oxy-oxido-phosphoryl] hydrogen phosphate
   46    48     1     0     0
SMALL
USER_CHARGES

@<TRIPOS>ATOM
      1 PG         -4.6308    7.5479    2.1084 P.3       1 GTP         1.5400
      2 O1G        -4.1219    8.9658    2.2424 O.co2     1 GTP        -0.8909
      3 O2G        -5.4939    7.1394    0.9354 O.co2     1 GTP        -0.8909
      4 O3G        -5.4049    7.1422    3.4876 O.3       1 GTP        -0.7980
      5 O3B        -3.3698    6.5180    2.2213 O.3       1 GTP        -0.7612
      6 PB         -2.2216    6.3929    3.3753 P.3       1 GTP         1.5847
      7 O1B        -1.3794    7.6490    3.3596 O.co2     1 GTP        -0.8859
      8 O2B        -2.8564    5.8812    4.6492 O.co2     1 GTP        -0.8859
      9 O3A        -1.3614    5.1517    2.7554 O.3       1 GTP        -0.7486
     10 PA         -0.5790    5.0299    1.3261 P.3       1 GTP         1.5001
     11 O1A        -1.5962    5.0956    0.2075 O.co2     1 GTP        -0.8487
     12 O2A         0.6189    5.9541    1.3494 O.co2     1 GTP        -0.8487
     13 O5'         0.0178    3.5131    1.4595 O.3       1 GTP        -0.5474
     14 C5'        -0.8811    2.4285    1.6206 C.3       1 GTP         0.2547
     15 C4'        -0.1994    1.3333    2.4288 C.3       1 GTP         0.0926
     16 O4'        -1.1285    0.2356    2.5840 O.3       1 GTP        -0.3593
     17 C3'         1.0324    0.7610    1.7344 C.3       1 GTP         0.0907
     18 O3'         1.9175    0.2377    2.7247 O.3       1 GTP        -0.5209
     19 C2'         0.4468   -0.3802    0.9263 C.3       1 GTP         0.0305
     20 O2'         1.3993   -1.3703    0.5961 O.3       1 GTP        -0.5978
     21 C1'        -0.6159   -0.9100    1.8769 C.3       1 GTP         0.2339
     22 N9         -1.7127   -1.6108    1.2130 N.pl3     1 GTP        -0.1765
     23 C8         -3.0389   -1.2578    1.2391 C.ar      1 GTP         0.4947
     24 N7         -3.7909   -2.0880    0.5425 N.2       1 GTP        -0.5802
     25 C5         -2.9127   -3.0150    0.0458 C.ar      1 GTP         0.2279
     26 C6         -3.2467   -4.1411   -0.7860 C.ar      1 GTP         0.6513
     27 O6         -4.3761   -4.4189   -1.1621 O.2       1 GTP        -0.5111
     28 N1         -2.0748   -4.9191   -1.1296 N.pl3     1 GTP        -0.4713
     29 C2         -0.7595   -4.6181   -0.7058 C.ar      1 GTP         0.5256
     30 N2          0.2985   -5.4268   -1.0920 N.pl3     1 GTP        -0.8665
     31 N3         -0.5304   -3.4919    0.1084 N.pl3     1 GTP        -0.5398
     32 C4         -1.6318   -2.7332    0.4512 C.ar      1 GTP        -0.0275
     33 HOG3       -5.7954    6.2450    3.5573 H         1 GTP         0.4161
     34 H5'        -1.7771    2.7849    2.1387 H         1 GTP         0.0348
     35 H5''       -1.1654    2.0541    0.6320 H         1 GTP         0.0348
     36 H4'         0.0403    1.7078    3.4343 H         1 GTP         0.1215
     37 H3'         1.5907    1.4859    1.1353 H         1 GTP         0.0576
     38 HO3'        2.6839   -0.1150    2.2479 H         1 GTP         0.3842
     39 H2'        -0.0017    0.0018    0.0005 H         1 GTP         0.0252
     40 HO2'        2.0953   -0.9375    0.0709 H         1 GTP         0.4224
     41 H1'        -0.1998   -1.6319    2.6178 H         1 GTP         0.0745
     42 H8         -3.3933   -0.3909    1.7800 H         1 GTP         0.1522
     43 HN1        -2.2071   -5.7408   -1.7178 H         1 GTP         0.3518
     44 HN21        1.1896   -5.1751   -0.7715 H         1 GTP         0.4761
     45 HN22        0.0846   -6.1966   -1.6593 H         1 GTP         0.4761
     46 H46         0.4142   -3.2695    0.4160 H         1 GTP         0.5030
@<TRIPOS>BOND
     1    1    2 2
     2    1    3 1
     3    1    4 1
     4    1    5 1
     5    4   33 1
     6    5    6 1
     7    6    7 2
     8    6    8 1
     9    6    9 1
    10    9   10 1
    11   10   11 2
    12   10   12 1
    13   10   13 1
    14   13   14 1
    15   14   15 1
    16   14   34 1
    17   14   35 1
    18   15   16 1
    19   15   17 1
    20   15   36 1
    21   16   21 1
    22   17   18 1
    23   17   19 1
    24   17   37 1
    25   18   38 1
    26   19   20 1
    27   19   21 1
    28   19   39 1
    29   20   40 1
    30   21   22 1
    31   21   41 1
    32   22   23 ar
    33   22   32 ar
    34   23   24 ar
    35   23   42 1
    36   24   25 ar
    37   25   26 ar
    38   25   32 ar
    39   26   27 2
    40   26   28 ar
    41   28   29 ar
    42   28   43 1
    43   29   30 1
    44   29   31 ar
    45   30   44 1
    46   30   45 1
    47   31   32 ar
    48   31   46 1
@<TRIPOS>SUBSTRUCTURE
     1 GTP         1 GROUP 0 A     ****
@<TRIPOS>MOLECULE
[[[5-(2-amino-6-oxo-1,3-dihydropurin-2-ylium-9-yl)-3,4-dihydroxy-tetrahydrofuran-2-yl]methoxy-oxido-phosphoryl]oxy-oxido-phosphoryl] hydrogen phosphate
   46    48     1     0     0
SMALL
USER_CHARGES

@<TRIPOS>ATOM
      1 PG         -3.7792    8.4532    4.3189 P.3       1 GTP         1.5400
      2 O1G        -2.8275    8.9105    5.4018 O.co2     1 GTP        -0.8909
      3 O2G        -4.2618    9.4114    3.2528 O.co2     1 GTP        -0.8909
      4 O3G        -5.0809    7.7682    5.0278 O.3       1 GTP        -0.7980
      5 O3B        -3.1640    7.1250    3.5971 O.3       1 GTP        -0.7612
      6 PB         -1.8309    6.9618    2.6687 P.3       1 GTP         1.5847
      7 O1B        -2.0342    7.7395    1.3876 O.co2     1 GTP        -0.8859
      8 O2B        -0.6031    7.1605    3.5293 O.co2     1 GTP        -0.8859
      9 O3A        -1.9236    5.3622    2.3562 O.3       1 GTP        -0.7486
     10 PA         -1.9156    4.0918    3.3837 P.3       1 GTP         1.5001
     11 O1A        -0.5754    4.0416    4.0848 O.co2     1 GTP        -0.8487
     12 O2A        -3.2093    4.0954    4.1685 O.co2     1 GTP        -0.8487
     13 O5'        -2.0401    2.8620    2.3128 O.3       1 GTP        -0.5474
     14 C5'        -0.8811    2.4285    1.6206 C.3       1 GTP         0.2547
     15 C4'        -0.1994    1.3333    2.4288 C.3       1 GTP         0.0926
     16 O4'        -1.1285    0.2356    2.5840 O.3       1 GTP        -0.3593
     17 C3'         1.0324    0.7610    1.7344 C.3       1 GTP         0.0907
     18 O3'         1.9175    0.2377    2.7247 O.3       1 GTP        -0.5209
     19 C2'         0.4468   -0.3802    0.9263 C.3       1 GTP         0.0305
     20 O2'         1.3993   -1.3703    0.5961 O.3       1 GTP        -0.5978
     21 C1'        -0.6159   -0.9100    1.8769 C.3       1 GTP         0.2339
     22 N9         -1.7127   -1.6108    1.2130 N.pl3     1 GTP        -0.1765
     23 C8         -1.7789   -2.9564    0.9503 C.ar      1 GTP         0.4947
     24 N7         -2.8980   -3.2916    0.3377 N.2       1 GTP        -0.5802
     25 C5         -3.5824   -2.1127    0.2000 C.ar      1 GTP         0.2279
     26 C6         -4.8740   -1.9471   -0.4133 C.ar      1 GTP         0.6513
     27 O6         -5.5366   -2.8529   -0.8978 O.2       1 GTP        -0.5111
     28 N1         -5.3036   -0.5645   -0.3916 N.pl3     1 GTP        -0.4713
     29 C2         -4.5545    0.4997    0.1619 C.ar      1 GTP         0.5256
     30 N2         -5.0561    1.7921    0.1348 N.pl3     1 GTP        -0.8665
     31 N3         -3.2977    0.2393    0.7420 N.pl3     1 GTP        -0.5398
     32 C4         -2.8643   -1.0716    0.7336 C.ar      1 GTP        -0.0275
     33 HOG3       -5.7952    7.4185    4.4536 H         1 GTP         0.4161
     34 H5'        -1.1767    2.0502    0.6368 H         1 GTP         0.0348
     35 H5''       -0.2080    3.2814    1.4876 H         1 GTP         0.0348
     36 H4'         0.0403    1.7078    3.4343 H         1 GTP         0.1215
     37 H3'         1.5907    1.4859    1.1353 H         1 GTP         0.0576
     38 HO3'        2.6839   -0.1150    2.2479 H         1 GTP         0.3842
     39 H2'        -0.0017    0.0018    0.0005 H         1 GTP         0.0252
     40 HO2'        2.0953   -0.9375    0.0709 H         1 GTP         0.4224
     41 H1'        -0.1998   -1.6319    2.6178 H         1 GTP         0.0745
     42 H8         -0.9852   -3.6367    1.2276 H         1 GTP         0.1522
     43 HN1        -6.2089   -0.3428   -0.8039 H         1 GTP         0.3518
     44 HN21       -5.9354    1.9184   -0.2788 H         1 GTP         0.4761
     45 HN22       -4.4982    2.4931    0.5316 H         1 GTP         0.4761
     46 H46        -2.7541    1.0010    1.1428 H         1 GTP         0.5030
@<TRIPOS>BOND
     1    1    2 2
     2    1    3 1
     3    1    4 1
     4    1    5 1
     5    4   33 1
     6    5    6 1
     7    6    7 2
     8    6    8 1
     9    6    9 1
    10    9   10 1
    11   10   11 2
    12   10   12 1
    13   10   13 1
    14   13   14 1
    15   14   15 1
    16   14   34 1
    17   14   35 1
    18   15   16 1
    19   15   17 1
    20   15   36 1
    21   16   21 1
    22   17   18 1
    23   17   19 1
    24   17   37 1
    25   18   38 1
    26   19   20 1
    27   19   21 1
    28   19   39 1
    29   20   40 1
    30   21   22 1
    31   21   41 1
    32   22   23 ar
    33   22   32 ar
    34   23   24 ar
    35   23   42 1
    36   24   25 ar
    37   25   26 ar
    38   25   32 ar
    39   26   27 2
    40   26   28 ar
    41   28   29 ar
    42   28   43 1
    43   29   30 1
    44   29   31 ar
    45   30   44 1
    46   30   45 1
    47   31   32 ar
    48   31   46 1
@<TRIPOS>SUBSTRUCTURE
     1 GTP         1 GROUP 0 A     ****
@<TRIPOS>MOLECULE
[[[5-(2-amino-6-oxo-1,3-dihydropurin-2-ylium-9-yl)-3,4-dihydroxy-tetrahydrofuran-2-yl]methoxy-oxido-phosphoryl]oxy-oxido-phosphoryl] hydrogen phosphate
   46    48     1     0     0
SMALL
USER_CHARGES

@<TRIPOS>ATOM
      1 PG         -5.2065    6.7567   -0.4646 P.3       1 GTP         1.5400
      2 O1G        -6.2205    6.8414    0.6544 O.co2     1 GTP        -0.8909
      3 O2G        -4.8061    7.9885   -1.2456 O.co2     1 GTP        -0.8909
      4 O3G        -5.6929    5.6094   -1.5196 O.3       1 GTP        -0.7980
      5 O3B        -3.8596    6.0233    0.0936 O.3       1 GTP        -0.7612
      6 PB         -2.7767    6.5305    1.2053 P.3       1 GTP         1.5847
      7 O1B        -2.0624    7.7495    0.6654 O.co2     1 GTP        -0.8859
      8 O2B        -3.4341    6.5366    2.5674 O.co2     1 GTP        -0.8859
      9 O3A        -1.7628    5.2512    1.1860 O.3       1 GTP        -0.7486
     10 PA         -0.3962    4.9846    2.0409 P.3       1 GTP         1.5001
     11 O1A         0.6371    6.0152    1.6404 O.co2     1 GTP        -0.8487
     12 O2A        -0.7667    4.7715    3.4925 O.co2     1 GTP        -0.8487
     13 O5'         0.0178    3.5131    1.4595 O.3       1 GTP        -0.5474
     14 C5'        -0.8811    2.4285    1.6206 C.3       1 GTP         0.2547
     15 C4'        -0.1994    1.3333    2.4288 C.3       1 GTP         0.0926
     16 O4'        -1.1285    0.2356    2.5840 O.3       1 GTP        -0.3593
     17 C3'         1.0324    0.7610    1.7344 C.3       1 GTP         0.0907
     18 O3'         1.9175    0.2377    2.7247 O.3       1 GTP        -0.5209
     19 C2'         0.4468   -0.3802    0.9263 C.3       1 GTP         0.0305
     20 O2'         1.3993   -1.3703    0.5961 O.3       1 GTP        -0.5978
     21 C1'        -0.6159   -0.9100    1.8769 C.3       1 GTP         0.2339
     22 N9         -1.7127   -1.6108    1.2130 N.pl3     1 GTP        -0.1765
     23 C8         -1.7789   -2.9564    0.9503 C.ar      1 GTP         0.4947
     24 N7         -2.8980   -3.2916    0.3377 N.2       1 GTP        -0.5802
     25 C5         -3.5824   -2.1127    0.2000 C.ar      1 GTP         0.2279
     26 C6         -4.8740   -1.9471   -0.4133 C.ar      1 GTP         0.6513
     27 O6         -5.5366   -2.8529   -0.8978 O.2       1 GTP        -0.5111
     28 N1         -5.3036   -0.5645   -0.3916 N.pl3     1 GTP        -0.4713
     29 C2         -4.5545    0.4997    0.1619 C.ar      1 GTP         0.5256
     30 N2         -5.0561    1.7921    0.1348 N.pl3     1 GTP        -0.8665
     31 N3         -3.2977    0.2393    0.7420 N.pl3     1 GTP        -0.5398
     32 C4         -2.8643   -1.0716    0.7336 C.ar      1 GTP        -0.0275
     33 HOG3       -5.1359    5.4335   -2.3076 H         1 GTP         0.4161
     34 H5'        -1.7771    2.7849    2.1387 H         1 GTP         0.0348
     35 H5''       -1.1654    2.0541    0.6320 H         1 GTP         0.0348
     36 H4'         0.0403    1.7078    3.4343 H         1 GTP         0.1215
     37 H3'         1.5907    1.4859    1.1353 H         1 GTP         0.0576
     38 HO3'        2.6839   -0.1150    2.2479 H         1 GTP         0.3842
     39 H2'        -0.0017    0.0018    0.0005 H         1 GTP         0.0252
     40 HO2'        2.0953   -0.9375    0.0709 H         1 GTP         0.4224
     41 H1'        -0.1998   -1.6319    2.6178 H         1 GTP         0.0745
     42 H8         -0.9852   -3.6367    1.2276 H         1 GTP         0.1522
     43 HN1        -6.2089   -0.3428   -0.8039 H         1 GTP         0.3518
     44 HN21       -4.4981    2.4933    0.5311 H         1 GTP         0.4761
     45 HN22       -5.9352    1.9183   -0.2793 H         1 GTP         0.4761
     46 H46        -2.7541    1.0010    1.1428 H         1 GTP         0.5030
@<TRIPOS>BOND
     1    1    2 2
     2    1    3 1
     3    1    4 1
     4    1    5 1
     5    4   33 1
     6    5    6 1
     7    6    7 2
     8    6    8 1
     9    6    9 1
    10    9   10 1
    11   10   11 2
    12   10   12 1
    13   10   13 1
    14   13   14 1
    15   14   15 1
    16   14   34 1
    17   14   35 1
    18   15   16 1
    19   15   17 1
    20   15   36 1
    21   16   21 1
    22   17   18 1
    23   17   19 1
    24   17   37 1
    25   18   38 1
    26   19   20 1
    27   19   21 1
    28   19   39 1
    29   20   40 1
    30   21   22 1
    31   21   41 1
    32   22   23 ar
    33   22   32 ar
    34   23   24 ar
    35   23   42 1
    36   24   25 ar
    37   25   26 ar
    38   25   32 ar
    39   26   27 2
    40   26   28 ar
    41   28   29 ar
    42   28   43 1
    43   29   30 1
    44   29   31 ar
    45   30   44 1
    46   30   45 1
    47   31   32 ar
    48   31   46 1
@<TRIPOS>SUBSTRUCTURE
     1 GTP         1 GROUP 0 A     ****
@<TRIPOS>MOLECULE
[[[5-(2-amino-6-oxo-1,3-dihydropurin-2-ylium-9-yl)-3,4-dihydroxy-tetrahydrofuran-2-yl]methoxy-oxido-phosphoryl]oxy-oxido-phosphoryl] hydrogen phosphate
   46    48     1     0     0
SMALL
USER_CHARGES

@<TRIPOS>ATOM
      1 PG         -5.3233    4.0760    2.3047 P.3       1 GTP         1.5400
      2 O1G        -6.1408    3.9672    1.0369 O.co2     1 GTP        -0.8909
      3 O2G        -4.3009    3.0207    2.6633 O.co2     1 GTP        -0.8909
      4 O3G        -6.3441    4.2587    3.5659 O.3       1 GTP        -0.7980
      5 O3B        -4.6085    5.5425    2.3516 O.3       1 GTP        -0.7612
      6 PB         -3.4415    6.1683    1.3965 P.3       1 GTP         1.5847
      7 O1B        -3.8869    6.0636   -0.0451 O.co2     1 GTP        -0.8859
      8 O2B        -2.9713    7.4791    1.9867 O.co2     1 GTP        -0.8859
      9 O3A        -2.2582    5.0807    1.6821 O.3       1 GTP        -0.7486
     10 PA         -0.7385    5.0053    1.0867 P.3       1 GTP         1.5001
     11 O1A        -0.8122    4.7747   -0.4072 O.co2     1 GTP        -0.8487
     12 O2A         0.0648    6.1510    1.6627 O.co2     1 GTP        -0.8487
     13 O5'        -0.2062    3.6557    1.8417 O.3       1 GTP        -0.5474
     14 C5'        -0.8811    2.4285    1.6206 C.3       1 GTP         0.2547
     15 C4'        -0.1994    1.3333    2.4288 C.3       1 GTP         0.0926
     16 O4'        -1.1285    0.2356    2.5840 O.3       1 GTP        -0.3593
     17 C3'         1.0324    0.7610    1.7344 C.3       1 GTP         0.0907
     18 O3'         1.9175    0.2377    2.7247 O.3       1 GTP        -0.5209
     19 C2'         0.4468   -0.3802    0.9263 C.3       1 GTP         0.0305
     20 O2'         1.3993   -1.3703    0.5961 O.3       1 GTP        -0.5978
     21 C1'        -0.6159   -0.9100    1.8769 C.3       1 GTP         0.2339
     22 N9         -1.7127   -1.6108    1.2130 N.pl3     1 GTP        -0.1765
     23 C8         -2.5534   -1.0907    0.2607 C.ar      1 GTP         0.4947
     24 N7         -3.4469   -1.9695   -0.1508 N.2       1 GTP        -0.5802
     25 C5         -3.1705   -3.1041    0.5657 C.ar      1 GTP         0.2279
     26 C6         -3.8738   -4.3568    0.4777 C.ar      1 GTP         0.6513
     27 O6         -4.8240   -4.5720   -0.2607 O.2       1 GTP        -0.5111
     28 N1         -3.3198   -5.3462    1.3780 N.pl3     1 GTP        -0.4713
     29 C2         -2.2226   -5.1203    2.2413 C.ar      1 GTP         0.5256
     30 N2         -1.7649   -6.1367    3.0659 N.pl3     1 GTP        -0.8665
     31 N3         -1.5969   -3.8585    2.2574 N.pl3     1 GTP        -0.5398
     32 C4         -2.1068   -2.8965    1.4082 C.ar      1 GTP        -0.0275
     33 HOG3       -6.9421    5.0362    3.5737 H         1 GTP         0.4161
     34 H5'        -1.9256    2.5380    1.9293 H         1 GTP         0.0348
     35 H5''       -0.8474    2.1930    0.5521 H         1 GTP         0.0348
     36 H4'         0.0403    1.7078    3.4343 H         1 GTP         0.1215
     37 H3'         1.5907    1.4859    1.1353 H         1 GTP         0.0576
     38 HO3'        2.6839   -0.1150    2.2479 H         1 GTP         0.3842
     39 H2'        -0.0017    0.0018    0.0005 H         1 GTP         0.0252
     40 HO2'        0.9369   -2.0558    0.0825 H         1 GTP         0.4224
     41 H1'        -0.1998   -1.6319    2.6178 H         1 GTP         0.0745
     42 H8         -2.4657   -0.0713   -0.0897 H         1 GTP         0.1522
     43 HN1        -3.7505   -6.2699    1.3904 H         1 GTP         0.3518
     44 HN21       -1.0023   -5.9289    3.6451 H         1 GTP         0.4761
     45 HN22       -2.2347   -6.9951    3.0150 H         1 GTP         0.4761
     46 H46        -0.8062   -3.6900    2.8760 H         1 GTP         0.5030
@<TRIPOS>BOND
     1    1    2 2
     2    1    3 1
     3    1    4 1
     4    1    5 1
     5    4   33 1
     6    5    6 1
     7    6    7 2
     8    6    8 1
     9    6    9 1
    10    9   10 1
    11   10   11 2
    12   10   12 1
    13   10   13 1
    14   13   14 1
    15   14   15 1
    16   14   34 1
    17   14   35 1
    18   15   16 1
    19   15   17 1
    20   15   36 1
    21   16   21 1
    22   17   18 1
    23   17   19 1
    24   17   37 1
    25   18   38 1
    26   19   20 1
    27   19   21 1
    28   19   39 1
    29   20   40 1
    30   21   22 1
    31   21   41 1
    32   22   23 ar
    33   22   32 ar
    34   23   24 ar
    35   23   42 1
    36   24   25 ar
    37   25   26 ar
    38   25   32 ar
    39   26   27 2
    40   26   28 ar
    41   28   29 ar
    42   28   43 1
    43   29   30 1
    44   29   31 ar
    45   30   44 1
    46   30   45 1
    47   31   32 ar
    48   31   46 1
@<TRIPOS>SUBSTRUCTURE
     1 GTP         1 GROUP 0 A     ****
@<TRIPOS>MOLECULE
[[[5-(2-amino-6-oxo-1,3-dihydropurin-2-ylium-9-yl)-3,4-dihydroxy-tetrahydrofuran-2-yl]methoxy-oxido-phosphoryl]oxy-oxido-phosphoryl] hydrogen phosphate
   46    48     1     0     0
SMALL
USER_CHARGES

@<TRIPOS>ATOM
      1 PG         -4.1341    3.8896   -1.5729 P.3       1 GTP         1.5400
      2 O1G        -4.2371    2.9138   -2.7238 O.co2     1 GTP        -0.8909
      3 O2G        -3.8810    3.4045   -0.1628 O.co2     1 GTP        -0.8909
      4 O3G        -5.4709    4.8270   -1.5666 O.3       1 GTP        -0.7980
      5 O3B        -3.0318    5.0346   -1.9443 O.3       1 GTP        -0.7612
      6 PB         -1.4165    4.9058   -2.1436 P.3       1 GTP         1.5847
      7 O1B        -1.1390    3.8334   -3.1734 O.co2     1 GTP        -0.8859
      8 O2B        -0.8222    6.2914   -2.2635 O.co2     1 GTP        -0.8859
      9 O3A        -1.0127    4.3553   -0.6607 O.3       1 GTP        -0.7486
     10 PA          0.4528    3.9705   -0.0493 P.3       1 GTP         1.5001
     11 O1A         1.0046    2.7881   -0.8159 O.co2     1 GTP        -0.8487
     12 O2A         1.2580    5.2411    0.1148 O.co2     1 GTP        -0.8487
     13 O5'         0.0178    3.5131    1.4595 O.3       1 GTP        -0.5474
     14 C5'        -0.8811    2.4285    1.6206 C.3       1 GTP         0.2547
     15 C4'        -0.1994    1.3333    2.4288 C.3       1 GTP         0.0926
     16 O4'        -1.1285    0.2356    2.5840 O.3       1 GTP        -0.3593
     17 C3'         1.0324    0.7610    1.7344 C.3       1 GTP         0.0907
     18 O3'         1.9175    0.2377    2.7247 O.3       1 GTP        -0.5209
     19 C2'         0.4468   -0.3802    0.9263 C.3       1 GTP         0.0305
     20 O2'         1.3993   -1.3703    0.5961 O.3       1 GTP        -0.5978
     21 C1'        -0.6159   -0.9100    1.8769 C.3       1 GTP         0.2339
     22 N9         -1.7127   -1.6108    1.2130 N.pl3     1 GTP        -0.1765
     23 C8         -3.0389   -1.2578    1.2391 C.ar      1 GTP         0.4947
     24 N7         -3.7909   -2.0880    0.5425 N.2       1 GTP        -0.5802
     25 C5         -2.9127   -3.0150    0.0458 C.ar      1 GTP         0.2279
     26 C6         -3.2467   -4.1411   -0.7860 C.ar      1 GTP         0.6513
     27 O6         -4.3761   -4.4189   -1.1621 O.2       1 GTP        -0.5111
     28 N1         -2.0748   -4.9191   -1.1296 N.pl3     1 GTP        -0.4713
     29 C2         -0.7595   -4.6181   -0.7058 C.ar      1 GTP         0.5256
     30 N2          0.2985   -5.4268   -1.0920 N.pl3     1 GTP        -0.8665
     31 N3         -0.5304   -3.4919    0.1084 N.pl3     1 GTP        -0.5398
     32 C4         -1.6318   -2.7332    0.4512 C.ar      1 GTP        -0.0275
     33 HOG3       -5.5546    5.5162   -0.8735 H         1 GTP         0.4161
     34 H5'        -1.7771    2.7849    2.1387 H         1 GTP         0.0348
     35 H5''       -1.1654    2.0541    0.6320 H         1 GTP         0.0348
     36 H4'         0.0403    1.7078    3.4343 H         1 GTP         0.1215
     37 H3'         1.5907    1.4859    1.1353 H         1 GTP         0.0576
     38 HO3'        2.6839   -0.1150    2.2479 H         1 GTP         0.3842
     39 H2'        -0.0017    0.0018    0.0005 H         1 GTP         0.0252
     40 HO2'        2.0953   -0.9375    0.0709 H         1 GTP         0.4224
     41 H1'        -0.1998   -1.6319    2.6178 H         1 GTP         0.0745
     42 H8         -3.3933   -0.3909    1.7800 H         1 GTP         0.1522
     43 HN1        -2.2071   -5.7408   -1.7178 H         1 GTP         0.3518
     44 HN21        1.1896   -5.1751   -0.7715 H         1 GTP         0.4761
     45 HN22        0.0846   -6.1966   -1.6593 H         1 GTP         0.4761
     46 H46         0.4142   -3.2695    0.4160 H         1 GTP         0.5030
@<TRIPOS>BOND
     1    1    2 2
     2    1    3 1
     3    1    4 1
     4    1    5 1
     5    4   33 1
     6    5    6 1
     7    6    7 2
     8    6    8 1
     9    6    9 1
    10    9   10 1
    11   10   11 2
    12   10   12 1
    13   10   13 1
    14   13   14 1
    15   14   15 1
    16   14   34 1
    17   14   35 1
    18   15   16 1
    19   15   17 1
    20   15   36 1
    21   16   21 1
    22   17   18 1
    23   17   19 1
    24   17   37 1
    25   18   38 1
    26   19   20 1
    27   19   21 1
    28   19   39 1
    29   20   40 1
    30   21   22 1
    31   21   41 1
    32   22   23 ar
    33   22   32 ar
    34   23   24 ar
    35   23   42 1
    36   24   25 ar
    37   25   26 ar
    38   25   32 ar
    39   26   27 2
    40   26   28 ar
    41   28   29 ar
    42   28   43 1
    43   29   30 1
    44   29   31 ar
    45   30   44 1
    46   30   45 1
    47   31   32 ar
    48   31   46 1
@<TRIPOS>SUBSTRUCTURE
     1 GTP         1 GROUP 0 A     ****
@<TRIPOS>MOLECULE
[[[5-(2-amino-6-oxo-1,3-dihydropurin-2-ylium-9-yl)-3,4-dihydroxy-tetrahydrofuran-2-yl]methoxy-oxido-phosphoryl]oxy-oxido-phosphoryl] hydrogen phosphate
   46    48     1     0     0
SMALL
USER_CHARGES

@<TRIPOS>ATOM
      1 PG          0.8991    8.4551    0.6114 P.3       1 GTP         1.5400
      2 O1G         1.1465    8.5777   -0.8756 O.co2     1 GTP        -0.8909
      3 O2G         0.3119    9.6050    1.3991 O.co2     1 GTP        -0.8909
      4 O3G         2.2885    7.9894    1.3316 O.3       1 GTP        -0.7980
      5 O3B         0.0134    7.1136    0.8937 O.3       1 GTP        -0.7612
      6 PB         -1.5294    6.7731    0.4821 P.3       1 GTP         1.5847
      7 O1B        -2.4493    7.7119    1.2304 O.co2     1 GTP        -0.8859
      8 O2B        -1.6150    6.6104   -1.0192 O.co2     1 GTP        -0.8859
      9 O3A        -1.6454    5.2741    1.1179 O.3       1 GTP        -0.7486
     10 PA         -1.4709    4.7755    2.6641 P.3       1 GTP         1.5001
     11 O1A        -0.0423    5.0242    3.0972 O.co2     1 GTP        -0.8487
     12 O2A        -2.6365    5.2974    3.4757 O.co2     1 GTP        -0.8487
     13 O5'        -1.7336    3.1724    2.4750 O.3       1 GTP        -0.5474
     14 C5'        -0.8811    2.4285    1.6206 C.3       1 GTP         0.2547
     15 C4'        -0.1994    1.3333    2.4288 C.3       1 GTP         0.0926
     16 O4'        -1.1285    0.2356    2.5840 O.3       1 GTP        -0.3593
     17 C3'         1.0324    0.7610    1.7344 C.3       1 GTP         0.0907
     18 O3'         1.9175    0.2377    2.7247 O.3       1 GTP        -0.5209
     19 C2'         0.4468   -0.3802    0.9263 C.3       1 GTP         0.0305
     20 O2'         1.3993   -1.3703    0.5961 O.3       1 GTP        -0.5978
     21 C1'        -0.6159   -0.9100    1.8769 C.3       1 GTP         0.2339
     22 N9         -1.7127   -1.6108    1.2130 N.pl3     1 GTP        -0.1765
     23 C8         -3.0389   -1.2578    1.2391 C.ar      1 GTP         0.4947
     24 N7         -3.7909   -2.0880    0.5425 N.2       1 GTP        -0.5802
     25 C5         -2.9127   -3.0150    0.0458 C.ar      1 GTP         0.2279
     26 C6         -3.2467   -4.1411   -0.7860 C.ar      1 GTP         0.6513
     27 O6         -4.3761   -4.4189   -1.1621 O.2       1 GTP        -0.5111
     28 N1         -2.0748   -4.9191   -1.1296 N.pl3     1 GTP        -0.4713
     29 C2         -0.7595   -4.6181   -0.7058 C.ar      1 GTP         0.5256
     30 N2          0.2985   -5.4268   -1.0920 N.pl3     1 GTP        -0.8665
     31 N3         -0.5304   -3.4919    0.1084 N.pl3     1 GTP        -0.5398
     32 C4         -1.6318   -2.7332    0.4512 C.ar      1 GTP        -0.0275
     33 HOG3        2.2911    7.8649    2.3046 H         1 GTP         0.4161
     34 H5'        -1.4800    1.9927    0.8146 H         1 GTP         0.0348
     35 H5''       -0.1367    3.1040    1.1872 H         1 GTP         0.0348
     36 H4'         0.0403    1.7078    3.4343 H         1 GTP         0.1215
     37 H3'         1.5907    1.4859    1.1353 H         1 GTP         0.0576
     38 HO3'        2.1521    0.9800    3.3017 H         1 GTP         0.3842
     39 H2'        -0.0017    0.0018    0.0005 H         1 GTP         0.0252
     40 HO2'        1.7495   -1.7243    1.4324 H         1 GTP         0.4224
     41 H1'        -0.1998   -1.6319    2.6178 H         1 GTP         0.0745
     42 H8         -3.3933   -0.3909    1.7800 H         1 GTP         0.1522
     43 HN1        -2.2071   -5.7408   -1.7178 H         1 GTP         0.3518
     44 HN21        0.0848   -6.1964   -1.6597 H         1 GTP         0.4761
     45 HN22        1.1896   -5.1747   -0.7719 H         1 GTP         0.4761
     46 H46         0.4142   -3.2695    0.4160 H         1 GTP         0.5030
@<TRIPOS>BOND
     1    1    2 2
     2    1    3 1
     3    1    4 1
     4    1    5 1
     5    4   33 1
     6    5    6 1
     7    6    7 2
     8    6    8 1
     9    6    9 1
    10    9   10 1
    11   10   11 2
    12   10   12 1
    13   10   13 1
    14   13   14 1
    15   14   15 1
    16   14   34 1
    17   14   35 1
    18   15   16 1
    19   15   17 1
    20   15   36 1
    21   16   21 1
    22   17   18 1
    23   17   19 1
    24   17   37 1
    25   18   38 1
    26   19   20 1
    27   19   21 1
    28   19   39 1
    29   20   40 1
    30   21   22 1
    31   21   41 1
    32   22   23 ar
    33   22   32 ar
    34   23   24 ar
    35   23   42 1
    36   24   25 ar
    37   25   26 ar
    38   25   32 ar
    39   26   27 2
    40   26   28 ar
    41   28   29 ar
    42   28   43 1
    43   29   30 1
    44   29   31 ar
    45   30   44 1
    46   30   45 1
    47   31   32 ar
    48   31   46 1
@<TRIPOS>SUBSTRUCTURE
     1 GTP         1 GROUP 0 A     ****
@<TRIPOS>MOLECULE
[[[5-(2-amino-6-oxo-1,3-dihydropurin-2-ylium-9-yl)-3,4-dihydroxy-tetrahydrofuran-2-yl]methoxy-oxido-phosphoryl]oxy-oxido-phosphoryl] hydrogen phosphate
   46    48     1     0     0
SMALL
USER_CHARGES

@<TRIPOS>ATOM
      1 PG          9.7733    0.3145   -2.3740 P.3       1 GTP         1.5400
      2 O1G         9.2290   -0.8348   -3.1926 O.co2     1 GTP        -0.8909
      3 O2G        10.7482    1.3031   -2.9740 O.co2     1 GTP        -0.8909
      4 O3G        10.4236   -0.2877   -1.0027 O.3       1 GTP        -0.7980
      5 O3B         8.5257    1.1353   -1.7155 O.3       1 GTP        -0.7612
      6 PB          8.5328    2.3572   -0.6326 P.3       1 GTP         1.5847
      7 O1B         9.0714    1.8373    0.6816 O.co2     1 GTP        -0.8859
      8 O2B         9.1045    3.5943   -1.2886 O.co2     1 GTP        -0.8859
      9 O3A         6.9241    2.6024   -0.5039 O.3       1 GTP        -0.7486
     10 PA          6.0980    3.6799    0.4052 P.3       1 GTP         1.5001
     11 O1A         6.3301    3.3626    1.8666 O.co2     1 GTP        -0.8487
     12 O2A         6.3471    5.0681   -0.1431 O.co2     1 GTP        -0.8487
     13 O5'         4.5670    3.2937   -0.0211 O.3       1 GTP        -0.5474
     14 C5'         4.0922    1.9801    0.2227 C.3       1 GTP         0.2547
     15 C4'         2.5944    2.0310    0.4653 C.3       1 GTP         0.0926
     16 O4'         1.9327    2.5740   -0.6889 O.3       1 GTP        -0.3593
     17 C3'         1.9685    0.6634    0.6767 C.3       1 GTP         0.0907
     18 O3'         2.1425    0.1975    1.9977 O.3       1 GTP        -0.5209
     19 C2'         0.5176    0.9128    0.3099 C.3       1 GTP         0.0305
     20 O2'        -0.2103    1.4454    1.4152 O.3       1 GTP        -0.5978
     21 C1'         0.6219    1.9765   -0.7844 C.3       1 GTP         0.2339
     22 N9          0.4237    1.4496   -2.1357 N.pl3     1 GTP        -0.1765
     23 C8          1.3988    0.9691   -2.9736 C.ar      1 GTP         0.4947
     24 N7          0.9092    0.5634   -4.1293 N.2       1 GTP        -0.5802
     25 C5         -0.4383    0.7914   -4.0325 C.ar      1 GTP         0.2279
     26 C6         -1.4217    0.5138   -5.0461 C.ar      1 GTP         0.6513
     27 O6         -1.1759    0.0306   -6.1417 O.2       1 GTP        -0.5111
     28 N1         -2.7543    0.8794   -4.6134 N.pl3     1 GTP        -0.4713
     29 C2         -3.0626    1.4402   -3.3523 C.ar      1 GTP         0.5256
     30 N2         -4.3747    1.7544   -3.0321 N.pl3     1 GTP        -0.8665
     31 N3         -2.0304    1.6759   -2.4233 N.pl3     1 GTP        -0.5398
     32 C4         -0.7497    1.3366   -2.8118 C.ar      1 GTP        -0.0275
     33 HOG3       10.8219    0.3381   -0.3608 H         1 GTP         0.4161
     34 H5'         4.3179    1.3548   -0.6470 H         1 GTP         0.0348
     35 H5''        4.6083    1.5737    1.0983 H         1 GTP         0.0348
     36 H4'         2.3752    2.7029    1.3156 H         1 GTP         0.1215
     37 H3'         2.4336   -0.1217   -0.0015 H         1 GTP         0.0576
     38 HO3'        1.7160   -0.6716    2.0397 H         1 GTP         0.3842
     39 H2'         0.0316    0.0155   -0.0339 H         1 GTP         0.0252
     40 HO2'       -0.1608    0.7921    2.1351 H         1 GTP         0.4224
     41 H1'        -0.1474    2.7798   -0.6651 H         1 GTP         0.0745
     42 H8          2.4413    0.9409   -2.6872 H         1 GTP         0.1522
     43 HN1        -3.5236    0.7214   -5.2629 H         1 GTP         0.3518
     44 HN21       -4.5350    2.1409   -2.1461 H         1 GTP         0.4761
     45 HN22       -5.0542    1.5695   -3.7134 H         1 GTP         0.4761
     46 H46        -2.2462    2.0786   -1.5136 H         1 GTP         0.5030
@<TRIPOS>BOND
     1    1    2 2
     2    1    3 1
     3    1    4 1
     4    1    5 1
     5    4   33 1
     6    5    6 1
     7    6    7 2
     8    6    8 1
     9    6    9 1
    10    9   10 1
    11   10   11 2
    12   10   12 1
    13   10   13 1
    14   13   14 1
    15   14   15 1
    16   14   34 1
    17   14   35 1
    18   15   16 1
    19   15   17 1
    20   15   36 1
    21   16   21 1
    22   17   18 1
    23   17   19 1
    24   17   37 1
    25   18   38 1
    26   19   20 1
    27   19   21 1
    28   19   39 1
    29   20   40 1
    30   21   22 1
    31   21   41 1
    32   22   23 ar
    33   22   32 ar
    34   23   24 ar
    35   23   42 1
    36   24   25 ar
    37   25   26 ar
    38   25   32 ar
    39   26   27 2
    40   26   28 ar
    41   28   29 ar
    42   28   43 1
    43   29   30 1
    44   29   31 ar
    45   30   44 1
    46   30   45 1
    47   31   32 ar
    48   31   46 1
@<TRIPOS>SUBSTRUCTURE
     1 GTP         1 GROUP 0 A     ****
@<TRIPOS>MOLECULE
[[[5-(2-amino-6-oxo-1,3-dihydropurin-2-ylium-9-yl)-3,4-dihydroxy-tetrahydrofuran-2-yl]methoxy-oxido-phosphoryl]oxy-oxido-phosphoryl] hydrogen phosphate
   46    48     1     0     0
SMALL
USER_CHARGES

@<TRIPOS>ATOM
      1 PG         -0.0300    8.7735    0.7223 P.3       1 GTP         1.5400
      2 O1G        -1.1654    9.7669    0.8294 O.co2     1 GTP        -0.8909
      3 O2G         1.3160    9.0609    1.3496 O.co2     1 GTP        -0.8909
      4 O3G         0.1987    8.4153   -0.8542 O.3       1 GTP        -0.7980
      5 O3B        -0.5512    7.3139    1.2337 O.3       1 GTP        -0.7612
      6 PB         -1.0016    6.8281    2.7259 P.3       1 GTP         1.5847
      7 O1B         0.2052    6.8760    3.6363 O.co2     1 GTP        -0.8859
      8 O2B        -2.2999    7.5101    3.0957 O.co2     1 GTP        -0.8859
      9 O3A        -1.3731    5.2735    2.3942 O.3       1 GTP        -0.7486
     10 PA         -1.9156    4.0918    3.3837 P.3       1 GTP         1.5001
     11 O1A        -0.8453    3.7865    4.4092 O.co2     1 GTP        -0.8487
     12 O2A        -3.3304    4.4243    3.8049 O.co2     1 GTP        -0.8487
     13 O5'        -2.0401    2.8620    2.3128 O.3       1 GTP        -0.5474
     14 C5'        -0.8811    2.4285    1.6206 C.3       1 GTP         0.2547
     15 C4'        -0.1994    1.3333    2.4288 C.3       1 GTP         0.0926
     16 O4'        -1.1285    0.2356    2.5840 O.3       1 GTP        -0.3593
     17 C3'         1.0324    0.7610    1.7344 C.3       1 GTP         0.0907
     18 O3'         1.9175    0.2377    2.7247 O.3       1 GTP        -0.5209
     19 C2'         0.4468   -0.3802    0.9263 C.3       1 GTP         0.0305
     20 O2'         1.3993   -1.3703    0.5961 O.3       1 GTP        -0.5978
     21 C1'        -0.6159   -0.9100    1.8769 C.3       1 GTP         0.2339
     22 N9         -1.7127   -1.6108    1.2130 N.pl3     1 GTP        -0.1765
     23 C8         -1.6092   -2.7449    0.4467 C.ar      1 GTP         0.4947
     24 N7         -2.7778   -3.1416   -0.0191 N.2       1 GTP        -0.5802
     25 C5         -3.6725   -2.2253    0.4675 C.ar      1 GTP         0.2279
     26 C6         -5.0932   -2.2202    0.2371 C.ar      1 GTP         0.6513
     27 O6         -5.6933   -3.0474   -0.4337 O.2       1 GTP        -0.5111
     28 N1         -5.7390   -1.1061    0.8992 N.pl3     1 GTP        -0.4713
     29 C2         -5.0661   -0.1368    1.6789 C.ar      1 GTP         0.5256
     30 N2         -5.7774    0.8934    2.2749 N.pl3     1 GTP        -0.8665
     31 N3         -3.6705   -0.2251    1.8481 N.pl3     1 GTP        -0.5398
     32 C4         -3.0303   -1.2785    1.2262 C.ar      1 GTP        -0.0275
     33 HOG3        0.9067    7.7787   -1.0904 H         1 GTP         0.4161
     34 H5'        -1.1767    2.0502    0.6368 H         1 GTP         0.0348
     35 H5''       -0.2080    3.2814    1.4876 H         1 GTP         0.0348
     36 H4'         0.0403    1.7078    3.4343 H         1 GTP         0.1215
     37 H3'         1.5907    1.4859    1.1353 H         1 GTP         0.0576
     38 HO3'        2.1521    0.9800    3.3017 H         1 GTP         0.3842
     39 H2'        -0.0017    0.0018    0.0005 H         1 GTP         0.0252
     40 HO2'        2.0953   -0.9375    0.0709 H         1 GTP         0.4224
     41 H1'        -0.1998   -1.6319    2.6178 H         1 GTP         0.0745
     42 H8         -0.6610   -3.2324    0.2653 H         1 GTP         0.1522
     43 HN1        -6.7487   -1.0139    0.7961 H         1 GTP         0.3518
     44 HN21       -5.2644    1.5388    2.8044 H         1 GTP         0.4761
     45 HN22       -6.7459    0.9078    2.1265 H         1 GTP         0.4761
     46 H46        -3.1807    0.4690    2.4089 H         1 GTP         0.5030
@<TRIPOS>BOND
     1    1    2 2
     2    1    3 1
     3    1    4 1
     4    1    5 1
     5    4   33 1
     6    5    6 1
     7    6    7 2
     8    6    8 1
     9    6    9 1
    10    9   10 1
    11   10   11 2
    12   10   12 1
    13   10   13 1
    14   13   14 1
    15   14   15 1
    16   14   34 1
    17   14   35 1
    18   15   16 1
    19   15   17 1
    20   15   36 1
    21   16   21 1
    22   17   18 1
    23   17   19 1
    24   17   37 1
    25   18   38 1
    26   19   20 1
    27   19   21 1
    28   19   39 1
    29   20   40 1
    30   21   22 1
    31   21   41 1
    32   22   23 ar
    33   22   32 ar
    34   23   24 ar
    35   23   42 1
    36   24   25 ar
    37   25   26 ar
    38   25   32 ar
    39   26   27 2
    40   26   28 ar
    41   28   29 ar
    42   28   43 1
    43   29   30 1
    44   29   31 ar
    45   30   44 1
    46   30   45 1
    47   31   32 ar
    48   31   46 1
@<TRIPOS>SUBSTRUCTURE
     1 GTP         1 GROUP 0 A     ****
@<TRIPOS>MOLECULE
[[[5-(2-amino-6-oxo-1,3-dihydropurin-2-ylium-9-yl)-3,4-dihydroxy-tetrahydrofuran-2-yl]methoxy-oxido-phosphoryl]oxy-oxido-phosphoryl] hydrogen phosphate
   46    48     1     0     0
SMALL
USER_CHARGES

@<TRIPOS>ATOM
      1 PG         -5.1321    5.8996    4.8436 P.3       1 GTP         1.5400
      2 O1G        -4.8168    7.2115    5.5270 O.co2     1 GTP        -0.8909
      3 O2G        -6.1635    5.8265    3.7396 O.co2     1 GTP        -0.8909
      4 O3G        -5.5170    4.7988    5.9864 O.3       1 GTP        -0.7980
      5 O3B        -3.7417    5.2291    4.3137 O.3       1 GTP        -0.7612
      6 PB         -2.3622    4.9034    5.1240 P.3       1 GTP         1.5847
      7 O1B        -1.7349    6.2094    5.5579 O.co2     1 GTP        -0.8859
      8 O2B        -2.6205    3.7838    6.1076 O.co2     1 GTP        -0.8859
      9 O3A        -1.4890    4.2572    3.9055 O.3       1 GTP        -0.7486
     10 PA         -1.0308    4.9148    2.4816 P.3       1 GTP         1.5001
     11 O1A        -2.2675    5.2030    1.6584 O.co2     1 GTP        -0.8487
     12 O2A        -0.0037    5.9921    2.7538 O.co2     1 GTP        -0.8487
     13 O5'        -0.2062    3.6557    1.8417 O.3       1 GTP        -0.5474
     14 C5'        -0.8811    2.4285    1.6206 C.3       1 GTP         0.2547
     15 C4'        -0.1994    1.3333    2.4288 C.3       1 GTP         0.0926
     16 O4'        -1.1285    0.2356    2.5840 O.3       1 GTP        -0.3593
     17 C3'         1.0324    0.7610    1.7344 C.3       1 GTP         0.0907
     18 O3'         1.9175    0.2377    2.7247 O.3       1 GTP        -0.5209
     19 C2'         0.4468   -0.3802    0.9263 C.3       1 GTP         0.0305
     20 O2'         1.3993   -1.3703    0.5961 O.3       1 GTP        -0.5978
     21 C1'        -0.6159   -0.9100    1.8769 C.3       1 GTP         0.2339
     22 N9         -1.7127   -1.6108    1.2130 N.pl3     1 GTP        -0.1765
     23 C8         -2.5534   -1.0907    0.2607 C.ar      1 GTP         0.4947
     24 N7         -3.4469   -1.9695   -0.1508 N.2       1 GTP        -0.5802
     25 C5         -3.1705   -3.1041    0.5657 C.ar      1 GTP         0.2279
     26 C6         -3.8738   -4.3568    0.4777 C.ar      1 GTP         0.6513
     27 O6         -4.8240   -4.5720   -0.2607 O.2       1 GTP        -0.5111
     28 N1         -3.3198   -5.3462    1.3780 N.pl3     1 GTP        -0.4713
     29 C2         -2.2226   -5.1203    2.2413 C.ar      1 GTP         0.5256
     30 N2         -1.7649   -6.1367    3.0659 N.pl3     1 GTP        -0.8665
     31 N3         -1.5969   -3.8585    2.2574 N.pl3     1 GTP        -0.5398
     32 C4         -2.1068   -2.8965    1.4082 C.ar      1 GTP        -0.0275
     33 HOG3       -5.7486    3.8897    5.6997 H         1 GTP         0.4161
     34 H5'        -1.9256    2.5380    1.9293 H         1 GTP         0.0348
     35 H5''       -0.8474    2.1930    0.5521 H         1 GTP         0.0348
     36 H4'         0.0403    1.7078    3.4343 H         1 GTP         0.1215
     37 H3'         1.5907    1.4859    1.1353 H         1 GTP         0.0576
     38 HO3'        2.6839   -0.1150    2.2479 H         1 GTP         0.3842
     39 H2'        -0.0017    0.0018    0.0005 H         1 GTP         0.0252
     40 HO2'        2.0953   -0.9375    0.0709 H         1 GTP         0.4224
     41 H1'        -0.1998   -1.6319    2.6178 H         1 GTP         0.0745
     42 H8         -2.4657   -0.0713   -0.0897 H         1 GTP         0.1522
     43 HN1        -3.7505   -6.2699    1.3904 H         1 GTP         0.3518
     44 HN21       -1.0023   -5.9289    3.6451 H         1 GTP         0.4761
     45 HN22       -2.2347   -6.9951    3.0150 H         1 GTP         0.4761
     46 H46        -0.8062   -3.6900    2.8760 H         1 GTP         0.5030
@<TRIPOS>BOND
     1    1    2 2
     2    1    3 1
     3    1    4 1
     4    1    5 1
     5    4   33 1
     6    5    6 1
     7    6    7 2
     8    6    8 1
     9    6    9 1
    10    9   10 1
    11   10   11 2
    12   10   12 1
    13   10   13 1
    14   13   14 1
    15   14   15 1
    16   14   34 1
    17   14   35 1
    18   15   16 1
    19   15   17 1
    20   15   36 1
    21   16   21 1
    22   17   18 1
    23   17   19 1
    24   17   37 1
    25   18   38 1
    26   19   20 1
    27   19   21 1
    28   19   39 1
    29   20   40 1
    30   21   22 1
    31   21   41 1
    32   22   23 ar
    33   22   32 ar
    34   23   24 ar
    35   23   42 1
    36   24   25 ar
    37   25   26 ar
    38   25   32 ar
    39   26   27 2
    40   26   28 ar
    41   28   29 ar
    42   28   43 1
    43   29   30 1
    44   29   31 ar
    45   30   44 1
    46   30   45 1
    47   31   32 ar
    48   31   46 1
@<TRIPOS>SUBSTRUCTURE
     1 GTP         1 GROUP 0 A     ****
@<TRIPOS>MOLECULE
[[[5-(2-amino-6-oxo-1,3-dihydropurin-2-ylium-9-yl)-3,4-dihydroxy-tetrahydrofuran-2-yl]methoxy-oxido-phosphoryl]oxy-oxido-phosphoryl] hydrogen phosphate
   46    48     1     0     0
SMALL
USER_CHARGES

@<TRIPOS>ATOM
      1 PG         10.0876    3.9398   -1.1938 P.3       1 GTP         1.5400
      2 O1G         9.6803    5.3077   -1.6941 O.co2     1 GTP        -0.8909
      3 O2G        11.2707    3.7717   -0.2666 O.co2     1 GTP        -0.8909
      4 O3G        10.2943    2.9570   -2.4812 O.3       1 GTP        -0.7980
      5 O3B         8.7880    3.2080   -0.5311 O.3       1 GTP        -0.7612
      6 PB          8.6158    1.6813    0.0213 P.3       1 GTP         1.5847
      7 O1B         8.7377    0.7268   -1.1456 O.co2     1 GTP        -0.8859
      8 O2B         9.4487    1.5125    1.2725 O.co2     1 GTP        -0.8859
      9 O3A         7.0590    1.7526    0.5072 O.3       1 GTP        -0.7486
     10 PA          6.1203    0.6016    1.1881 P.3       1 GTP         1.5001
     11 O1A         5.9268   -0.5209    0.1916 O.co2     1 GTP        -0.8487
     12 O2A         6.6284    0.3270    2.5868 O.co2     1 GTP        -0.8487
     13 O5'         4.7294    1.4427    1.3696 O.3       1 GTP        -0.5474
     14 C5'         4.0922    1.9801    0.2227 C.3       1 GTP         0.2547
     15 C4'         2.5944    2.0310    0.4653 C.3       1 GTP         0.0926
     16 O4'         1.9327    2.5740   -0.6889 O.3       1 GTP        -0.3593
     17 C3'         1.9685    0.6634    0.6767 C.3       1 GTP         0.0907
     18 O3'         2.1425    0.1975    1.9977 O.3       1 GTP        -0.5209
     19 C2'         0.5176    0.9128    0.3099 C.3       1 GTP         0.0305
     20 O2'        -0.2103    1.4454    1.4152 O.3       1 GTP        -0.5978
     21 C1'         0.6219    1.9765   -0.7844 C.3       1 GTP         0.2339
     22 N9          0.4237    1.4496   -2.1357 N.pl3     1 GTP        -0.1765
     23 C8          1.3988    0.9691   -2.9736 C.ar      1 GTP         0.4947
     24 N7          0.9092    0.5634   -4.1293 N.2       1 GTP        -0.5802
     25 C5         -0.4383    0.7914   -4.0325 C.ar      1 GTP         0.2279
     26 C6         -1.4217    0.5138   -5.0461 C.ar      1 GTP         0.6513
     27 O6         -1.1759    0.0306   -6.1417 O.2       1 GTP        -0.5111
     28 N1         -2.7543    0.8794   -4.6134 N.pl3     1 GTP        -0.4713
     29 C2         -3.0626    1.4402   -3.3523 C.ar      1 GTP         0.5256
     30 N2         -4.3747    1.7544   -3.0321 N.pl3     1 GTP        -0.8665
     31 N3         -2.0304    1.6759   -2.4233 N.pl3     1 GTP        -0.5398
     32 C4         -0.7497    1.3366   -2.8118 C.ar      1 GTP        -0.0275
     33 HOG3       10.5618    2.0270   -2.3205 H         1 GTP         0.4161
     34 H5'         4.4843    2.9854    0.0380 H         1 GTP         0.0348
     35 H5''        4.3191    1.3446   -0.6392 H         1 GTP         0.0348
     36 H4'         2.3752    2.7029    1.3156 H         1 GTP         0.1215
     37 H3'         2.4336   -0.1217   -0.0015 H         1 GTP         0.0576
     38 HO3'        3.0987    0.1465    2.1461 H         1 GTP         0.3842
     39 H2'         0.0316    0.0155   -0.0339 H         1 GTP         0.0252
     40 HO2'       -0.1608    0.7921    2.1351 H         1 GTP         0.4224
     41 H1'        -0.1474    2.7798   -0.6651 H         1 GTP         0.0745
     42 H8          2.4413    0.9409   -2.6872 H         1 GTP         0.1522
     43 HN1        -3.5236    0.7214   -5.2629 H         1 GTP         0.3518
     44 HN21       -4.5350    2.1409   -2.1461 H         1 GTP         0.4761
     45 HN22       -5.0542    1.5695   -3.7134 H         1 GTP         0.4761
     46 H46        -2.2462    2.0786   -1.5136 H         1 GTP         0.5030
@<TRIPOS>BOND
     1    1    2 2
     2    1    3 1
     3    1    4 1
     4    1    5 1
     5    4   33 1
     6    5    6 1
     7    6    7 2
     8    6    8 1
     9    6    9 1
    10    9   10 1
    11   10   11 2
    12   10   12 1
    13   10   13 1
    14   13   14 1
    15   14   15 1
    16   14   34 1
    17   14   35 1
    18   15   16 1
    19   15   17 1
    20   15   36 1
    21   16   21 1
    22   17   18 1
    23   17   19 1
    24   17   37 1
    25   18   38 1
    26   19   20 1
    27   19   21 1
    28   19   39 1
    29   20   40 1
    30   21   22 1
    31   21   41 1
    32   22   23 ar
    33   22   32 ar
    34   23   24 ar
    35   23   42 1
    36   24   25 ar
    37   25   26 ar
    38   25   32 ar
    39   26   27 2
    40   26   28 ar
    41   28   29 ar
    42   28   43 1
    43   29   30 1
    44   29   31 ar
    45   30   44 1
    46   30   45 1
    47   31   32 ar
    48   31   46 1
@<TRIPOS>SUBSTRUCTURE
     1 GTP         1 GROUP 0 A     ****
@<TRIPOS>MOLECULE
[[[5-(2-amino-6-oxo-1,3-dihydropurin-2-ylium-9-yl)-3,4-dihydroxy-tetrahydrofuran-2-yl]methoxy-oxido-phosphoryl]oxy-oxido-phosphoryl] hydrogen phosphate
   46    48     1     0     0
SMALL
USER_CHARGES

@<TRIPOS>ATOM
      1 PG         -5.2262    5.0244    5.6421 P.3       1 GTP         1.5400
      2 O1G        -6.4471    5.3966    4.8308 O.co2     1 GTP        -0.8909
      3 O2G        -5.2744    3.8928    6.6445 O.co2     1 GTP        -0.8909
      4 O3G        -4.6778    6.3637    6.3981 O.3       1 GTP        -0.7980
      5 O3B        -3.9695    4.7808    4.6295 O.3       1 GTP        -0.7612
      6 PB         -3.3605    5.7510    3.4661 P.3       1 GTP         1.5847
      7 O1B        -4.3955    5.9075    2.3744 O.co2     1 GTP        -0.8859
      8 O2B        -2.7076    6.9505    4.1159 O.co2     1 GTP        -0.8859
      9 O3A        -2.1486    4.7947    2.9355 O.3       1 GTP        -0.7486
     10 PA         -1.0483    5.0551    1.7560 P.3       1 GTP         1.5001
     11 O1A        -1.7704    5.1510    0.4295 O.co2     1 GTP        -0.8487
     12 O2A        -0.0993    6.1426    2.2105 O.co2     1 GTP        -0.8487
     13 O5'        -0.2062    3.6557    1.8417 O.3       1 GTP        -0.5474
     14 C5'        -0.8811    2.4285    1.6206 C.3       1 GTP         0.2547
     15 C4'        -0.1994    1.3333    2.4288 C.3       1 GTP         0.0926
     16 O4'        -1.1285    0.2356    2.5840 O.3       1 GTP        -0.3593
     17 C3'         1.0324    0.7610    1.7344 C.3       1 GTP         0.0907
     18 O3'         1.9175    0.2377    2.7247 O.3       1 GTP        -0.5209
     19 C2'         0.4468   -0.3802    0.9263 C.3       1 GTP         0.0305
     20 O2'         1.3993   -1.3703    0.5961 O.3       1 GTP        -0.5978
     21 C1'        -0.6159   -0.9100    1.8769 C.3       1 GTP         0.2339
     22 N9         -1.7127   -1.6108    1.2130 N.pl3     1 GTP        -0.1765
     23 C8         -2.5534   -1.0907    0.2607 C.ar      1 GTP         0.4947
     24 N7         -3.4469   -1.9695   -0.1508 N.2       1 GTP        -0.5802
     25 C5         -3.1705   -3.1041    0.5657 C.ar      1 GTP         0.2279
     26 C6         -3.8738   -4.3568    0.4777 C.ar      1 GTP         0.6513
     27 O6         -4.8240   -4.5720   -0.2607 O.2       1 GTP        -0.5111
     28 N1         -3.3198   -5.3462    1.3780 N.pl3     1 GTP        -0.4713
     29 C2         -2.2226   -5.1203    2.2413 C.ar      1 GTP         0.5256
     30 N2         -1.7649   -6.1367    3.0659 N.pl3     1 GTP        -0.8665
     31 N3         -1.5969   -3.8585    2.2574 N.pl3     1 GTP        -0.5398
     32 C4         -2.1068   -2.8965    1.4082 C.ar      1 GTP        -0.0275
     33 HOG3       -3.8836    6.2857    6.9685 H         1 GTP         0.4161
     34 H5'        -1.9256    2.5380    1.9293 H         1 GTP         0.0348
     35 H5''       -0.8474    2.1930    0.5521 H         1 GTP         0.0348
     36 H4'         0.0403    1.7078    3.4343 H         1 GTP         0.1215
     37 H3'         1.5907    1.4859    1.1353 H         1 GTP         0.0576
     38 HO3'        2.1521    0.9800    3.3017 H         1 GTP         0.3842
     39 H2'        -0.0017    0.0018    0.0005 H         1 GTP         0.0252
     40 HO2'        2.0953   -0.9375    0.0709 H         1 GTP         0.4224
     41 H1'        -0.1998   -1.6319    2.6178 H         1 GTP         0.0745
     42 H8         -2.4657   -0.0713   -0.0897 H         1 GTP         0.1522
     43 HN1        -3.7505   -6.2699    1.3904 H         1 GTP         0.3518
     44 HN21       -1.0023   -5.9289    3.6451 H         1 GTP         0.4761
     45 HN22       -2.2347   -6.9951    3.0150 H         1 GTP         0.4761
     46 H46        -0.8062   -3.6900    2.8760 H         1 GTP         0.5030
@<TRIPOS>BOND
     1    1    2 2
     2    1    3 1
     3    1    4 1
     4    1    5 1
     5    4   33 1
     6    5    6 1
     7    6    7 2
     8    6    8 1
     9    6    9 1
    10    9   10 1
    11   10   11 2
    12   10   12 1
    13   10   13 1
    14   13   14 1
    15   14   15 1
    16   14   34 1
    17   14   35 1
    18   15   16 1
    19   15   17 1
    20   15   36 1
    21   16   21 1
    22   17   18 1
    23   17   19 1
    24   17   37 1
    25   18   38 1
    26   19   20 1
    27   19   21 1
    28   19   39 1
    29   20   40 1
    30   21   22 1
    31   21   41 1
    32   22   23 ar
    33   22   32 ar
    34   23   24 ar
    35   23   42 1
    36   24   25 ar
    37   25   26 ar
    38   25   32 ar
    39   26   27 2
    40   26   28 ar
    41   28   29 ar
    42   28   43 1
    43   29   30 1
    44   29   31 ar
    45   30   44 1
    46   30   45 1
    47   31   32 ar
    48   31   46 1
@<TRIPOS>SUBSTRUCTURE
     1 GTP         1 GROUP 0 A     ****
@<TRIPOS>MOLECULE
[[[5-(2-amino-6-oxo-1,3-dihydropurin-2-ylium-9-yl)-3,4-dihydroxy-tetrahydrofuran-2-yl]methoxy-oxido-phosphoryl]oxy-oxido-phosphoryl] hydrogen phosphate
   46    48     1     0     0
SMALL
USER_CHARGES

@<TRIPOS>ATOM
      1 PG         10.3168    2.8067   -0.8159 P.3       1 GTP         1.5400
      2 O1G        11.0616    2.0327   -1.8807 O.co2     1 GTP        -0.8909
      3 O2G        10.5870    4.2780   -0.5924 O.co2     1 GTP        -0.8909
      4 O3G        10.4878    2.0261    0.6079 O.3       1 GTP        -0.7980
      5 O3B         8.7129    2.5894   -1.0253 O.3       1 GTP        -0.7612
      6 PB          7.7405    3.0819   -2.2408 P.3       1 GTP         1.5847
      7 O1B         7.6799    4.5931   -2.2312 O.co2     1 GTP        -0.8859
      8 O2B         8.0894    2.3115   -3.4947 O.co2     1 GTP        -0.8859
      9 O3A         6.3229    2.4759   -1.7041 O.3       1 GTP        -0.7486
     10 PA          5.8979    0.9309   -1.3848 P.3       1 GTP         1.5001
     11 O1A         5.9332    0.1400   -2.6746 O.co2     1 GTP        -0.8487
     12 O2A         6.6537    0.4639   -0.1599 O.co2     1 GTP        -0.8487
     13 O5'         4.3516    1.1575   -0.9026 O.3       1 GTP        -0.5474
     14 C5'         4.0922    1.9801    0.2227 C.3       1 GTP         0.2547
     15 C4'         2.5944    2.0310    0.4653 C.3       1 GTP         0.0926
     16 O4'         1.9327    2.5740   -0.6889 O.3       1 GTP        -0.3593
     17 C3'         1.9685    0.6634    0.6767 C.3       1 GTP         0.0907
     18 O3'         2.1425    0.1975    1.9977 O.3       1 GTP        -0.5209
     19 C2'         0.5176    0.9128    0.3099 C.3       1 GTP         0.0305
     20 O2'        -0.2103    1.4454    1.4152 O.3       1 GTP        -0.5978
     21 C1'         0.6219    1.9765   -0.7844 C.3       1 GTP         0.2339
     22 N9          0.4237    1.4496   -2.1357 N.pl3     1 GTP        -0.1765
     23 C8          1.3988    0.9691   -2.9736 C.ar      1 GTP         0.4947
     24 N7          0.9092    0.5634   -4.1293 N.2       1 GTP        -0.5802
     25 C5         -0.4383    0.7914   -4.0325 C.ar      1 GTP         0.2279
     26 C6         -1.4217    0.5138   -5.0461 C.ar      1 GTP         0.6513
     27 O6         -1.1759    0.0306   -6.1417 O.2       1 GTP        -0.5111
     28 N1         -2.7543    0.8794   -4.6134 N.pl3     1 GTP        -0.4713
     29 C2         -3.0626    1.4402   -3.3523 C.ar      1 GTP         0.5256
     30 N2         -4.3747    1.7544   -3.0321 N.pl3     1 GTP        -0.8665
     31 N3         -2.0304    1.6759   -2.4233 N.pl3     1 GTP        -0.5398
     32 C4         -0.7497    1.3366   -2.8118 C.ar      1 GTP        -0.0275
     33 HOG3       10.0584    2.4067    1.4036 H         1 GTP         0.4161
     34 H5'         4.6069    1.5618    1.0936 H         1 GTP         0.0348
     35 H5''        4.4824    2.9837    0.0254 H         1 GTP         0.0348
     36 H4'         2.3752    2.7029    1.3156 H         1 GTP         0.1215
     37 H3'         2.4336   -0.1217   -0.0015 H         1 GTP         0.0576
     38 HO3'        1.7160   -0.6716    2.0397 H         1 GTP         0.3842
     39 H2'         0.0316    0.0155   -0.0339 H         1 GTP         0.0252
     40 HO2'       -0.1608    0.7921    2.1351 H         1 GTP         0.4224
     41 H1'        -0.1474    2.7798   -0.6651 H         1 GTP         0.0745
     42 H8          2.4413    0.9409   -2.6872 H         1 GTP         0.1522
     43 HN1        -3.5236    0.7214   -5.2629 H         1 GTP         0.3518
     44 HN21       -4.5350    2.1409   -2.1461 H         1 GTP         0.4761
     45 HN22       -5.0542    1.5695   -3.7134 H         1 GTP         0.4761
     46 H46        -2.2462    2.0786   -1.5136 H         1 GTP         0.5030
@<TRIPOS>BOND
     1    1    2 2
     2    1    3 1
     3    1    4 1
     4    1    5 1
     5    4   33 1
     6    5    6 1
     7    6    7 2
     8    6    8 1
     9    6    9 1
    10    9   10 1
    11   10   11 2
    12   10   12 1
    13   10   13 1
    14   13   14 1
    15   14   15 1
    16   14   34 1
    17   14   35 1
    18   15   16 1
    19   15   17 1
    20   15   36 1
    21   16   21 1
    22   17   18 1
    23   17   19 1
    24   17   37 1
    25   18   38 1
    26   19   20 1
    27   19   21 1
    28   19   39 1
    29   20   40 1
    30   21   22 1
    31   21   41 1
    32   22   23 ar
    33   22   32 ar
    34   23   24 ar
    35   23   42 1
    36   24   25 ar
    37   25   26 ar
    38   25   32 ar
    39   26   27 2
    40   26   28 ar
    41   28   29 ar
    42   28   43 1
    43   29   30 1
    44   29   31 ar
    45   30   44 1
    46   30   45 1
    47   31   32 ar
    48   31   46 1
@<TRIPOS>SUBSTRUCTURE
     1 GTP         1 GROUP 0 A     ****
@<TRIPOS>MOLECULE
[[[5-(2-amino-6-oxo-1,3-dihydropurin-2-ylium-9-yl)-3,4-dihydroxy-tetrahydrofuran-2-yl]methoxy-oxido-phosphoryl]oxy-oxido-phosphoryl] hydrogen phosphate
   46    48     1     0     0
SMALL
USER_CHARGES

@<TRIPOS>ATOM
      1 PG         -3.5250    7.0725    5.0775 P.3       1 GTP         1.5400
      2 O1G        -4.6623    7.3354    4.1157 O.co2     1 GTP        -0.8909
      3 O2G        -3.7934    6.5837    6.4834 O.co2     1 GTP        -0.8909
      4 O3G        -2.5976    8.4136    5.1630 O.3       1 GTP        -0.7980
      5 O3B        -2.4483    6.0731    4.3665 O.3       1 GTP        -0.7612
      6 PB         -0.9772    5.5850    4.8794 P.3       1 GTP         1.5847
      7 O1B        -0.0553    6.7833    4.9190 O.co2     1 GTP        -0.8859
      8 O2B        -1.1485    4.6779    6.0775 O.co2     1 GTP        -0.8859
      9 O3A        -0.5682    4.6235    3.6252 O.3       1 GTP        -0.7486
     10 PA         -0.3962    4.9846    2.0409 P.3       1 GTP         1.5001
     11 O1A        -1.7409    5.4059    1.4892 O.co2     1 GTP        -0.8487
     12 O2A         0.8270    5.8595    1.8736 O.co2     1 GTP        -0.8487
     13 O5'         0.0178    3.5131    1.4595 O.3       1 GTP        -0.5474
     14 C5'        -0.8811    2.4285    1.6206 C.3       1 GTP         0.2547
     15 C4'        -0.1994    1.3333    2.4288 C.3       1 GTP         0.0926
     16 O4'        -1.1285    0.2356    2.5840 O.3       1 GTP        -0.3593
     17 C3'         1.0324    0.7610    1.7344 C.3       1 GTP         0.0907
     18 O3'         1.9175    0.2377    2.7247 O.3       1 GTP        -0.5209
     19 C2'         0.4468   -0.3802    0.9263 C.3       1 GTP         0.0305
     20 O2'         1.3993   -1.3703    0.5961 O.3       1 GTP        -0.5978
     21 C1'        -0.6159   -0.9100    1.8769 C.3       1 GTP         0.2339
     22 N9         -1.7127   -1.6108    1.2130 N.pl3     1 GTP        -0.1765
     23 C8         -1.6092   -2.7449    0.4467 C.ar      1 GTP         0.4947
     24 N7         -2.7778   -3.1416   -0.0191 N.2       1 GTP        -0.5802
     25 C5         -3.6725   -2.2253    0.4675 C.ar      1 GTP         0.2279
     26 C6         -5.0932   -2.2202    0.2371 C.ar      1 GTP         0.6513
     27 O6         -5.6933   -3.0474   -0.4337 O.2       1 GTP        -0.5111
     28 N1         -5.7390   -1.1061    0.8992 N.pl3     1 GTP        -0.4713
     29 C2         -5.0661   -0.1368    1.6789 C.ar      1 GTP         0.5256
     30 N2         -5.7774    0.8934    2.2749 N.pl3     1 GTP        -0.8665
     31 N3         -3.6705   -0.2251    1.8481 N.pl3     1 GTP        -0.5398
     32 C4         -3.0303   -1.2785    1.2262 C.ar      1 GTP        -0.0275
     33 HOG3       -1.8124    8.4015    5.7509 H         1 GTP         0.4161
     34 H5'        -1.7771    2.7849    2.1387 H         1 GTP         0.0348
     35 H5''       -1.1654    2.0541    0.6320 H         1 GTP         0.0348
     36 H4'         0.0403    1.7078    3.4343 H         1 GTP         0.1215
     37 H3'         1.5907    1.4859    1.1353 H         1 GTP         0.0576
     38 HO3'        2.6839   -0.1150    2.2479 H         1 GTP         0.3842
     39 H2'        -0.0017    0.0018    0.0005 H         1 GTP         0.0252
     40 HO2'        2.0953   -0.9375    0.0709 H         1 GTP         0.4224
     41 H1'        -0.1998   -1.6319    2.6178 H         1 GTP         0.0745
     42 H8         -0.6610   -3.2324    0.2653 H         1 GTP         0.1522
     43 HN1        -6.7487   -1.0139    0.7961 H         1 GTP         0.3518
     44 HN21       -5.2644    1.5388    2.8044 H         1 GTP         0.4761
     45 HN22       -6.7459    0.9078    2.1265 H         1 GTP         0.4761
     46 H46        -3.1807    0.4690    2.4089 H         1 GTP         0.5030
@<TRIPOS>BOND
     1    1    2 2
     2    1    3 1
     3    1    4 1
     4    1    5 1
     5    4   33 1
     6    5    6 1
     7    6    7 2
     8    6    8 1
     9    6    9 1
    10    9   10 1
    11   10   11 2
    12   10   12 1
    13   10   13 1
    14   13   14 1
    15   14   15 1
    16   14   34 1
    17   14   35 1
    18   15   16 1
    19   15   17 1
    20   15   36 1
    21   16   21 1
    22   17   18 1
    23   17   19 1
    24   17   37 1
    25   18   38 1
    26   19   20 1
    27   19   21 1
    28   19   39 1
    29   20   40 1
    30   21   22 1
    31   21   41 1
    32   22   23 ar
    33   22   32 ar
    34   23   24 ar
    35   23   42 1
    36   24   25 ar
    37   25   26 ar
    38   25   32 ar
    39   26   27 2
    40   26   28 ar
    41   28   29 ar
    42   28   43 1
    43   29   30 1
    44   29   31 ar
    45   30   44 1
    46   30   45 1
    47   31   32 ar
    48   31   46 1
@<TRIPOS>SUBSTRUCTURE
     1 GTP         1 GROUP 0 A     ****
@<TRIPOS>MOLECULE
[[[5-(2-amino-6-oxo-1,3-dihydropurin-2-ylium-9-yl)-3,4-dihydroxy-tetrahydrofuran-2-yl]methoxy-oxido-phosphoryl]oxy-oxido-phosphoryl] hydrogen phosphate
   46    48     1     0     0
SMALL
USER_CHARGES

@<TRIPOS>ATOM
      1 PG          8.2435    5.9527   -2.7398 P.3       1 GTP         1.5400
      2 O1G         9.3579    6.1461   -1.7357 O.co2     1 GTP        -0.8909
      3 O2G         8.5391    5.8561   -4.2200 O.co2     1 GTP        -0.8909
      4 O3G         7.1286    7.1231   -2.5092 O.3       1 GTP        -0.7980
      5 O3B         7.3449    4.6650   -2.2947 O.3       1 GTP        -0.7612
      6 PB          7.7405    3.0819   -2.2408 P.3       1 GTP         1.5847
      7 O1B         7.9956    2.5977   -3.6507 O.co2     1 GTP        -0.8859
      8 O2B         8.7476    2.8625   -1.1339 O.co2     1 GTP        -0.8859
      9 O3A         6.3229    2.4759   -1.7041 O.3       1 GTP        -0.7486
     10 PA          5.8979    0.9309   -1.3848 P.3       1 GTP         1.5001
     11 O1A         5.9332    0.1400   -2.6746 O.co2     1 GTP        -0.8487
     12 O2A         6.6537    0.4639   -0.1599 O.co2     1 GTP        -0.8487
     13 O5'         4.3516    1.1575   -0.9026 O.3       1 GTP        -0.5474
     14 C5'         4.0922    1.9801    0.2227 C.3       1 GTP         0.2547
     15 C4'         2.5944    2.0310    0.4653 C.3       1 GTP         0.0926
     16 O4'         1.9327    2.5740   -0.6889 O.3       1 GTP        -0.3593
     17 C3'         1.9685    0.6634    0.6767 C.3       1 GTP         0.0907
     18 O3'         2.1425    0.1975    1.9977 O.3       1 GTP        -0.5209
     19 C2'         0.5176    0.9128    0.3099 C.3       1 GTP         0.0305
     20 O2'        -0.2103    1.4454    1.4152 O.3       1 GTP        -0.5978
     21 C1'         0.6219    1.9765   -0.7844 C.3       1 GTP         0.2339
     22 N9          0.4237    1.4496   -2.1357 N.pl3     1 GTP        -0.1765
     23 C8          1.3988    0.9691   -2.9736 C.ar      1 GTP         0.4947
     24 N7          0.9092    0.5634   -4.1293 N.2       1 GTP        -0.5802
     25 C5         -0.4383    0.7914   -4.0325 C.ar      1 GTP         0.2279
     26 C6         -1.4217    0.5138   -5.0461 C.ar      1 GTP         0.6513
     27 O6         -1.1759    0.0306   -6.1417 O.2       1 GTP        -0.5111
     28 N1         -2.7543    0.8794   -4.6134 N.pl3     1 GTP        -0.4713
     29 C2         -3.0626    1.4402   -3.3523 C.ar      1 GTP         0.5256
     30 N2         -4.3747    1.7544   -3.0321 N.pl3     1 GTP        -0.8665
     31 N3         -2.0304    1.6759   -2.4233 N.pl3     1 GTP        -0.5398
     32 C4         -0.7497    1.3366   -2.8118 C.ar      1 GTP        -0.0275
     33 HOG3        6.3368    7.1343   -3.0881 H         1 GTP         0.4161
     34 H5'         4.6069    1.5618    1.0936 H         1 GTP         0.0348
     35 H5''        4.4824    2.9837    0.0254 H         1 GTP         0.0348
     36 H4'         2.3752    2.7029    1.3156 H         1 GTP         0.1215
     37 H3'         2.4336   -0.1217   -0.0015 H         1 GTP         0.0576
     38 HO3'        1.7160   -0.6716    2.0397 H         1 GTP         0.3842
     39 H2'         0.0316    0.0155   -0.0339 H         1 GTP         0.0252
     40 HO2'       -1.1270    1.5823    1.1180 H         1 GTP         0.4224
     41 H1'        -0.1474    2.7798   -0.6651 H         1 GTP         0.0745
     42 H8          2.4413    0.9409   -2.6872 H         1 GTP         0.1522
     43 HN1        -3.5236    0.7214   -5.2629 H         1 GTP         0.3518
     44 HN21       -4.5350    2.1409   -2.1461 H         1 GTP         0.4761
     45 HN22       -5.0542    1.5695   -3.7134 H         1 GTP         0.4761
     46 H46        -2.2462    2.0786   -1.5136 H         1 GTP         0.5030
@<TRIPOS>BOND
     1    1    2 2
     2    1    3 1
     3    1    4 1
     4    1    5 1
     5    4   33 1
     6    5    6 1
     7    6    7 2
     8    6    8 1
     9    6    9 1
    10    9   10 1
    11   10   11 2
    12   10   12 1
    13   10   13 1
    14   13   14 1
    15   14   15 1
    16   14   34 1
    17   14   35 1
    18   15   16 1
    19   15   17 1
    20   15   36 1
    21   16   21 1
    22   17   18 1
    23   17   19 1
    24   17   37 1
    25   18   38 1
    26   19   20 1
    27   19   21 1
    28   19   39 1
    29   20   40 1
    30   21   22 1
    31   21   41 1
    32   22   23 ar
    33   22   32 ar
    34   23   24 ar
    35   23   42 1
    36   24   25 ar
    37   25   26 ar
    38   25   32 ar
    39   26   27 2
    40   26   28 ar
    41   28   29 ar
    42   28   43 1
    43   29   30 1
    44   29   31 ar
    45   30   44 1
    46   30   45 1
    47   31   32 ar
    48   31   46 1
@<TRIPOS>SUBSTRUCTURE
     1 GTP         1 GROUP 0 A     ****
@<TRIPOS>MOLECULE
[[[5-(2-amino-6-oxo-1,3-dihydropurin-2-ylium-9-yl)-3,4-dihydroxy-tetrahydrofuran-2-yl]methoxy-oxido-phosphoryl]oxy-oxido-phosphoryl] hydrogen phosphate
   46    48     1     0     0
SMALL
USER_CHARGES

@<TRIPOS>ATOM
      1 PG         -0.3485    6.7543   -1.6801 P.3       1 GTP         1.5400
      2 O1G        -0.1300    8.2230   -1.3930 O.co2     1 GTP        -0.8909
      3 O2G        -0.7753    6.2858   -3.0535 O.co2     1 GTP        -0.8909
      4 O3G        -1.3996    6.1616   -0.5803 O.3       1 GTP        -0.7980
      5 O3B         0.9794    5.9210   -1.2261 O.3       1 GTP        -0.7612
      6 PB          2.4910    5.9452   -1.8427 P.3       1 GTP         1.5847
      7 O1B         2.4495    5.3923   -3.2499 O.co2     1 GTP        -0.8859
      8 O2B         3.1275    7.2824   -1.5359 O.co2     1 GTP        -0.8859
      9 O3A         3.1962    4.8578   -0.8502 O.3       1 GTP        -0.7486
     10 PA          4.7368    4.3145   -0.8169 P.3       1 GTP         1.5001
     11 O1A         5.0163    3.5650   -2.1016 O.co2     1 GTP        -0.8487
     12 O2A         5.6373    5.4398   -0.3559 O.co2     1 GTP        -0.8487
     13 O5'         4.6405    3.2699    0.4378 O.3       1 GTP        -0.5474
     14 C5'         4.0922    1.9801    0.2227 C.3       1 GTP         0.2547
     15 C4'         2.5944    2.0310    0.4653 C.3       1 GTP         0.0926
     16 O4'         1.9327    2.5740   -0.6889 O.3       1 GTP        -0.3593
     17 C3'         1.9685    0.6634    0.6767 C.3       1 GTP         0.0907
     18 O3'         2.1425    0.1975    1.9977 O.3       1 GTP        -0.5209
     19 C2'         0.5176    0.9128    0.3099 C.3       1 GTP         0.0305
     20 O2'        -0.2103    1.4454    1.4152 O.3       1 GTP        -0.5978
     21 C1'         0.6219    1.9765   -0.7844 C.3       1 GTP         0.2339
     22 N9          0.4237    1.4496   -2.1357 N.pl3     1 GTP        -0.1765
     23 C8          1.3988    0.9691   -2.9736 C.ar      1 GTP         0.4947
     24 N7          0.9092    0.5634   -4.1293 N.2       1 GTP        -0.5802
     25 C5         -0.4383    0.7914   -4.0325 C.ar      1 GTP         0.2279
     26 C6         -1.4217    0.5138   -5.0461 C.ar      1 GTP         0.6513
     27 O6         -1.1759    0.0306   -6.1417 O.2       1 GTP        -0.5111
     28 N1         -2.7543    0.8794   -4.6134 N.pl3     1 GTP        -0.4713
     29 C2         -3.0626    1.4402   -3.3523 C.ar      1 GTP         0.5256
     30 N2         -4.3747    1.7544   -3.0321 N.pl3     1 GTP        -0.8665
     31 N3         -2.0304    1.6759   -2.4233 N.pl3     1 GTP        -0.5398
     32 C4         -0.7497    1.3366   -2.8118 C.ar      1 GTP        -0.0275
     33 HOG3       -1.6456    5.2134   -0.6332 H         1 GTP         0.4161
     34 H5'         4.3028    1.6728   -0.8066 H         1 GTP         0.0348
     35 H5''        4.5677    1.2738    0.9106 H         1 GTP         0.0348
     36 H4'         2.3752    2.7029    1.3156 H         1 GTP         0.1215
     37 H3'         2.4336   -0.1217   -0.0015 H         1 GTP         0.0576
     38 HO3'        1.7160   -0.6716    2.0397 H         1 GTP         0.3842
     39 H2'         0.0316    0.0155   -0.0339 H         1 GTP         0.0252
     40 HO2'       -0.1608    0.7921    2.1351 H         1 GTP         0.4224
     41 H1'        -0.1474    2.7798   -0.6651 H         1 GTP         0.0745
     42 H8          2.4413    0.9409   -2.6872 H         1 GTP         0.1522
     43 HN1        -3.5236    0.7214   -5.2629 H         1 GTP         0.3518
     44 HN21       -4.5350    2.1409   -2.1461 H         1 GTP         0.4761
     45 HN22       -5.0542    1.5695   -3.7134 H         1 GTP         0.4761
     46 H46        -2.2462    2.0786   -1.5136 H         1 GTP         0.5030
@<TRIPOS>BOND
     1    1    2 2
     2    1    3 1
     3    1    4 1
     4    1    5 1
     5    4   33 1
     6    5    6 1
     7    6    7 2
     8    6    8 1
     9    6    9 1
    10    9   10 1
    11   10   11 2
    12   10   12 1
    13   10   13 1
    14   13   14 1
    15   14   15 1
    16   14   34 1
    17   14   35 1
    18   15   16 1
    19   15   17 1
    20   15   36 1
    21   16   21 1
    22   17   18 1
    23   17   19 1
    24   17   37 1
    25   18   38 1
    26   19   20 1
    27   19   21 1
    28   19   39 1
    29   20   40 1
    30   21   22 1
    31   21   41 1
    32   22   23 ar
    33   22   32 ar
    34   23   24 ar
    35   23   42 1
    36   24   25 ar
    37   25   26 ar
    38   25   32 ar
    39   26   27 2
    40   26   28 ar
    41   28   29 ar
    42   28   43 1
    43   29   30 1
    44   29   31 ar
    45   30   44 1
    46   30   45 1
    47   31   32 ar
    48   31   46 1
@<TRIPOS>SUBSTRUCTURE
     1 GTP         1 GROUP 0 A     ****
@<TRIPOS>MOLECULE
[[[5-(2-amino-6-oxo-1,3-dihydropurin-2-ylium-9-yl)-3,4-dihydroxy-tetrahydrofuran-2-yl]methoxy-oxido-phosphoryl]oxy-oxido-phosphoryl] hydrogen phosphate
   46    48     1     0     0
SMALL
USER_CHARGES

@<TRIPOS>ATOM
      1 PG          2.9359    7.6069    2.2575 P.3       1 GTP         1.5400
      2 O1G         4.1813    6.8858    2.7228 O.co2     1 GTP        -0.8909
      3 O2G         2.9182    8.3601    0.9459 O.co2     1 GTP        -0.8909
      4 O3G         2.4488    8.6185    3.4429 O.3       1 GTP        -0.7980
      5 O3B         1.6778    6.5676    2.2877 O.3       1 GTP        -0.7612
      6 PB          0.0882    6.8422    2.0360 P.3       1 GTP         1.5847
      7 O1B        -0.4322    7.7290    3.1451 O.co2     1 GTP        -0.8859
      8 O2B        -0.1283    7.1867    0.5793 O.co2     1 GTP        -0.8859
      9 O3A        -0.4755    5.3240    2.2417 O.3       1 GTP        -0.7486
     10 PA         -2.0037    4.7528    2.1522 P.3       1 GTP         1.5001
     11 O1A        -2.8233    5.3804    3.2590 O.co2     1 GTP        -0.8487
     12 O2A        -2.4597    4.8131    0.7107 O.co2     1 GTP        -0.8487
     13 O5'        -1.7336    3.1724    2.4750 O.3       1 GTP        -0.5474
     14 C5'        -0.8811    2.4285    1.6206 C.3       1 GTP         0.2547
     15 C4'        -0.1994    1.3333    2.4288 C.3       1 GTP         0.0926
     16 O4'        -1.1285    0.2356    2.5840 O.3       1 GTP        -0.3593
     17 C3'         1.0324    0.7610    1.7344 C.3       1 GTP         0.0907
     18 O3'         1.9175    0.2377    2.7247 O.3       1 GTP        -0.5209
     19 C2'         0.4468   -0.3802    0.9263 C.3       1 GTP         0.0305
     20 O2'         1.3993   -1.3703    0.5961 O.3       1 GTP        -0.5978
     21 C1'        -0.6159   -0.9100    1.8769 C.3       1 GTP         0.2339
     22 N9         -1.7127   -1.6108    1.2130 N.pl3     1 GTP        -0.1765
     23 C8         -3.0389   -1.2578    1.2391 C.ar      1 GTP         0.4947
     24 N7         -3.7909   -2.0880    0.5425 N.2       1 GTP        -0.5802
     25 C5         -2.9127   -3.0150    0.0458 C.ar      1 GTP         0.2279
     26 C6         -3.2467   -4.1411   -0.7860 C.ar      1 GTP         0.6513
     27 O6         -4.3761   -4.4189   -1.1621 O.2       1 GTP        -0.5111
     28 N1         -2.0748   -4.9191   -1.1296 N.pl3     1 GTP        -0.4713
     29 C2         -0.7595   -4.6181   -0.7058 C.ar      1 GTP         0.5256
     30 N2          0.2985   -5.4268   -1.0920 N.pl3     1 GTP        -0.8665
     31 N3         -0.5304   -3.4919    0.1084 N.pl3     1 GTP        -0.5398
     32 C4         -1.6318   -2.7332    0.4512 C.ar      1 GTP        -0.0275
     33 HOG3        1.6466    9.1625    3.2921 H         1 GTP         0.4161
     34 H5'        -1.4800    1.9927    0.8146 H         1 GTP         0.0348
     35 H5''       -0.1367    3.1040    1.1872 H         1 GTP         0.0348
     36 H4'         0.0403    1.7078    3.4343 H         1 GTP         0.1215
     37 H3'         1.5907    1.4859    1.1353 H         1 GTP         0.0576
     38 HO3'        2.1521    0.9800    3.3017 H         1 GTP         0.3842
     39 H2'        -0.0017    0.0018    0.0005 H         1 GTP         0.0252
     40 HO2'        2.0953   -0.9375    0.0709 H         1 GTP         0.4224
     41 H1'        -0.1998   -1.6319    2.6178 H         1 GTP         0.0745
     42 H8         -3.3933   -0.3909    1.7800 H         1 GTP         0.1522
     43 HN1        -2.2071   -5.7408   -1.7178 H         1 GTP         0.3518
     44 HN21        1.1896   -5.1751   -0.7715 H         1 GTP         0.4761
     45 HN22        0.0846   -6.1966   -1.6593 H         1 GTP         0.4761
     46 H46         0.4142   -3.2695    0.4160 H         1 GTP         0.5030
@<TRIPOS>BOND
     1    1    2 2
     2    1    3 1
     3    1    4 1
     4    1    5 1
     5    4   33 1
     6    5    6 1
     7    6    7 2
     8    6    8 1
     9    6    9 1
    10    9   10 1
    11   10   11 2
    12   10   12 1
    13   10   13 1
    14   13   14 1
    15   14   15 1
    16   14   34 1
    17   14   35 1
    18   15   16 1
    19   15   17 1
    20   15   36 1
    21   16   21 1
    22   17   18 1
    23   17   19 1
    24   17   37 1
    25   18   38 1
    26   19   20 1
    27   19   21 1
    28   19   39 1
    29   20   40 1
    30   21   22 1
    31   21   41 1
    32   22   23 ar
    33   22   32 ar
    34   23   24 ar
    35   23   42 1
    36   24   25 ar
    37   25   26 ar
    38   25   32 ar
    39   26   27 2
    40   26   28 ar
    41   28   29 ar
    42   28   43 1
    43   29   30 1
    44   29   31 ar
    45   30   44 1
    46   30   45 1
    47   31   32 ar
    48   31   46 1
@<TRIPOS>SUBSTRUCTURE
     1 GTP         1 GROUP 0 A     ****
@<TRIPOS>MOLECULE
[[[5-(2-amino-6-oxo-1,3-dihydropurin-2-ylium-9-yl)-3,4-dihydroxy-tetrahydrofuran-2-yl]methoxy-oxido-phosphoryl]oxy-oxido-phosphoryl] hydrogen phosphate
   46    48     1     0     0
SMALL
USER_CHARGES

@<TRIPOS>ATOM
      1 PG         -6.6763    6.2093    0.3167 P.3       1 GTP         1.5400
      2 O1G        -6.4020    7.2218   -0.7728 O.co2     1 GTP        -0.8909
      3 O2G        -7.8393    5.2481    0.2097 O.co2     1 GTP        -0.8909
      4 O3G        -6.7851    6.9979    1.7423 O.3       1 GTP        -0.7980
      5 O3B        -5.3134    5.3600    0.6081 O.3       1 GTP        -0.7612
      6 PB         -4.5154    4.3030   -0.3467 P.3       1 GTP         1.5847
      7 O1B        -5.3937    3.0919   -0.5689 O.co2     1 GTP        -0.8859
      8 O2B        -3.8952    5.0542   -1.5036 O.co2     1 GTP        -0.8859
      9 O3A        -3.2920    3.9119    0.6609 O.3       1 GTP        -0.7486
     10 PA         -3.3347    3.2338    2.1468 P.3       1 GTP         1.5001
     11 O1A        -4.0274    4.1866    3.0968 O.co2     1 GTP        -0.8487
     12 O2A        -3.7889    1.7968    2.0106 O.co2     1 GTP        -0.8487
     13 O5'        -1.7336    3.1724    2.4750 O.3       1 GTP        -0.5474
     14 C5'        -0.8811    2.4285    1.6206 C.3       1 GTP         0.2547
     15 C4'        -0.1994    1.3333    2.4288 C.3       1 GTP         0.0926
     16 O4'        -1.1285    0.2356    2.5840 O.3       1 GTP        -0.3593
     17 C3'         1.0324    0.7610    1.7344 C.3       1 GTP         0.0907
     18 O3'         1.9175    0.2377    2.7247 O.3       1 GTP        -0.5209
     19 C2'         0.4468   -0.3802    0.9263 C.3       1 GTP         0.0305
     20 O2'         1.3993   -1.3703    0.5961 O.3       1 GTP        -0.5978
     21 C1'        -0.6159   -0.9100    1.8769 C.3       1 GTP         0.2339
     22 N9         -1.7127   -1.6108    1.2130 N.pl3     1 GTP        -0.1765
     23 C8         -1.6311   -2.3341    0.0493 C.ar      1 GTP         0.4947
     24 N7         -2.7933   -2.8506   -0.3007 N.2       1 GTP        -0.5802
     25 C5         -3.6607   -2.4436    0.6786 C.ar      1 GTP         0.2279
     26 C6         -5.0651   -2.7506    0.7505 C.ar      1 GTP         0.6513
     27 O6         -5.6735   -3.4256   -0.0671 O.2       1 GTP        -0.5111
     28 N1         -5.6834   -2.1585    1.9182 N.pl3     1 GTP        -0.4713
     29 C2         -5.0007   -1.3738    2.8765 C.ar      1 GTP         0.5256
     30 N2         -5.6847   -0.8521    3.9640 N.pl3     1 GTP        -0.8665
     31 N3         -3.6227   -1.1271    2.7212 N.pl3     1 GTP        -0.5398
     32 C4         -3.0090   -1.6802    1.6149 C.ar      1 GTP        -0.0275
     33 HOG3       -6.9620    6.4747    2.5530 H         1 GTP         0.4161
     34 H5'        -1.4800    1.9927    0.8146 H         1 GTP         0.0348
     35 H5''       -0.1367    3.1040    1.1872 H         1 GTP         0.0348
     36 H4'         0.0403    1.7078    3.4343 H         1 GTP         0.1215
     37 H3'         1.5907    1.4859    1.1353 H         1 GTP         0.0576
     38 HO3'        2.6839   -0.1150    2.2479 H         1 GTP         0.3842
     39 H2'        -0.0017    0.0018    0.0005 H         1 GTP         0.0252
     40 HO2'        2.0953   -0.9375    0.0709 H         1 GTP         0.4224
     41 H1'        -0.1998   -1.6319    2.6178 H         1 GTP         0.0745
     42 H8         -0.7029   -2.4474   -0.4941 H         1 GTP         0.1522
     43 HN1        -6.6800   -2.3183    2.0594 H         1 GTP         0.3518
     44 HN21       -5.1660   -0.3153    4.5987 H         1 GTP         0.4761
     45 HN22       -6.6415   -1.0545    4.0252 H         1 GTP         0.4761
     46 H46        -3.1256   -0.5638    3.4080 H         1 GTP         0.5030
@<TRIPOS>BOND
     1    1    2 2
     2    1    3 1
     3    1    4 1
     4    1    5 1
     5    4   33 1
     6    5    6 1
     7    6    7 2
     8    6    8 1
     9    6    9 1
    10    9   10 1
    11   10   11 2
    12   10   12 1
    13   10   13 1
    14   13   14 1
    15   14   15 1
    16   14   34 1
    17   14   35 1
    18   15   16 1
    19   15   17 1
    20   15   36 1
    21   16   21 1
    22   17   18 1
    23   17   19 1
    24   17   37 1
    25   18   38 1
    26   19   20 1
    27   19   21 1
    28   19   39 1
    29   20   40 1
    30   21   22 1
    31   21   41 1
    32   22   23 ar
    33   22   32 ar
    34   23   24 ar
    35   23   42 1
    36   24   25 ar
    37   25   26 ar
    38   25   32 ar
    39   26   27 2
    40   26   28 ar
    41   28   29 ar
    42   28   43 1
    43   29   30 1
    44   29   31 ar
    45   30   44 1
    46   30   45 1
    47   31   32 ar
    48   31   46 1
@<TRIPOS>SUBSTRUCTURE
     1 GTP         1 GROUP 0 A     ****
@<TRIPOS>MOLECULE
[[[5-(2-amino-6-oxo-1,3-dihydropurin-2-ylium-9-yl)-3,4-dihydroxy-tetrahydrofuran-2-yl]methoxy-oxido-phosphoryl]oxy-oxido-phosphoryl] hydrogen phosphate
   46    48     1     0     0
SMALL
USER_CHARGES

@<TRIPOS>ATOM
      1 PG         -4.7142    7.3674    0.4283 P.3       1 GTP         1.5400
      2 O1G        -4.1843    8.7764    0.2823 O.co2     1 GTP        -0.8909
      3 O2G        -5.7970    6.8452   -0.4896 O.co2     1 GTP        -0.8909
      4 O3G        -5.1959    7.1520    1.9734 O.3       1 GTP        -0.7980
      5 O3B        -3.4594    6.3238    0.4134 O.3       1 GTP        -0.7612
      6 PB         -2.4285    5.9448   -0.7946 P.3       1 GTP         1.5847
      7 O1B        -3.2031    5.2528   -1.8939 O.co2     1 GTP        -0.8859
      8 O2B        -1.5433    7.1375   -1.0799 O.co2     1 GTP        -0.8859
      9 O3A        -1.4987    4.8543   -0.0129 O.3       1 GTP        -0.7486
     10 PA         -0.5790    5.0299    1.3261 P.3       1 GTP         1.5001
     11 O1A         0.5370    6.0068    1.0251 O.co2     1 GTP        -0.8487
     12 O2A        -1.4908    5.2267    2.5176 O.co2     1 GTP        -0.8487
     13 O5'         0.0178    3.5131    1.4595 O.3       1 GTP        -0.5474
     14 C5'        -0.8811    2.4285    1.6206 C.3       1 GTP         0.2547
     15 C4'        -0.1994    1.3333    2.4288 C.3       1 GTP         0.0926
     16 O4'        -1.1285    0.2356    2.5840 O.3       1 GTP        -0.3593
     17 C3'         1.0324    0.7610    1.7344 C.3       1 GTP         0.0907
     18 O3'         1.9175    0.2377    2.7247 O.3       1 GTP        -0.5209
     19 C2'         0.4468   -0.3802    0.9263 C.3       1 GTP         0.0305
     20 O2'         1.3993   -1.3703    0.5961 O.3       1 GTP        -0.5978
     21 C1'        -0.6159   -0.9100    1.8769 C.3       1 GTP         0.2339
     22 N9         -1.7127   -1.6108    1.2130 N.pl3     1 GTP        -0.1765
     23 C8         -1.6092   -2.7449    0.4467 C.ar      1 GTP         0.4947
     24 N7         -2.7778   -3.1416   -0.0191 N.2       1 GTP        -0.5802
     25 C5         -3.6725   -2.2253    0.4675 C.ar      1 GTP         0.2279
     26 C6         -5.0932   -2.2202    0.2371 C.ar      1 GTP         0.6513
     27 O6         -5.6933   -3.0474   -0.4337 O.2       1 GTP        -0.5111
     28 N1         -5.7390   -1.1061    0.8992 N.pl3     1 GTP        -0.4713
     29 C2         -5.0661   -0.1368    1.6789 C.ar      1 GTP         0.5256
     30 N2         -5.7774    0.8934    2.2749 N.pl3     1 GTP        -0.8665
     31 N3         -3.6705   -0.2251    1.8481 N.pl3     1 GTP        -0.5398
     32 C4         -3.0303   -1.2785    1.2262 C.ar      1 GTP        -0.0275
     33 HOG3       -5.5672    6.2809    2.2296 H         1 GTP         0.4161
     34 H5'        -1.7771    2.7849    2.1387 H         1 GTP         0.0348
     35 H5''       -1.1654    2.0541    0.6320 H         1 GTP         0.0348
     36 H4'         0.0403    1.7078    3.4343 H         1 GTP         0.1215
     37 H3'         1.5907    1.4859    1.1353 H         1 GTP         0.0576
     38 HO3'        2.6839   -0.1150    2.2479 H         1 GTP         0.3842
     39 H2'        -0.0017    0.0018    0.0005 H         1 GTP         0.0252
     40 HO2'        2.0953   -0.9375    0.0709 H         1 GTP         0.4224
     41 H1'        -0.1998   -1.6319    2.6178 H         1 GTP         0.0745
     42 H8         -0.6610   -3.2324    0.2653 H         1 GTP         0.1522
     43 HN1        -6.7487   -1.0139    0.7961 H         1 GTP         0.3518
     44 HN21       -5.2644    1.5388    2.8044 H         1 GTP         0.4761
     45 HN22       -6.7459    0.9078    2.1265 H         1 GTP         0.4761
     46 H46        -3.1807    0.4690    2.4089 H         1 GTP         0.5030
@<TRIPOS>BOND
     1    1    2 2
     2    1    3 1
     3    1    4 1
     4    1    5 1
     5    4   33 1
     6    5    6 1
     7    6    7 2
     8    6    8 1
     9    6    9 1
    10    9   10 1
    11   10   11 2
    12   10   12 1
    13   10   13 1
    14   13   14 1
    15   14   15 1
    16   14   34 1
    17   14   35 1
    18   15   16 1
    19   15   17 1
    20   15   36 1
    21   16   21 1
    22   17   18 1
    23   17   19 1
    24   17   37 1
    25   18   38 1
    26   19   20 1
    27   19   21 1
    28   19   39 1
    29   20   40 1
    30   21   22 1
    31   21   41 1
    32   22   23 ar
    33   22   32 ar
    34   23   24 ar
    35   23   42 1
    36   24   25 ar
    37   25   26 ar
    38   25   32 ar
    39   26   27 2
    40   26   28 ar
    41   28   29 ar
    42   28   43 1
    43   29   30 1
    44   29   31 ar
    45   30   44 1
    46   30   45 1
    47   31   32 ar
    48   31   46 1
@<TRIPOS>SUBSTRUCTURE
     1 GTP         1 GROUP 0 A     ****
@<TRIPOS>MOLECULE
[[[5-(2-amino-6-oxo-1,3-dihydropurin-2-ylium-9-yl)-3,4-dihydroxy-tetrahydrofuran-2-yl]methoxy-oxido-phosphoryl]oxy-oxido-phosphoryl] hydrogen phosphate
   46    48     1     0     0
SMALL
USER_CHARGES

@<TRIPOS>ATOM
      1 PG         10.2849    2.7826   -1.0078 P.3       1 GTP         1.5400
      2 O1G        11.3869    2.5879    0.0096 O.co2     1 GTP        -0.8909
      3 O2G        10.2349    1.9488   -2.2687 O.co2     1 GTP        -0.8909
      4 O3G        10.2391    4.3599   -1.4273 O.3       1 GTP        -0.7980
      5 O3B         8.8414    2.6864   -0.2524 O.3       1 GTP        -0.7612
      6 PB          8.2882    3.4954    1.0534 P.3       1 GTP         1.5847
      7 O1B         9.1074    3.0894    2.2582 O.co2     1 GTP        -0.8859
      8 O2B         8.0884    4.9487    0.6851 O.co2     1 GTP        -0.8859
      9 O3A         6.7990    2.8353    1.1590 O.3       1 GTP        -0.7486
     10 PA          6.3565    1.2771    1.3734 P.3       1 GTP         1.5001
     11 O1A         6.8037    0.4744    0.1709 O.co2     1 GTP        -0.8487
     12 O2A         6.7306    0.8562    2.7779 O.co2     1 GTP        -0.8487
     13 O5'         4.7294    1.4427    1.3696 O.3       1 GTP        -0.5474
     14 C5'         4.0922    1.9801    0.2227 C.3       1 GTP         0.2547
     15 C4'         2.5944    2.0310    0.4653 C.3       1 GTP         0.0926
     16 O4'         1.9327    2.5740   -0.6889 O.3       1 GTP        -0.3593
     17 C3'         1.9685    0.6634    0.6767 C.3       1 GTP         0.0907
     18 O3'         2.1425    0.1975    1.9977 O.3       1 GTP        -0.5209
     19 C2'         0.5176    0.9128    0.3099 C.3       1 GTP         0.0305
     20 O2'        -0.2103    1.4454    1.4152 O.3       1 GTP        -0.5978
     21 C1'         0.6219    1.9765   -0.7844 C.3       1 GTP         0.2339
     22 N9          0.4237    1.4496   -2.1357 N.pl3     1 GTP        -0.1765
     23 C8          1.3988    0.9691   -2.9736 C.ar      1 GTP         0.4947
     24 N7          0.9092    0.5634   -4.1293 N.2       1 GTP        -0.5802
     25 C5         -0.4383    0.7914   -4.0325 C.ar      1 GTP         0.2279
     26 C6         -1.4217    0.5138   -5.0461 C.ar      1 GTP         0.6513
     27 O6         -1.1759    0.0306   -6.1417 O.2       1 GTP        -0.5111
     28 N1         -2.7543    0.8794   -4.6134 N.pl3     1 GTP        -0.4713
     29 C2         -3.0626    1.4402   -3.3523 C.ar      1 GTP         0.5256
     30 N2         -4.3747    1.7544   -3.0321 N.pl3     1 GTP        -0.8665
     31 N3         -2.0304    1.6759   -2.4233 N.pl3     1 GTP        -0.5398
     32 C4         -0.7497    1.3366   -2.8118 C.ar      1 GTP        -0.0275
     33 HOG3        9.5712    4.6489   -2.0850 H         1 GTP         0.4161
     34 H5'         4.4843    2.9854    0.0380 H         1 GTP         0.0348
     35 H5''        4.3191    1.3446   -0.6392 H         1 GTP         0.0348
     36 H4'         2.3752    2.7029    1.3156 H         1 GTP         0.1215
     37 H3'         2.4336   -0.1217   -0.0015 H         1 GTP         0.0576
     38 HO3'        3.0987    0.1465    2.1461 H         1 GTP         0.3842
     39 H2'         0.0316    0.0155   -0.0339 H         1 GTP         0.0252
     40 HO2'       -1.1270    1.5823    1.1180 H         1 GTP         0.4224
     41 H1'        -0.1474    2.7798   -0.6651 H         1 GTP         0.0745
     42 H8          2.4413    0.9409   -2.6872 H         1 GTP         0.1522
     43 HN1        -3.5236    0.7214   -5.2629 H         1 GTP         0.3518
     44 HN21       -4.5350    2.1409   -2.1461 H         1 GTP         0.4761
     45 HN22       -5.0542    1.5695   -3.7134 H         1 GTP         0.4761
     46 H46        -2.2462    2.0786   -1.5136 H         1 GTP         0.5030
@<TRIPOS>BOND
     1    1    2 2
     2    1    3 1
     3    1    4 1
     4    1    5 1
     5    4   33 1
     6    5    6 1
     7    6    7 2
     8    6    8 1
     9    6    9 1
    10    9   10 1
    11   10   11 2
    12   10   12 1
    13   10   13 1
    14   13   14 1
    15   14   15 1
    16   14   34 1
    17   14   35 1
    18   15   16 1
    19   15   17 1
    20   15   36 1
    21   16   21 1
    22   17   18 1
    23   17   19 1
    24   17   37 1
    25   18   38 1
    26   19   20 1
    27   19   21 1
    28   19   39 1
    29   20   40 1
    30   21   22 1
    31   21   41 1
    32   22   23 ar
    33   22   32 ar
    34   23   24 ar
    35   23   42 1
    36   24   25 ar
    37   25   26 ar
    38   25   32 ar
    39   26   27 2
    40   26   28 ar
    41   28   29 ar
    42   28   43 1
    43   29   30 1
    44   29   31 ar
    45   30   44 1
    46   30   45 1
    47   31   32 ar
    48   31   46 1
@<TRIPOS>SUBSTRUCTURE
     1 GTP         1 GROUP 0 A     ****
@<TRIPOS>MOLECULE
[[[5-(2-amino-6-oxo-1,3-dihydropurin-2-ylium-9-yl)-3,4-dihydroxy-tetrahydrofuran-2-yl]methoxy-oxido-phosphoryl]oxy-oxido-phosphoryl] hydrogen phosphate
   46    48     1     0     0
SMALL
USER_CHARGES

@<TRIPOS>ATOM
      1 PG         -2.6312    6.4972    6.1912 P.3       1 GTP         1.5400
      2 O1G        -1.8709    7.7768    6.4594 O.co2     1 GTP        -0.8909
      3 O2G        -4.1433    6.4712    6.2187 O.co2     1 GTP        -0.8909
      4 O3G        -2.0743    5.3416    7.2013 O.3       1 GTP        -0.7980
      5 O3B        -2.1168    5.8597    4.7795 O.3       1 GTP        -0.7612
      6 PB         -2.2801    6.4236    3.2561 P.3       1 GTP         1.5847
      7 O1B        -3.7476    6.4148    2.8905 O.co2     1 GTP        -0.8859
      8 O2B        -1.4317    7.6655    3.0962 O.co2     1 GTP        -0.8859
      9 O3A        -1.5104    5.2300    2.4511 O.3       1 GTP        -0.7486
     10 PA          0.0330    4.7083    2.5757 P.3       1 GTP         1.5001
     11 O1A         0.9597    5.8217    2.1376 O.co2     1 GTP        -0.8487
     12 O2A         0.2074    4.0270    3.9155 O.co2     1 GTP        -0.8487
     13 O5'         0.0178    3.5131    1.4595 O.3       1 GTP        -0.5474
     14 C5'        -0.8811    2.4285    1.6206 C.3       1 GTP         0.2547
     15 C4'        -0.1994    1.3333    2.4288 C.3       1 GTP         0.0926
     16 O4'        -1.1285    0.2356    2.5840 O.3       1 GTP        -0.3593
     17 C3'         1.0324    0.7610    1.7344 C.3       1 GTP         0.0907
     18 O3'         1.9175    0.2377    2.7247 O.3       1 GTP        -0.5209
     19 C2'         0.4468   -0.3802    0.9263 C.3       1 GTP         0.0305
     20 O2'         1.3993   -1.3703    0.5961 O.3       1 GTP        -0.5978
     21 C1'        -0.6159   -0.9100    1.8769 C.3       1 GTP         0.2339
     22 N9         -1.7127   -1.6108    1.2130 N.pl3     1 GTP        -0.1765
     23 C8         -2.8692   -1.0463    0.7355 C.ar      1 GTP         0.4947
     24 N7         -3.6707   -1.9381    0.1856 N.2       1 GTP        -0.5802
     25 C5         -3.0027   -3.1275    0.3134 C.ar      1 GTP         0.2279
     26 C6         -3.4659   -4.4142   -0.1355 C.ar      1 GTP         0.6513
     27 O6         -4.5328   -4.6133   -0.6980 O.2       1 GTP        -0.5111
     28 N1         -2.5102   -5.4606    0.1612 N.pl3     1 GTP        -0.4713
     29 C2         -1.2711   -5.2547    0.8113 C.ar      1 GTP         0.5256
     30 N2         -0.4228   -6.3256    1.0482 N.pl3     1 GTP        -0.8665
     31 N3         -0.9033   -3.9563    1.2146 N.pl3     1 GTP        -0.5398
     32 C4         -1.7979   -2.9400    0.9438 C.ar      1 GTP        -0.0275
     33 HOG3       -2.4711    4.4459    7.1499 H         1 GTP         0.4161
     34 H5'        -1.7771    2.7849    2.1387 H         1 GTP         0.0348
     35 H5''       -1.1654    2.0541    0.6320 H         1 GTP         0.0348
     36 H4'         0.0403    1.7078    3.4343 H         1 GTP         0.1215
     37 H3'         1.5907    1.4859    1.1353 H         1 GTP         0.0576
     38 HO3'        2.6839   -0.1150    2.2479 H         1 GTP         0.3842
     39 H2'        -0.0017    0.0018    0.0005 H         1 GTP         0.0252
     40 HO2'        2.0953   -0.9375    0.0709 H         1 GTP         0.4224
     41 H1'        -0.1998   -1.6319    2.6178 H         1 GTP         0.0745
     42 H8         -3.0691    0.0134    0.8177 H         1 GTP         0.1522
     43 HN1        -2.7468   -6.4119   -0.1177 H         1 GTP         0.3518
     44 HN21        0.4233   -6.1297    1.5018 H         1 GTP         0.4761
     45 HN22       -0.7261   -7.2071    0.7466 H         1 GTP         0.4761
     46 H46        -0.0124   -3.8015    1.6821 H         1 GTP         0.5030
@<TRIPOS>BOND
     1    1    2 2
     2    1    3 1
     3    1    4 1
     4    1    5 1
     5    4   33 1
     6    5    6 1
     7    6    7 2
     8    6    8 1
     9    6    9 1
    10    9   10 1
    11   10   11 2
    12   10   12 1
    13   10   13 1
    14   13   14 1
    15   14   15 1
    16   14   34 1
    17   14   35 1
    18   15   16 1
    19   15   17 1
    20   15   36 1
    21   16   21 1
    22   17   18 1
    23   17   19 1
    24   17   37 1
    25   18   38 1
    26   19   20 1
    27   19   21 1
    28   19   39 1
    29   20   40 1
    30   21   22 1
    31   21   41 1
    32   22   23 ar
    33   22   32 ar
    34   23   24 ar
    35   23   42 1
    36   24   25 ar
    37   25   26 ar
    38   25   32 ar
    39   26   27 2
    40   26   28 ar
    41   28   29 ar
    42   28   43 1
    43   29   30 1
    44   29   31 ar
    45   30   44 1
    46   30   45 1
    47   31   32 ar
    48   31   46 1
@<TRIPOS>SUBSTRUCTURE
     1 GTP         1 GROUP 0 A     ****
@<TRIPOS>MOLECULE
[[[5-(2-amino-6-oxo-1,3-dihydropurin-2-ylium-9-yl)-3,4-dihydroxy-tetrahydrofuran-2-yl]methoxy-oxido-phosphoryl]oxy-oxido-phosphoryl] hydrogen phosphate
   46    48     1     0     0
SMALL
USER_CHARGES

@<TRIPOS>ATOM
      1 PG          9.8220    3.9269   -1.7489 P.3       1 GTP         1.5400
      2 O1G        10.6574    3.2040   -2.7819 O.co2     1 GTP        -0.8909
      3 O2G         9.3596    5.3484   -1.9796 O.co2     1 GTP        -0.8909
      4 O3G        10.5995    3.8610   -0.3146 O.3       1 GTP        -0.7980
      5 O3B         8.5293    3.0048   -1.3714 O.3       1 GTP        -0.7612
      6 PB          8.4618    1.4491   -0.8808 P.3       1 GTP         1.5847
      7 O1B         8.9444    0.5638   -2.0081 O.co2     1 GTP        -0.8859
      8 O2B         9.0429    1.3453    0.5117 O.co2     1 GTP        -0.8859
      9 O3A         6.8446    1.2950   -0.7206 O.3       1 GTP        -0.7486
     10 PA          5.6603    1.4687   -1.8328 P.3       1 GTP         1.5001
     11 O1A         5.6395    2.9078   -2.3006 O.co2     1 GTP        -0.8487
     12 O2A         5.7523    0.3263   -2.8207 O.co2     1 GTP        -0.8487
     13 O5'         4.3516    1.1575   -0.9026 O.3       1 GTP        -0.5474
     14 C5'         4.0922    1.9801    0.2227 C.3       1 GTP         0.2547
     15 C4'         2.5944    2.0310    0.4653 C.3       1 GTP         0.0926
     16 O4'         1.9327    2.5740   -0.6889 O.3       1 GTP        -0.3593
     17 C3'         1.9685    0.6634    0.6767 C.3       1 GTP         0.0907
     18 O3'         2.1425    0.1975    1.9977 O.3       1 GTP        -0.5209
     19 C2'         0.5176    0.9128    0.3099 C.3       1 GTP         0.0305
     20 O2'        -0.2103    1.4454    1.4152 O.3       1 GTP        -0.5978
     21 C1'         0.6219    1.9765   -0.7844 C.3       1 GTP         0.2339
     22 N9          0.4237    1.4496   -2.1357 N.pl3     1 GTP        -0.1765
     23 C8          1.3988    0.9691   -2.9736 C.ar      1 GTP         0.4947
     24 N7          0.9092    0.5634   -4.1293 N.2       1 GTP        -0.5802
     25 C5         -0.4383    0.7914   -4.0325 C.ar      1 GTP         0.2279
     26 C6         -1.4217    0.5138   -5.0461 C.ar      1 GTP         0.6513
     27 O6         -1.1759    0.0306   -6.1417 O.2       1 GTP        -0.5111
     28 N1         -2.7543    0.8794   -4.6134 N.pl3     1 GTP        -0.4713
     29 C2         -3.0626    1.4402   -3.3523 C.ar      1 GTP         0.5256
     30 N2         -4.3747    1.7544   -3.0321 N.pl3     1 GTP        -0.8665
     31 N3         -2.0304    1.6759   -2.4233 N.pl3     1 GTP        -0.5398
     32 C4         -0.7497    1.3366   -2.8118 C.ar      1 GTP        -0.0275
     33 HOG3       10.1816    4.2886    0.4630 H         1 GTP         0.4161
     34 H5'         4.6069    1.5618    1.0936 H         1 GTP         0.0348
     35 H5''        4.4824    2.9837    0.0254 H         1 GTP         0.0348
     36 H4'         2.3752    2.7029    1.3156 H         1 GTP         0.1215
     37 H3'         2.4336   -0.1217   -0.0015 H         1 GTP         0.0576
     38 HO3'        1.7160   -0.6716    2.0397 H         1 GTP         0.3842
     39 H2'         0.0316    0.0155   -0.0339 H         1 GTP         0.0252
     40 HO2'       -0.1608    0.7921    2.1351 H         1 GTP         0.4224
     41 H1'        -0.1474    2.7798   -0.6651 H         1 GTP         0.0745
     42 H8          2.4413    0.9409   -2.6872 H         1 GTP         0.1522
     43 HN1        -3.5236    0.7214   -5.2629 H         1 GTP         0.3518
     44 HN21       -4.5350    2.1409   -2.1461 H         1 GTP         0.4761
     45 HN22       -5.0542    1.5695   -3.7134 H         1 GTP         0.4761
     46 H46        -2.2462    2.0786   -1.5136 H         1 GTP         0.5030
@<TRIPOS>BOND
     1    1    2 2
     2    1    3 1
     3    1    4 1
     4    1    5 1
     5    4   33 1
     6    5    6 1
     7    6    7 2
     8    6    8 1
     9    6    9 1
    10    9   10 1
    11   10   11 2
    12   10   12 1
    13   10   13 1
    14   13   14 1
    15   14   15 1
    16   14   34 1
    17   14   35 1
    18   15   16 1
    19   15   17 1
    20   15   36 1
    21   16   21 1
    22   17   18 1
    23   17   19 1
    24   17   37 1
    25   18   38 1
    26   19   20 1
    27   19   21 1
    28   19   39 1
    29   20   40 1
    30   21   22 1
    31   21   41 1
    32   22   23 ar
    33   22   32 ar
    34   23   24 ar
    35   23   42 1
    36   24   25 ar
    37   25   26 ar
    38   25   32 ar
    39   26   27 2
    40   26   28 ar
    41   28   29 ar
    42   28   43 1
    43   29   30 1
    44   29   31 ar
    45   30   44 1
    46   30   45 1
    47   31   32 ar
    48   31   46 1
@<TRIPOS>SUBSTRUCTURE
     1 GTP         1 GROUP 0 A     ****
@<TRIPOS>MOLECULE
[[[5-(2-amino-6-oxo-1,3-dihydropurin-2-ylium-9-yl)-3,4-dihydroxy-tetrahydrofuran-2-yl]methoxy-oxido-phosphoryl]oxy-oxido-phosphoryl] hydrogen phosphate
   46    48     1     0     0
SMALL
USER_CHARGES

@<TRIPOS>ATOM
      1 PG         -3.5250    7.0725    5.0775 P.3       1 GTP         1.5400
      2 O1G        -2.8342    8.3718    5.4271 O.co2     1 GTP        -0.8909
      3 O2G        -4.8060    7.0652    4.2732 O.co2     1 GTP        -0.8909
      4 O3G        -3.7723    6.2298    6.4539 O.3       1 GTP        -0.7980
      5 O3B        -2.4483    6.0731    4.3665 O.3       1 GTP        -0.7612
      6 PB         -0.9772    5.5850    4.8794 P.3       1 GTP         1.5847
      7 O1B        -0.0553    6.7833    4.9190 O.co2     1 GTP        -0.8859
      8 O2B        -1.1485    4.6779    6.0775 O.co2     1 GTP        -0.8859
      9 O3A        -0.5682    4.6235    3.6252 O.3       1 GTP        -0.7486
     10 PA         -0.3962    4.9846    2.0409 P.3       1 GTP         1.5001
     11 O1A        -1.7409    5.4059    1.4892 O.co2     1 GTP        -0.8487
     12 O2A         0.8270    5.8595    1.8736 O.co2     1 GTP        -0.8487
     13 O5'         0.0178    3.5131    1.4595 O.3       1 GTP        -0.5474
     14 C5'        -0.8811    2.4285    1.6206 C.3       1 GTP         0.2547
     15 C4'        -0.1994    1.3333    2.4288 C.3       1 GTP         0.0926
     16 O4'        -1.1285    0.2356    2.5840 O.3       1 GTP        -0.3593
     17 C3'         1.0324    0.7610    1.7344 C.3       1 GTP         0.0907
     18 O3'         1.9175    0.2377    2.7247 O.3       1 GTP        -0.5209
     19 C2'         0.4468   -0.3802    0.9263 C.3       1 GTP         0.0305
     20 O2'         1.3993   -1.3703    0.5961 O.3       1 GTP        -0.5978
     21 C1'        -0.6159   -0.9100    1.8769 C.3       1 GTP         0.2339
     22 N9         -1.7127   -1.6108    1.2130 N.pl3     1 GTP        -0.1765
     23 C8         -1.7789   -2.9564    0.9503 C.ar      1 GTP         0.4947
     24 N7         -2.8980   -3.2916    0.3377 N.2       1 GTP        -0.5802
     25 C5         -3.5824   -2.1127    0.2000 C.ar      1 GTP         0.2279
     26 C6         -4.8740   -1.9471   -0.4133 C.ar      1 GTP         0.6513
     27 O6         -5.5366   -2.8529   -0.8978 O.2       1 GTP        -0.5111
     28 N1         -5.3036   -0.5645   -0.3916 N.pl3     1 GTP        -0.4713
     29 C2         -4.5545    0.4997    0.1619 C.ar      1 GTP         0.5256
     30 N2         -5.0561    1.7921    0.1348 N.pl3     1 GTP        -0.8665
     31 N3         -3.2977    0.2393    0.7420 N.pl3     1 GTP        -0.5398
     32 C4         -2.8643   -1.0716    0.7336 C.ar      1 GTP        -0.0275
     33 HOG3       -4.2148    5.3564    6.3936 H         1 GTP         0.4161
     34 H5'        -1.7771    2.7849    2.1387 H         1 GTP         0.0348
     35 H5''       -1.1654    2.0541    0.6320 H         1 GTP         0.0348
     36 H4'         0.0403    1.7078    3.4343 H         1 GTP         0.1215
     37 H3'         1.5907    1.4859    1.1353 H         1 GTP         0.0576
     38 HO3'        2.6839   -0.1150    2.2479 H         1 GTP         0.3842
     39 H2'        -0.0017    0.0018    0.0005 H         1 GTP         0.0252
     40 HO2'        2.0953   -0.9375    0.0709 H         1 GTP         0.4224
     41 H1'        -0.1998   -1.6319    2.6178 H         1 GTP         0.0745
     42 H8         -0.9852   -3.6367    1.2276 H         1 GTP         0.1522
     43 HN1        -6.2089   -0.3428   -0.8039 H         1 GTP         0.3518
     44 HN21       -4.4981    2.4933    0.5311 H         1 GTP         0.4761
     45 HN22       -5.9352    1.9183   -0.2793 H         1 GTP         0.4761
     46 H46        -2.7541    1.0010    1.1428 H         1 GTP         0.5030
@<TRIPOS>BOND
     1    1    2 2
     2    1    3 1
     3    1    4 1
     4    1    5 1
     5    4   33 1
     6    5    6 1
     7    6    7 2
     8    6    8 1
     9    6    9 1
    10    9   10 1
    11   10   11 2
    12   10   12 1
    13   10   13 1
    14   13   14 1
    15   14   15 1
    16   14   34 1
    17   14   35 1
    18   15   16 1
    19   15   17 1
    20   15   36 1
    21   16   21 1
    22   17   18 1
    23   17   19 1
    24   17   37 1
    25   18   38 1
    26   19   20 1
    27   19   21 1
    28   19   39 1
    29   20   40 1
    30   21   22 1
    31   21   41 1
    32   22   23 ar
    33   22   32 ar
    34   23   24 ar
    35   23   42 1
    36   24   25 ar
    37   25   26 ar
    38   25   32 ar
    39   26   27 2
    40   26   28 ar
    41   28   29 ar
    42   28   43 1
    43   29   30 1
    44   29   31 ar
    45   30   44 1
    46   30   45 1
    47   31   32 ar
    48   31   46 1
@<TRIPOS>SUBSTRUCTURE
     1 GTP         1 GROUP 0 A     ****
@<TRIPOS>MOLECULE
[[[5-(2-amino-6-oxo-1,3-dihydropurin-2-ylium-9-yl)-3,4-dihydroxy-tetrahydrofuran-2-yl]methoxy-oxido-phosphoryl]oxy-oxido-phosphoryl] hydrogen phosphate
   46    48     1     0     0
SMALL
USER_CHARGES

@<TRIPOS>ATOM
      1 PG          9.2170    1.7274    4.1551 P.3       1 GTP         1.5400
      2 O1G         8.4880    1.3105    5.4129 O.co2     1 GTP        -0.8909
      3 O2G        10.2468    0.8218    3.5171 O.co2     1 GTP        -0.8909
      4 O3G         9.8992    3.1886    4.4112 O.3       1 GTP        -0.7980
      5 O3B         8.1218    2.1613    3.0255 O.3       1 GTP        -0.7612
      6 PB          8.3466    2.8302    1.5532 P.3       1 GTP         1.5847
      7 O1B         8.9229    4.2169    1.7336 O.co2     1 GTP        -0.8859
      8 O2B         9.0000    1.8134    0.6440 O.co2     1 GTP        -0.8859
      9 O3A         6.7894    2.9445    1.0769 O.3       1 GTP        -0.7486
     10 PA          6.1593    3.5241   -0.3148 P.3       1 GTP         1.5001
     11 O1A         6.4655    5.0032   -0.4087 O.co2     1 GTP        -0.8487
     12 O2A         6.5181    2.5780   -1.4399 O.co2     1 GTP        -0.8487
     13 O5'         4.5670    3.2937   -0.0211 O.3       1 GTP        -0.5474
     14 C5'         4.0922    1.9801    0.2227 C.3       1 GTP         0.2547
     15 C4'         2.5944    2.0310    0.4653 C.3       1 GTP         0.0926
     16 O4'         1.9327    2.5740   -0.6889 O.3       1 GTP        -0.3593
     17 C3'         1.9685    0.6634    0.6767 C.3       1 GTP         0.0907
     18 O3'         2.1425    0.1975    1.9977 O.3       1 GTP        -0.5209
     19 C2'         0.5176    0.9128    0.3099 C.3       1 GTP         0.0305
     20 O2'        -0.2103    1.4454    1.4152 O.3       1 GTP        -0.5978
     21 C1'         0.6219    1.9765   -0.7844 C.3       1 GTP         0.2339
     22 N9          0.4237    1.4496   -2.1357 N.pl3     1 GTP        -0.1765
     23 C8          1.3988    0.9691   -2.9736 C.ar      1 GTP         0.4947
     24 N7          0.9092    0.5634   -4.1293 N.2       1 GTP        -0.5802
     25 C5         -0.4383    0.7914   -4.0325 C.ar      1 GTP         0.2279
     26 C6         -1.4217    0.5138   -5.0461 C.ar      1 GTP         0.6513
     27 O6         -1.1759    0.0306   -6.1417 O.2       1 GTP        -0.5111
     28 N1         -2.7543    0.8794   -4.6134 N.pl3     1 GTP        -0.4713
     29 C2         -3.0626    1.4402   -3.3523 C.ar      1 GTP         0.5256
     30 N2         -4.3747    1.7544   -3.0321 N.pl3     1 GTP        -0.8665
     31 N3         -2.0304    1.6759   -2.4233 N.pl3     1 GTP        -0.5398
     32 C4         -0.7497    1.3366   -2.8118 C.ar      1 GTP        -0.0275
     33 HOG3       10.4121    3.5986    3.6824 H         1 GTP         0.4161
     34 H5'         4.3179    1.3548   -0.6470 H         1 GTP         0.0348
     35 H5''        4.6083    1.5737    1.0983 H         1 GTP         0.0348
     36 H4'         2.3752    2.7029    1.3156 H         1 GTP         0.1215
     37 H3'         2.4336   -0.1217   -0.0015 H         1 GTP         0.0576
     38 HO3'        1.7160   -0.6716    2.0397 H         1 GTP         0.3842
     39 H2'         0.0316    0.0155   -0.0339 H         1 GTP         0.0252
     40 HO2'       -1.1270    1.5823    1.1180 H         1 GTP         0.4224
     41 H1'        -0.1474    2.7798   -0.6651 H         1 GTP         0.0745
     42 H8          2.4413    0.9409   -2.6872 H         1 GTP         0.1522
     43 HN1        -3.5236    0.7214   -5.2629 H         1 GTP         0.3518
     44 HN21       -4.5350    2.1409   -2.1461 H         1 GTP         0.4761
     45 HN22       -5.0542    1.5695   -3.7134 H         1 GTP         0.4761
     46 H46        -2.2462    2.0786   -1.5136 H         1 GTP         0.5030
@<TRIPOS>BOND
     1    1    2 2
     2    1    3 1
     3    1    4 1
     4    1    5 1
     5    4   33 1
     6    5    6 1
     7    6    7 2
     8    6    8 1
     9    6    9 1
    10    9   10 1
    11   10   11 2
    12   10   12 1
    13   10   13 1
    14   13   14 1
    15   14   15 1
    16   14   34 1
    17   14   35 1
    18   15   16 1
    19   15   17 1
    20   15   36 1
    21   16   21 1
    22   17   18 1
    23   17   19 1
    24   17   37 1
    25   18   38 1
    26   19   20 1
    27   19   21 1
    28   19   39 1
    29   20   40 1
    30   21   22 1
    31   21   41 1
    32   22   23 ar
    33   22   32 ar
    34   23   24 ar
    35   23   42 1
    36   24   25 ar
    37   25   26 ar
    38   25   32 ar
    39   26   27 2
    40   26   28 ar
    41   28   29 ar
    42   28   43 1
    43   29   30 1
    44   29   31 ar
    45   30   44 1
    46   30   45 1
    47   31   32 ar
    48   31   46 1
@<TRIPOS>SUBSTRUCTURE
     1 GTP         1 GROUP 0 A     ****
@<TRIPOS>MOLECULE
[[[5-(2-amino-6-oxo-1,3-dihydropurin-2-ylium-9-yl)-3,4-dihydroxy-tetrahydrofuran-2-yl]methoxy-oxido-phosphoryl]oxy-oxido-phosphoryl] hydrogen phosphate
   46    48     1     0     0
SMALL
USER_CHARGES

@<TRIPOS>ATOM
      1 PG         10.2532    2.5853    3.9178 P.3       1 GTP         1.5400
      2 O1G        11.3409    2.1361    2.9677 O.co2     1 GTP        -0.8909
      3 O2G        10.3701    3.8915    4.6713 O.co2     1 GTP        -0.8909
      4 O3G         9.9781    1.3887    4.9941 O.3       1 GTP        -0.7980
      5 O3B         8.8196    2.5505    3.1386 O.3       1 GTP        -0.7612
      6 PB          8.2828    3.4617    1.8947 P.3       1 GTP         1.5847
      7 O1B         8.1566    4.8945    2.3624 O.co2     1 GTP        -0.8859
      8 O2B         9.0596    3.1013    0.6480 O.co2     1 GTP        -0.8859
      9 O3A         6.7954    2.8129    1.7175 O.3       1 GTP        -0.7486
     10 PA          6.3565    1.2771    1.3734 P.3       1 GTP         1.5001
     11 O1A         6.8504    0.9292   -0.0141 O.co2     1 GTP        -0.8487
     12 O2A         6.6848    0.4014    2.5630 O.co2     1 GTP        -0.8487
     13 O5'         4.7294    1.4427    1.3696 O.3       1 GTP        -0.5474
     14 C5'         4.0922    1.9801    0.2227 C.3       1 GTP         0.2547
     15 C4'         2.5944    2.0310    0.4653 C.3       1 GTP         0.0926
     16 O4'         1.9327    2.5740   -0.6889 O.3       1 GTP        -0.3593
     17 C3'         1.9685    0.6634    0.6767 C.3       1 GTP         0.0907
     18 O3'         2.1425    0.1975    1.9977 O.3       1 GTP        -0.5209
     19 C2'         0.5176    0.9128    0.3099 C.3       1 GTP         0.0305
     20 O2'        -0.2103    1.4454    1.4152 O.3       1 GTP        -0.5978
     21 C1'         0.6219    1.9765   -0.7844 C.3       1 GTP         0.2339
     22 N9          0.4237    1.4496   -2.1357 N.pl3     1 GTP        -0.1765
     23 C8          1.3988    0.9691   -2.9736 C.ar      1 GTP         0.4947
     24 N7          0.9092    0.5634   -4.1293 N.2       1 GTP        -0.5802
     25 C5         -0.4383    0.7914   -4.0325 C.ar      1 GTP         0.2279
     26 C6         -1.4217    0.5138   -5.0461 C.ar      1 GTP         0.6513
     27 O6         -1.1759    0.0306   -6.1417 O.2       1 GTP        -0.5111
     28 N1         -2.7543    0.8794   -4.6134 N.pl3     1 GTP        -0.4713
     29 C2         -3.0626    1.4402   -3.3523 C.ar      1 GTP         0.5256
     30 N2         -4.3747    1.7544   -3.0321 N.pl3     1 GTP        -0.8665
     31 N3         -2.0304    1.6759   -2.4233 N.pl3     1 GTP        -0.5398
     32 C4         -0.7497    1.3366   -2.8118 C.ar      1 GTP        -0.0275
     33 HOG3        9.2938    1.5285    5.6829 H         1 GTP         0.4161
     34 H5'         4.4843    2.9854    0.0380 H         1 GTP         0.0348
     35 H5''        4.3191    1.3446   -0.6392 H         1 GTP         0.0348
     36 H4'         2.3752    2.7029    1.3156 H         1 GTP         0.1215
     37 H3'         2.4336   -0.1217   -0.0015 H         1 GTP         0.0576
     38 HO3'        3.0987    0.1465    2.1461 H         1 GTP         0.3842
     39 H2'         0.0316    0.0155   -0.0339 H         1 GTP         0.0252
     40 HO2'       -1.1270    1.5823    1.1180 H         1 GTP         0.4224
     41 H1'        -0.1474    2.7798   -0.6651 H         1 GTP         0.0745
     42 H8          2.4413    0.9409   -2.6872 H         1 GTP         0.1522
     43 HN1        -3.5236    0.7214   -5.2629 H         1 GTP         0.3518
     44 HN21       -4.5350    2.1409   -2.1461 H         1 GTP         0.4761
     45 HN22       -5.0542    1.5695   -3.7134 H         1 GTP         0.4761
     46 H46        -2.2462    2.0786   -1.5136 H         1 GTP         0.5030
@<TRIPOS>BOND
     1    1    2 2
     2    1    3 1
     3    1    4 1
     4    1    5 1
     5    4   33 1
     6    5    6 1
     7    6    7 2
     8    6    8 1
     9    6    9 1
    10    9   10 1
    11   10   11 2
    12   10   12 1
    13   10   13 1
    14   13   14 1
    15   14   15 1
    16   14   34 1
    17   14   35 1
    18   15   16 1
    19   15   17 1
    20   15   36 1
    21   16   21 1
    22   17   18 1
    23   17   19 1
    24   17   37 1
    25   18   38 1
    26   19   20 1
    27   19   21 1
    28   19   39 1
    29   20   40 1
    30   21   22 1
    31   21   41 1
    32   22   23 ar
    33   22   32 ar
    34   23   24 ar
    35   23   42 1
    36   24   25 ar
    37   25   26 ar
    38   25   32 ar
    39   26   27 2
    40   26   28 ar
    41   28   29 ar
    42   28   43 1
    43   29   30 1
    44   29   31 ar
    45   30   44 1
    46   30   45 1
    47   31   32 ar
    48   31   46 1
@<TRIPOS>SUBSTRUCTURE
     1 GTP         1 GROUP 0 A     ****
@<TRIPOS>MOLECULE
[[[5-(2-amino-6-oxo-1,3-dihydropurin-2-ylium-9-yl)-3,4-dihydroxy-tetrahydrofuran-2-yl]methoxy-oxido-phosphoryl]oxy-oxido-phosphoryl] hydrogen phosphate
   46    48     1     0     0
SMALL
USER_CHARGES

@<TRIPOS>ATOM
      1 PG         10.2893    1.6015    1.6229 P.3       1 GTP         1.5400
      2 O1G        10.0911    1.5077    3.1194 O.co2     1 GTP        -0.8909
      3 O2G        10.9270    0.4680    0.8507 O.co2     1 GTP        -0.8909
      4 O3G        11.1049    2.9769    1.2929 O.3       1 GTP        -0.7980
      5 O3B         8.8662    1.9845    0.9216 O.3       1 GTP        -0.7612
      6 PB          8.5328    2.3572   -0.6326 P.3       1 GTP         1.5847
      7 O1B         9.2169    3.6617   -0.9757 O.co2     1 GTP        -0.8859
      8 O2B         8.7117    1.1211   -1.4856 O.co2     1 GTP        -0.8859
      9 O3A         6.9241    2.6024   -0.5039 O.3       1 GTP        -0.7486
     10 PA          6.0980    3.6799    0.4052 P.3       1 GTP         1.5001
     11 O1A         6.3301    3.3626    1.8666 O.co2     1 GTP        -0.8487
     12 O2A         6.3471    5.0681   -0.1431 O.co2     1 GTP        -0.8487
     13 O5'         4.5670    3.2937   -0.0211 O.3       1 GTP        -0.5474
     14 C5'         4.0922    1.9801    0.2227 C.3       1 GTP         0.2547
     15 C4'         2.5944    2.0310    0.4653 C.3       1 GTP         0.0926
     16 O4'         1.9327    2.5740   -0.6889 O.3       1 GTP        -0.3593
     17 C3'         1.9685    0.6634    0.6767 C.3       1 GTP         0.0907
     18 O3'         2.1425    0.1975    1.9977 O.3       1 GTP        -0.5209
     19 C2'         0.5176    0.9128    0.3099 C.3       1 GTP         0.0305
     20 O2'        -0.2103    1.4454    1.4152 O.3       1 GTP        -0.5978
     21 C1'         0.6219    1.9765   -0.7844 C.3       1 GTP         0.2339
     22 N9          0.4237    1.4496   -2.1357 N.pl3     1 GTP        -0.1765
     23 C8          1.3988    0.9691   -2.9736 C.ar      1 GTP         0.4947
     24 N7          0.9092    0.5634   -4.1293 N.2       1 GTP        -0.5802
     25 C5         -0.4383    0.7914   -4.0325 C.ar      1 GTP         0.2279
     26 C6         -1.4217    0.5138   -5.0461 C.ar      1 GTP         0.6513
     27 O6         -1.1759    0.0306   -6.1417 O.2       1 GTP        -0.5111
     28 N1         -2.7543    0.8794   -4.6134 N.pl3     1 GTP        -0.4713
     29 C2         -3.0626    1.4402   -3.3523 C.ar      1 GTP         0.5256
     30 N2         -4.3747    1.7544   -3.0321 N.pl3     1 GTP        -0.8665
     31 N3         -2.0304    1.6759   -2.4233 N.pl3     1 GTP        -0.5398
     32 C4         -0.7497    1.3366   -2.8118 C.ar      1 GTP        -0.0275
     33 HOG3       11.3130    3.1832    0.3567 H         1 GTP         0.4161
     34 H5'         4.3179    1.3548   -0.6470 H         1 GTP         0.0348
     35 H5''        4.6083    1.5737    1.0983 H         1 GTP         0.0348
     36 H4'         2.3752    2.7029    1.3156 H         1 GTP         0.1215
     37 H3'         2.4336   -0.1217   -0.0015 H         1 GTP         0.0576
     38 HO3'        1.7160   -0.6716    2.0397 H         1 GTP         0.3842
     39 H2'         0.0316    0.0155   -0.0339 H         1 GTP         0.0252
     40 HO2'       -1.1270    1.5823    1.1180 H         1 GTP         0.4224
     41 H1'        -0.1474    2.7798   -0.6651 H         1 GTP         0.0745
     42 H8          2.4413    0.9409   -2.6872 H         1 GTP         0.1522
     43 HN1        -3.5236    0.7214   -5.2629 H         1 GTP         0.3518
     44 HN21       -4.5350    2.1409   -2.1461 H         1 GTP         0.4761
     45 HN22       -5.0542    1.5695   -3.7134 H         1 GTP         0.4761
     46 H46        -2.2462    2.0786   -1.5136 H         1 GTP         0.5030
@<TRIPOS>BOND
     1    1    2 2
     2    1    3 1
     3    1    4 1
     4    1    5 1
     5    4   33 1
     6    5    6 1
     7    6    7 2
     8    6    8 1
     9    6    9 1
    10    9   10 1
    11   10   11 2
    12   10   12 1
    13   10   13 1
    14   13   14 1
    15   14   15 1
    16   14   34 1
    17   14   35 1
    18   15   16 1
    19   15   17 1
    20   15   36 1
    21   16   21 1
    22   17   18 1
    23   17   19 1
    24   17   37 1
    25   18   38 1
    26   19   20 1
    27   19   21 1
    28   19   39 1
    29   20   40 1
    30   21   22 1
    31   21   41 1
    32   22   23 ar
    33   22   32 ar
    34   23   24 ar
    35   23   42 1
    36   24   25 ar
    37   25   26 ar
    38   25   32 ar
    39   26   27 2
    40   26   28 ar
    41   28   29 ar
    42   28   43 1
    43   29   30 1
    44   29   31 ar
    45   30   44 1
    46   30   45 1
    47   31   32 ar
    48   31   46 1
@<TRIPOS>SUBSTRUCTURE
     1 GTP         1 GROUP 0 A     ****
@<TRIPOS>MOLECULE
[[[5-(2-amino-6-oxo-1,3-dihydropurin-2-ylium-9-yl)-3,4-dihydroxy-tetrahydrofuran-2-yl]methoxy-oxido-phosphoryl]oxy-oxido-phosphoryl] hydrogen phosphate
   46    48     1     0     0
SMALL
USER_CHARGES

@<TRIPOS>ATOM
      1 PG         -4.9419    5.7233   -2.1630 P.3       1 GTP         1.5400
      2 O1G        -5.6691    4.7556   -3.0697 O.co2     1 GTP        -0.8909
      3 O2G        -5.6202    6.9793   -1.6628 O.co2     1 GTP        -0.8909
      4 O3G        -3.5338    6.1430   -2.8750 O.3       1 GTP        -0.7980
      5 O3B        -4.3383    4.9041   -0.8869 O.3       1 GTP        -0.7612
      6 PB         -5.1161    4.1493    0.3342 P.3       1 GTP         1.5847
      7 O1B        -5.8427    5.1866    1.1609 O.co2     1 GTP        -0.8859
      8 O2B        -5.8280    2.9319   -0.2123 O.co2     1 GTP        -0.8859
      9 O3A        -3.8245    3.5965    1.1654 O.3       1 GTP        -0.7486
     10 PA         -2.5926    4.4187    1.8556 P.3       1 GTP         1.5001
     11 O1A        -1.8001    5.1111    0.7680 O.co2     1 GTP        -0.8487
     12 O2A        -3.1290    5.1879    3.0431 O.co2     1 GTP        -0.8487
     13 O5'        -1.7336    3.1724    2.4750 O.3       1 GTP        -0.5474
     14 C5'        -0.8811    2.4285    1.6206 C.3       1 GTP         0.2547
     15 C4'        -0.1994    1.3333    2.4288 C.3       1 GTP         0.0926
     16 O4'        -1.1285    0.2356    2.5840 O.3       1 GTP        -0.3593
     17 C3'         1.0324    0.7610    1.7344 C.3       1 GTP         0.0907
     18 O3'         1.9175    0.2377    2.7247 O.3       1 GTP        -0.5209
     19 C2'         0.4468   -0.3802    0.9263 C.3       1 GTP         0.0305
     20 O2'         1.3993   -1.3703    0.5961 O.3       1 GTP        -0.5978
     21 C1'        -0.6159   -0.9100    1.8769 C.3       1 GTP         0.2339
     22 N9         -1.7127   -1.6108    1.2130 N.pl3     1 GTP        -0.1765
     23 C8         -3.0389   -1.2578    1.2391 C.ar      1 GTP         0.4947
     24 N7         -3.7909   -2.0880    0.5425 N.2       1 GTP        -0.5802
     25 C5         -2.9127   -3.0150    0.0458 C.ar      1 GTP         0.2279
     26 C6         -3.2467   -4.1411   -0.7860 C.ar      1 GTP         0.6513
     27 O6         -4.3761   -4.4189   -1.1621 O.2       1 GTP        -0.5111
     28 N1         -2.0748   -4.9191   -1.1296 N.pl3     1 GTP        -0.4713
     29 C2         -0.7595   -4.6181   -0.7058 C.ar      1 GTP         0.5256
     30 N2          0.2985   -5.4268   -1.0920 N.pl3     1 GTP        -0.8665
     31 N3         -0.5304   -3.4919    0.1084 N.pl3     1 GTP        -0.5398
     32 C4         -1.6318   -2.7332    0.4512 C.ar      1 GTP        -0.0275
     33 HOG3       -2.8840    5.4365   -3.0771 H         1 GTP         0.4161
     34 H5'        -1.4800    1.9927    0.8146 H         1 GTP         0.0348
     35 H5''       -0.1367    3.1040    1.1872 H         1 GTP         0.0348
     36 H4'         0.0403    1.7078    3.4343 H         1 GTP         0.1215
     37 H3'         1.5907    1.4859    1.1353 H         1 GTP         0.0576
     38 HO3'        2.1521    0.9800    3.3017 H         1 GTP         0.3842
     39 H2'        -0.0017    0.0018    0.0005 H         1 GTP         0.0252
     40 HO2'        1.7495   -1.7243    1.4324 H         1 GTP         0.4224
     41 H1'        -0.1998   -1.6319    2.6178 H         1 GTP         0.0745
     42 H8         -3.3933   -0.3909    1.7800 H         1 GTP         0.1522
     43 HN1        -2.2071   -5.7408   -1.7178 H         1 GTP         0.3518
     44 HN21        0.0848   -6.1964   -1.6597 H         1 GTP         0.4761
     45 HN22        1.1896   -5.1747   -0.7719 H         1 GTP         0.4761
     46 H46         0.4142   -3.2695    0.4160 H         1 GTP         0.5030
@<TRIPOS>BOND
     1    1    2 2
     2    1    3 1
     3    1    4 1
     4    1    5 1
     5    4   33 1
     6    5    6 1
     7    6    7 2
     8    6    8 1
     9    6    9 1
    10    9   10 1
    11   10   11 2
    12   10   12 1
    13   10   13 1
    14   13   14 1
    15   14   15 1
    16   14   34 1
    17   14   35 1
    18   15   16 1
    19   15   17 1
    20   15   36 1
    21   16   21 1
    22   17   18 1
    23   17   19 1
    24   17   37 1
    25   18   38 1
    26   19   20 1
    27   19   21 1
    28   19   39 1
    29   20   40 1
    30   21   22 1
    31   21   41 1
    32   22   23 ar
    33   22   32 ar
    34   23   24 ar
    35   23   42 1
    36   24   25 ar
    37   25   26 ar
    38   25   32 ar
    39   26   27 2
    40   26   28 ar
    41   28   29 ar
    42   28   43 1
    43   29   30 1
    44   29   31 ar
    45   30   44 1
    46   30   45 1
    47   31   32 ar
    48   31   46 1
@<TRIPOS>SUBSTRUCTURE
     1 GTP         1 GROUP 0 A     ****
@<TRIPOS>MOLECULE
[[[5-(2-amino-6-oxo-1,3-dihydropurin-2-ylium-9-yl)-3,4-dihydroxy-tetrahydrofuran-2-yl]methoxy-oxido-phosphoryl]oxy-oxido-phosphoryl] hydrogen phosphate
   46    48     1     0     0
SMALL
USER_CHARGES

@<TRIPOS>ATOM
      1 PG          3.6721    4.1306    6.3047 P.3       1 GTP         1.5400
      2 O1G         4.5600    3.1951    7.0946 O.co2     1 GTP        -0.8909
      3 O2G         3.6037    5.6042    6.6385 O.co2     1 GTP        -0.8909
      4 O3G         2.1545    3.5282    6.3040 O.3       1 GTP        -0.7980
      5 O3B         4.0046    3.9631    4.7156 O.3       1 GTP        -0.7612
      6 PB          5.3574    4.3433    3.8843 P.3       1 GTP         1.5847
      7 O1B         5.5365    5.8449    3.9104 O.co2     1 GTP        -0.8859
      8 O2B         6.4701    3.4060    4.2975 O.co2     1 GTP        -0.8859
      9 O3A         4.8880    3.8759    2.3923 O.3       1 GTP        -0.7486
     10 PA          5.6979    3.9301    0.9743 P.3       1 GTP         1.5001
     11 O1A         5.9554    5.3778    0.6161 O.co2     1 GTP        -0.8487
     12 O2A         6.8267    2.9235    1.0223 O.co2     1 GTP        -0.8487
     13 O5'         4.5670    3.2937   -0.0211 O.3       1 GTP        -0.5474
     14 C5'         4.0922    1.9801    0.2227 C.3       1 GTP         0.2547
     15 C4'         2.5944    2.0310    0.4653 C.3       1 GTP         0.0926
     16 O4'         1.9327    2.5740   -0.6889 O.3       1 GTP        -0.3593
     17 C3'         1.9685    0.6634    0.6767 C.3       1 GTP         0.0907
     18 O3'         2.1425    0.1975    1.9977 O.3       1 GTP        -0.5209
     19 C2'         0.5176    0.9128    0.3099 C.3       1 GTP         0.0305
     20 O2'        -0.2103    1.4454    1.4152 O.3       1 GTP        -0.5978
     21 C1'         0.6219    1.9765   -0.7844 C.3       1 GTP         0.2339
     22 N9          0.4237    1.4496   -2.1357 N.pl3     1 GTP        -0.1765
     23 C8          1.3988    0.9691   -2.9736 C.ar      1 GTP         0.4947
     24 N7          0.9092    0.5634   -4.1293 N.2       1 GTP        -0.5802
     25 C5         -0.4383    0.7914   -4.0325 C.ar      1 GTP         0.2279
     26 C6         -1.4217    0.5138   -5.0461 C.ar      1 GTP         0.6513
     27 O6         -1.1759    0.0306   -6.1417 O.2       1 GTP        -0.5111
     28 N1         -2.7543    0.8794   -4.6134 N.pl3     1 GTP        -0.4713
     29 C2         -3.0626    1.4402   -3.3523 C.ar      1 GTP         0.5256
     30 N2         -4.3747    1.7544   -3.0321 N.pl3     1 GTP        -0.8665
     31 N3         -2.0304    1.6759   -2.4233 N.pl3     1 GTP        -0.5398
     32 C4         -0.7497    1.3366   -2.8118 C.ar      1 GTP        -0.0275
     33 HOG3        1.4550    4.0253    5.8287 H         1 GTP         0.4161
     34 H5'         4.3179    1.3548   -0.6470 H         1 GTP         0.0348
     35 H5''        4.6083    1.5737    1.0983 H         1 GTP         0.0348
     36 H4'         2.3752    2.7029    1.3156 H         1 GTP         0.1215
     37 H3'         2.4336   -0.1217   -0.0015 H         1 GTP         0.0576
     38 HO3'        1.7160   -0.6716    2.0397 H         1 GTP         0.3842
     39 H2'         0.0316    0.0155   -0.0339 H         1 GTP         0.0252
     40 HO2'       -0.1608    0.7921    2.1351 H         1 GTP         0.4224
     41 H1'        -0.1474    2.7798   -0.6651 H         1 GTP         0.0745
     42 H8          2.4413    0.9409   -2.6872 H         1 GTP         0.1522
     43 HN1        -3.5236    0.7214   -5.2629 H         1 GTP         0.3518
     44 HN21       -4.5350    2.1409   -2.1461 H         1 GTP         0.4761
     45 HN22       -5.0542    1.5695   -3.7134 H         1 GTP         0.4761
     46 H46        -2.2462    2.0786   -1.5136 H         1 GTP         0.5030
@<TRIPOS>BOND
     1    1    2 2
     2    1    3 1
     3    1    4 1
     4    1    5 1
     5    4   33 1
     6    5    6 1
     7    6    7 2
     8    6    8 1
     9    6    9 1
    10    9   10 1
    11   10   11 2
    12   10   12 1
    13   10   13 1
    14   13   14 1
    15   14   15 1
    16   14   34 1
    17   14   35 1
    18   15   16 1
    19   15   17 1
    20   15   36 1
    21   16   21 1
    22   17   18 1
    23   17   19 1
    24   17   37 1
    25   18   38 1
    26   19   20 1
    27   19   21 1
    28   19   39 1
    29   20   40 1
    30   21   22 1
    31   21   41 1
    32   22   23 ar
    33   22   32 ar
    34   23   24 ar
    35   23   42 1
    36   24   25 ar
    37   25   26 ar
    38   25   32 ar
    39   26   27 2
    40   26   28 ar
    41   28   29 ar
    42   28   43 1
    43   29   30 1
    44   29   31 ar
    45   30   44 1
    46   30   45 1
    47   31   32 ar
    48   31   46 1
@<TRIPOS>SUBSTRUCTURE
     1 GTP         1 GROUP 0 A     ****
@<TRIPOS>MOLECULE
[[[5-(2-amino-6-oxo-1,3-dihydropurin-2-ylium-9-yl)-3,4-dihydroxy-tetrahydrofuran-2-yl]methoxy-oxido-phosphoryl]oxy-oxido-phosphoryl] hydrogen phosphate
   46    48     1     0     0
SMALL
USER_CHARGES

@<TRIPOS>ATOM
      1 PG          9.1130    0.1267    3.8486 P.3       1 GTP         1.5400
      2 O1G         9.8822   -0.8279    2.9629 O.co2     1 GTP        -0.8909
      3 O2G         9.8345    1.0776    4.7776 O.co2     1 GTP        -0.8909
      4 O3G         8.0334   -0.7321    4.7221 O.3       1 GTP        -0.7980
      5 O3B         8.0661    0.9772    2.9298 O.3       1 GTP        -0.7612
      6 PB          8.3566    2.0894    1.7704 P.3       1 GTP         1.5847
      7 O1B         9.0012    3.2991    2.4097 O.co2     1 GTP        -0.8859
      8 O2B         8.9745    1.4034    0.5725 O.co2     1 GTP        -0.8859
      9 O3A         6.8179    2.4457    1.3577 O.3       1 GTP        -0.7486
     10 PA          6.2486    3.4952    0.2423 P.3       1 GTP         1.5001
     11 O1A         6.6342    4.8994    0.6541 O.co2     1 GTP        -0.8487
     12 O2A         6.5806    2.9650   -1.1355 O.co2     1 GTP        -0.8487
     13 O5'         4.6405    3.2699    0.4378 O.3       1 GTP        -0.5474
     14 C5'         4.0922    1.9801    0.2227 C.3       1 GTP         0.2547
     15 C4'         2.5944    2.0310    0.4653 C.3       1 GTP         0.0926
     16 O4'         1.9327    2.5740   -0.6889 O.3       1 GTP        -0.3593
     17 C3'         1.9685    0.6634    0.6767 C.3       1 GTP         0.0907
     18 O3'         2.1425    0.1975    1.9977 O.3       1 GTP        -0.5209
     19 C2'         0.5176    0.9128    0.3099 C.3       1 GTP         0.0305
     20 O2'        -0.2103    1.4454    1.4152 O.3       1 GTP        -0.5978
     21 C1'         0.6219    1.9765   -0.7844 C.3       1 GTP         0.2339
     22 N9          0.4237    1.4496   -2.1357 N.pl3     1 GTP        -0.1765
     23 C8          1.3988    0.9691   -2.9736 C.ar      1 GTP         0.4947
     24 N7          0.9092    0.5634   -4.1293 N.2       1 GTP        -0.5802
     25 C5         -0.4383    0.7914   -4.0325 C.ar      1 GTP         0.2279
     26 C6         -1.4217    0.5138   -5.0461 C.ar      1 GTP         0.6513
     27 O6         -1.1759    0.0306   -6.1417 O.2       1 GTP        -0.5111
     28 N1         -2.7543    0.8794   -4.6134 N.pl3     1 GTP        -0.4713
     29 C2         -3.0626    1.4402   -3.3523 C.ar      1 GTP         0.5256
     30 N2         -4.3747    1.7544   -3.0321 N.pl3     1 GTP        -0.8665
     31 N3         -2.0304    1.6759   -2.4233 N.pl3     1 GTP        -0.5398
     32 C4         -0.7497    1.3366   -2.8118 C.ar      1 GTP        -0.0275
     33 HOG3        7.4530   -0.2514    5.3501 H         1 GTP         0.4161
     34 H5'         4.3028    1.6728   -0.8066 H         1 GTP         0.0348
     35 H5''        4.5677    1.2738    0.9106 H         1 GTP         0.0348
     36 H4'         2.3752    2.7029    1.3156 H         1 GTP         0.1215
     37 H3'         2.4336   -0.1217   -0.0015 H         1 GTP         0.0576
     38 HO3'        3.0987    0.1465    2.1461 H         1 GTP         0.3842
     39 H2'         0.0316    0.0155   -0.0339 H         1 GTP         0.0252
     40 HO2'       -1.1270    1.5823    1.1180 H         1 GTP         0.4224
     41 H1'        -0.1474    2.7798   -0.6651 H         1 GTP         0.0745
     42 H8          2.4413    0.9409   -2.6872 H         1 GTP         0.1522
     43 HN1        -3.5236    0.7214   -5.2629 H         1 GTP         0.3518
     44 HN21       -4.5350    2.1409   -2.1461 H         1 GTP         0.4761
     45 HN22       -5.0542    1.5695   -3.7134 H         1 GTP         0.4761
     46 H46        -2.2462    2.0786   -1.5136 H         1 GTP         0.5030
@<TRIPOS>BOND
     1    1    2 2
     2    1    3 1
     3    1    4 1
     4    1    5 1
     5    4   33 1
     6    5    6 1
     7    6    7 2
     8    6    8 1
     9    6    9 1
    10    9   10 1
    11   10   11 2
    12   10   12 1
    13   10   13 1
    14   13   14 1
    15   14   15 1
    16   14   34 1
    17   14   35 1
    18   15   16 1
    19   15   17 1
    20   15   36 1
    21   16   21 1
    22   17   18 1
    23   17   19 1
    24   17   37 1
    25   18   38 1
    26   19   20 1
    27   19   21 1
    28   19   39 1
    29   20   40 1
    30   21   22 1
    31   21   41 1
    32   22   23 ar
    33   22   32 ar
    34   23   24 ar
    35   23   42 1
    36   24   25 ar
    37   25   26 ar
    38   25   32 ar
    39   26   27 2
    40   26   28 ar
    41   28   29 ar
    42   28   43 1
    43   29   30 1
    44   29   31 ar
    45   30   44 1
    46   30   45 1
    47   31   32 ar
    48   31   46 1
@<TRIPOS>SUBSTRUCTURE
     1 GTP         1 GROUP 0 A     ****
@<TRIPOS>MOLECULE
[[[5-(2-amino-6-oxo-1,3-dihydropurin-2-ylium-9-yl)-3,4-dihydroxy-tetrahydrofuran-2-yl]methoxy-oxido-phosphoryl]oxy-oxido-phosphoryl] hydrogen phosphate
   46    48     1     0     0
SMALL
USER_CHARGES

@<TRIPOS>ATOM
      1 PG          5.2712    6.7342   -3.9963 P.3       1 GTP         1.5400
      2 O1G         3.9891    7.5100   -3.7922 O.co2     1 GTP        -0.8909
      3 O2G         6.6115    7.3420   -3.6473 O.co2     1 GTP        -0.8909
      4 O3G         5.3238    6.2171   -5.5442 O.3       1 GTP        -0.7980
      5 O3B         5.1388    5.2853   -3.2567 O.3       1 GTP        -0.7612
      6 PB          6.1484    4.0025   -3.2808 P.3       1 GTP         1.5847
      7 O1B         6.1879    3.4429   -4.6854 O.co2     1 GTP        -0.8859
      8 O2B         7.4149    4.3574   -2.5341 O.co2     1 GTP        -0.8859
      9 O3A         5.3088    2.9902   -2.3139 O.3       1 GTP        -0.7486
     10 PA          5.6603    1.4687   -1.8328 P.3       1 GTP         1.5001
     11 O1A         5.6670    0.5641   -3.0461 O.co2     1 GTP        -0.8487
     12 O2A         6.8417    1.5200   -0.8887 O.co2     1 GTP        -0.8487
     13 O5'         4.3516    1.1575   -0.9026 O.3       1 GTP        -0.5474
     14 C5'         4.0922    1.9801    0.2227 C.3       1 GTP         0.2547
     15 C4'         2.5944    2.0310    0.4653 C.3       1 GTP         0.0926
     16 O4'         1.9327    2.5740   -0.6889 O.3       1 GTP        -0.3593
     17 C3'         1.9685    0.6634    0.6767 C.3       1 GTP         0.0907
     18 O3'         2.1425    0.1975    1.9977 O.3       1 GTP        -0.5209
     19 C2'         0.5176    0.9128    0.3099 C.3       1 GTP         0.0305
     20 O2'        -0.2103    1.4454    1.4152 O.3       1 GTP        -0.5978
     21 C1'         0.6219    1.9765   -0.7844 C.3       1 GTP         0.2339
     22 N9          0.4237    1.4496   -2.1357 N.pl3     1 GTP        -0.1765
     23 C8          1.3988    0.9691   -2.9736 C.ar      1 GTP         0.4947
     24 N7          0.9092    0.5634   -4.1293 N.2       1 GTP        -0.5802
     25 C5         -0.4383    0.7914   -4.0325 C.ar      1 GTP         0.2279
     26 C6         -1.4217    0.5138   -5.0461 C.ar      1 GTP         0.6513
     27 O6         -1.1759    0.0306   -6.1417 O.2       1 GTP        -0.5111
     28 N1         -2.7543    0.8794   -4.6134 N.pl3     1 GTP        -0.4713
     29 C2         -3.0626    1.4402   -3.3523 C.ar      1 GTP         0.5256
     30 N2         -4.3747    1.7544   -3.0321 N.pl3     1 GTP        -0.8665
     31 N3         -2.0304    1.6759   -2.4233 N.pl3     1 GTP        -0.5398
     32 C4         -0.7497    1.3366   -2.8118 C.ar      1 GTP        -0.0275
     33 HOG3        6.1008    5.6940   -5.8356 H         1 GTP         0.4161
     34 H5'         4.6069    1.5618    1.0936 H         1 GTP         0.0348
     35 H5''        4.4824    2.9837    0.0254 H         1 GTP         0.0348
     36 H4'         2.3752    2.7029    1.3156 H         1 GTP         0.1215
     37 H3'         2.4336   -0.1217   -0.0015 H         1 GTP         0.0576
     38 HO3'        1.7160   -0.6716    2.0397 H         1 GTP         0.3842
     39 H2'         0.0316    0.0155   -0.0339 H         1 GTP         0.0252
     40 HO2'       -0.1608    0.7921    2.1351 H         1 GTP         0.4224
     41 H1'        -0.1474    2.7798   -0.6651 H         1 GTP         0.0745
     42 H8          2.4413    0.9409   -2.6872 H         1 GTP         0.1522
     43 HN1        -3.5236    0.7214   -5.2629 H         1 GTP         0.3518
     44 HN21       -4.5350    2.1409   -2.1461 H         1 GTP         0.4761
     45 HN22       -5.0542    1.5695   -3.7134 H         1 GTP         0.4761
     46 H46        -2.2462    2.0786   -1.5136 H         1 GTP         0.5030
@<TRIPOS>BOND
     1    1    2 2
     2    1    3 1
     3    1    4 1
     4    1    5 1
     5    4   33 1
     6    5    6 1
     7    6    7 2
     8    6    8 1
     9    6    9 1
    10    9   10 1
    11   10   11 2
    12   10   12 1
    13   10   13 1
    14   13   14 1
    15   14   15 1
    16   14   34 1
    17   14   35 1
    18   15   16 1
    19   15   17 1
    20   15   36 1
    21   16   21 1
    22   17   18 1
    23   17   19 1
    24   17   37 1
    25   18   38 1
    26   19   20 1
    27   19   21 1
    28   19   39 1
    29   20   40 1
    30   21   22 1
    31   21   41 1
    32   22   23 ar
    33   22   32 ar
    34   23   24 ar
    35   23   42 1
    36   24   25 ar
    37   25   26 ar
    38   25   32 ar
    39   26   27 2
    40   26   28 ar
    41   28   29 ar
    42   28   43 1
    43   29   30 1
    44   29   31 ar
    45   30   44 1
    46   30   45 1
    47   31   32 ar
    48   31   46 1
@<TRIPOS>SUBSTRUCTURE
     1 GTP         1 GROUP 0 A     ****
@<TRIPOS>MOLECULE
[[[5-(2-amino-6-oxo-1,3-dihydropurin-2-ylium-9-yl)-3,4-dihydroxy-tetrahydrofuran-2-yl]methoxy-oxido-phosphoryl]oxy-oxido-phosphoryl] hydrogen phosphate
   46    48     1     0     0
SMALL
USER_CHARGES

@<TRIPOS>ATOM
      1 PG          7.9453   -2.1857   -2.8742 P.3       1 GTP         1.5400
      2 O1G         8.8361   -3.1902   -2.1780 O.co2     1 GTP        -0.8909
      3 O2G         6.9010   -2.6334   -3.8725 O.co2     1 GTP        -0.8909
      4 O3G         8.8900   -1.0581   -3.5827 O.3       1 GTP        -0.7980
      5 O3B         7.2324   -1.2399   -1.7513 O.3       1 GTP        -0.7612
      6 PB          7.8986   -0.3694   -0.5413 P.3       1 GTP         1.5847
      7 O1B         8.5271   -1.3214    0.4518 O.co2     1 GTP        -0.8859
      8 O2B         8.6770    0.7840   -1.1340 O.co2     1 GTP        -0.8859
      9 O3A         6.5403    0.2695    0.1003 O.3       1 GTP        -0.7486
     10 PA          6.3565    1.2771    1.3734 P.3       1 GTP         1.5001
     11 O1A         6.8068    0.5619    2.6289 O.co2     1 GTP        -0.8487
     12 O2A         6.9157    2.6333    1.0025 O.co2     1 GTP        -0.8487
     13 O5'         4.7294    1.4427    1.3696 O.3       1 GTP        -0.5474
     14 C5'         4.0922    1.9801    0.2227 C.3       1 GTP         0.2547
     15 C4'         2.5944    2.0310    0.4653 C.3       1 GTP         0.0926
     16 O4'         1.9327    2.5740   -0.6889 O.3       1 GTP        -0.3593
     17 C3'         1.9685    0.6634    0.6767 C.3       1 GTP         0.0907
     18 O3'         2.1425    0.1975    1.9977 O.3       1 GTP        -0.5209
     19 C2'         0.5176    0.9128    0.3099 C.3       1 GTP         0.0305
     20 O2'        -0.2103    1.4454    1.4152 O.3       1 GTP        -0.5978
     21 C1'         0.6219    1.9765   -0.7844 C.3       1 GTP         0.2339
     22 N9          0.4237    1.4496   -2.1357 N.pl3     1 GTP        -0.1765
     23 C8          1.3988    0.9691   -2.9736 C.ar      1 GTP         0.4947
     24 N7          0.9092    0.5634   -4.1293 N.2       1 GTP        -0.5802
     25 C5         -0.4383    0.7914   -4.0325 C.ar      1 GTP         0.2279
     26 C6         -1.4217    0.5138   -5.0461 C.ar      1 GTP         0.6513
     27 O6         -1.1759    0.0306   -6.1417 O.2       1 GTP        -0.5111
     28 N1         -2.7543    0.8794   -4.6134 N.pl3     1 GTP        -0.4713
     29 C2         -3.0626    1.4402   -3.3523 C.ar      1 GTP         0.5256
     30 N2         -4.3747    1.7544   -3.0321 N.pl3     1 GTP        -0.8665
     31 N3         -2.0304    1.6759   -2.4233 N.pl3     1 GTP        -0.5398
     32 C4         -0.7497    1.3366   -2.8118 C.ar      1 GTP        -0.0275
     33 HOG3        8.4571   -0.3309   -4.0787 H         1 GTP         0.4161
     34 H5'         4.4843    2.9854    0.0380 H         1 GTP         0.0348
     35 H5''        4.3191    1.3446   -0.6392 H         1 GTP         0.0348
     36 H4'         2.3752    2.7029    1.3156 H         1 GTP         0.1215
     37 H3'         2.4336   -0.1217   -0.0015 H         1 GTP         0.0576
     38 HO3'        1.7160   -0.6716    2.0397 H         1 GTP         0.3842
     39 H2'         0.0316    0.0155   -0.0339 H         1 GTP         0.0252
     40 HO2'       -0.1608    0.7921    2.1351 H         1 GTP         0.4224
     41 H1'        -0.1474    2.7798   -0.6651 H         1 GTP         0.0745
     42 H8          2.4413    0.9409   -2.6872 H         1 GTP         0.1522
     43 HN1        -3.5236    0.7214   -5.2629 H         1 GTP         0.3518
     44 HN21       -4.5350    2.1409   -2.1461 H         1 GTP         0.4761
     45 HN22       -5.0542    1.5695   -3.7134 H         1 GTP         0.4761
     46 H46        -2.2462    2.0786   -1.5136 H         1 GTP         0.5030
@<TRIPOS>BOND
     1    1    2 2
     2    1    3 1
     3    1    4 1
     4    1    5 1
     5    4   33 1
     6    5    6 1
     7    6    7 2
     8    6    8 1
     9    6    9 1
    10    9   10 1
    11   10   11 2
    12   10   12 1
    13   10   13 1
    14   13   14 1
    15   14   15 1
    16   14   34 1
    17   14   35 1
    18   15   16 1
    19   15   17 1
    20   15   36 1
    21   16   21 1
    22   17   18 1
    23   17   19 1
    24   17   37 1
    25   18   38 1
    26   19   20 1
    27   19   21 1
    28   19   39 1
    29   20   40 1
    30   21   22 1
    31   21   41 1
    32   22   23 ar
    33   22   32 ar
    34   23   24 ar
    35   23   42 1
    36   24   25 ar
    37   25   26 ar
    38   25   32 ar
    39   26   27 2
    40   26   28 ar
    41   28   29 ar
    42   28   43 1
    43   29   30 1
    44   29   31 ar
    45   30   44 1
    46   30   45 1
    47   31   32 ar
    48   31   46 1
@<TRIPOS>SUBSTRUCTURE
     1 GTP         1 GROUP 0 A     ****
@<TRIPOS>MOLECULE
[[[5-(2-amino-6-oxo-1,3-dihydropurin-2-ylium-9-yl)-3,4-dihydroxy-tetrahydrofuran-2-yl]methoxy-oxido-phosphoryl]oxy-oxido-phosphoryl] hydrogen phosphate
   46    48     1     0     0
SMALL
USER_CHARGES

@<TRIPOS>ATOM
      1 PG         -2.5446    4.1848   -2.5264 P.3       1 GTP         1.5400
      2 O1G        -1.0546    4.3368   -2.7368 O.co2     1 GTP        -0.8909
      3 O2G        -3.1505    2.8372   -2.2033 O.co2     1 GTP        -0.8909
      4 O3G        -3.3175    4.8028   -3.8251 O.3       1 GTP        -0.7980
      5 O3B        -3.0364    5.2676   -1.4085 O.3       1 GTP        -0.7612
      6 PB         -2.6935    5.3543    0.1854 P.3       1 GTP         1.5847
      7 O1B        -1.1911    5.3598    0.3585 O.co2     1 GTP        -0.8859
      8 O2B        -3.5676    6.4123    0.8211 O.co2     1 GTP        -0.8859
      9 O3A        -3.2920    3.9119    0.6609 O.3       1 GTP        -0.7486
     10 PA         -3.3347    3.2338    2.1468 P.3       1 GTP         1.5001
     11 O1A        -4.0274    4.1866    3.0968 O.co2     1 GTP        -0.8487
     12 O2A        -3.7889    1.7968    2.0106 O.co2     1 GTP        -0.8487
     13 O5'        -1.7336    3.1724    2.4750 O.3       1 GTP        -0.5474
     14 C5'        -0.8811    2.4285    1.6206 C.3       1 GTP         0.2547
     15 C4'        -0.1994    1.3333    2.4288 C.3       1 GTP         0.0926
     16 O4'        -1.1285    0.2356    2.5840 O.3       1 GTP        -0.3593
     17 C3'         1.0324    0.7610    1.7344 C.3       1 GTP         0.0907
     18 O3'         1.9175    0.2377    2.7247 O.3       1 GTP        -0.5209
     19 C2'         0.4468   -0.3802    0.9263 C.3       1 GTP         0.0305
     20 O2'         1.3993   -1.3703    0.5961 O.3       1 GTP        -0.5978
     21 C1'        -0.6159   -0.9100    1.8769 C.3       1 GTP         0.2339
     22 N9         -1.7127   -1.6108    1.2130 N.pl3     1 GTP        -0.1765
     23 C8         -1.6311   -2.3341    0.0493 C.ar      1 GTP         0.4947
     24 N7         -2.7933   -2.8506   -0.3007 N.2       1 GTP        -0.5802
     25 C5         -3.6607   -2.4436    0.6786 C.ar      1 GTP         0.2279
     26 C6         -5.0651   -2.7506    0.7505 C.ar      1 GTP         0.6513
     27 O6         -5.6735   -3.4256   -0.0671 O.2       1 GTP        -0.5111
     28 N1         -5.6834   -2.1585    1.9182 N.pl3     1 GTP        -0.4713
     29 C2         -5.0007   -1.3738    2.8765 C.ar      1 GTP         0.5256
     30 N2         -5.6847   -0.8521    3.9640 N.pl3     1 GTP        -0.8665
     31 N3         -3.6227   -1.1271    2.7212 N.pl3     1 GTP        -0.5398
     32 C4         -3.0090   -1.6802    1.6149 C.ar      1 GTP        -0.0275
     33 HOG3       -4.2980    4.7787   -3.8401 H         1 GTP         0.4161
     34 H5'        -1.4800    1.9927    0.8146 H         1 GTP         0.0348
     35 H5''       -0.1367    3.1040    1.1872 H         1 GTP         0.0348
     36 H4'         0.0403    1.7078    3.4343 H         1 GTP         0.1215
     37 H3'         1.5907    1.4859    1.1353 H         1 GTP         0.0576
     38 HO3'        2.6839   -0.1150    2.2479 H         1 GTP         0.3842
     39 H2'        -0.0017    0.0018    0.0005 H         1 GTP         0.0252
     40 HO2'        2.0953   -0.9375    0.0709 H         1 GTP         0.4224
     41 H1'        -0.1998   -1.6319    2.6178 H         1 GTP         0.0745
     42 H8         -0.7029   -2.4474   -0.4941 H         1 GTP         0.1522
     43 HN1        -6.6800   -2.3183    2.0594 H         1 GTP         0.3518
     44 HN21       -5.1660   -0.3153    4.5987 H         1 GTP         0.4761
     45 HN22       -6.6415   -1.0545    4.0252 H         1 GTP         0.4761
     46 H46        -3.1256   -0.5638    3.4080 H         1 GTP         0.5030
@<TRIPOS>BOND
     1    1    2 2
     2    1    3 1
     3    1    4 1
     4    1    5 1
     5    4   33 1
     6    5    6 1
     7    6    7 2
     8    6    8 1
     9    6    9 1
    10    9   10 1
    11   10   11 2
    12   10   12 1
    13   10   13 1
    14   13   14 1
    15   14   15 1
    16   14   34 1
    17   14   35 1
    18   15   16 1
    19   15   17 1
    20   15   36 1
    21   16   21 1
    22   17   18 1
    23   17   19 1
    24   17   37 1
    25   18   38 1
    26   19   20 1
    27   19   21 1
    28   19   39 1
    29   20   40 1
    30   21   22 1
    31   21   41 1
    32   22   23 ar
    33   22   32 ar
    34   23   24 ar
    35   23   42 1
    36   24   25 ar
    37   25   26 ar
    38   25   32 ar
    39   26   27 2
    40   26   28 ar
    41   28   29 ar
    42   28   43 1
    43   29   30 1
    44   29   31 ar
    45   30   44 1
    46   30   45 1
    47   31   32 ar
    48   31   46 1
@<TRIPOS>SUBSTRUCTURE
     1 GTP         1 GROUP 0 A     ****
@<TRIPOS>MOLECULE
[[[5-(2-amino-6-oxo-1,3-dihydropurin-2-ylium-9-yl)-3,4-dihydroxy-tetrahydrofuran-2-yl]methoxy-oxido-phosphoryl]oxy-oxido-phosphoryl] hydrogen phosphate
   46    48     1     0     0
SMALL
USER_CHARGES

@<TRIPOS>ATOM
      1 PG         -1.8420    8.1038   -1.3219 P.3       1 GTP         1.5400
      2 O1G        -3.1170    8.7032   -0.7719 O.co2     1 GTP        -0.8909
      3 O2G        -0.4963    8.7215   -1.0130 O.co2     1 GTP        -0.8909
      4 O3G        -1.9899    7.9671   -2.9422 O.3       1 GTP        -0.7980
      5 O3B        -1.7949    6.5168   -0.9439 O.3       1 GTP        -0.7612
      6 PB         -2.9005    5.3451   -1.2092 P.3       1 GTP         1.5847
      7 O1B        -4.1359    5.6502   -0.3918 O.co2     1 GTP        -0.8859
      8 O2B        -2.9816    5.0706   -2.6944 O.co2     1 GTP        -0.8859
      9 O3A        -2.1069    4.0814   -0.5472 O.3       1 GTP        -0.7486
     10 PA         -2.5569    2.5166   -0.4115 P.3       1 GTP         1.5001
     11 O1A        -3.7696    2.4355    0.4902 O.co2     1 GTP        -0.8487
     12 O2A        -2.5642    1.8933   -1.7903 O.co2     1 GTP        -0.8487
     13 O5'        -1.2434    1.9104    0.3515 O.3       1 GTP        -0.5474
     14 C5'        -0.8811    2.4285    1.6206 C.3       1 GTP         0.2547
     15 C4'        -0.1994    1.3333    2.4288 C.3       1 GTP         0.0926
     16 O4'        -1.1285    0.2356    2.5840 O.3       1 GTP        -0.3593
     17 C3'         1.0324    0.7610    1.7344 C.3       1 GTP         0.0907
     18 O3'         1.9175    0.2377    2.7247 O.3       1 GTP        -0.5209
     19 C2'         0.4468   -0.3802    0.9263 C.3       1 GTP         0.0305
     20 O2'         1.3993   -1.3703    0.5961 O.3       1 GTP        -0.5978
     21 C1'        -0.6159   -0.9100    1.8769 C.3       1 GTP         0.2339
     22 N9         -1.7127   -1.6108    1.2130 N.pl3     1 GTP        -0.1765
     23 C8         -2.8692   -1.0463    0.7355 C.ar      1 GTP         0.4947
     24 N7         -3.6707   -1.9381    0.1856 N.2       1 GTP        -0.5802
     25 C5         -3.0027   -3.1275    0.3134 C.ar      1 GTP         0.2279
     26 C6         -3.4659   -4.4142   -0.1355 C.ar      1 GTP         0.6513
     27 O6         -4.5328   -4.6133   -0.6980 O.2       1 GTP        -0.5111
     28 N1         -2.5102   -5.4606    0.1612 N.pl3     1 GTP        -0.4713
     29 C2         -1.2711   -5.2547    0.8113 C.ar      1 GTP         0.5256
     30 N2         -0.4228   -6.3256    1.0482 N.pl3     1 GTP        -0.8665
     31 N3         -0.9033   -3.9563    1.2146 N.pl3     1 GTP        -0.5398
     32 C4         -1.7979   -2.9400    0.9438 C.ar      1 GTP        -0.0275
     33 HOG3       -1.2390    7.5916   -3.4496 H         1 GTP         0.4161
     34 H5'        -0.2033    3.2760    1.4769 H         1 GTP         0.0348
     35 H5''       -1.7841    2.7762    2.1323 H         1 GTP         0.0348
     36 H4'         0.0403    1.7078    3.4343 H         1 GTP         0.1215
     37 H3'         1.5907    1.4859    1.1353 H         1 GTP         0.0576
     38 HO3'        2.6839   -0.1150    2.2479 H         1 GTP         0.3842
     39 H2'        -0.0017    0.0018    0.0005 H         1 GTP         0.0252
     40 HO2'        2.0953   -0.9375    0.0709 H         1 GTP         0.4224
     41 H1'        -0.1998   -1.6319    2.6178 H         1 GTP         0.0745
     42 H8         -3.0691    0.0134    0.8177 H         1 GTP         0.1522
     43 HN1        -2.7468   -6.4119   -0.1177 H         1 GTP         0.3518
     44 HN21        0.4233   -6.1297    1.5018 H         1 GTP         0.4761
     45 HN22       -0.7261   -7.2071    0.7466 H         1 GTP         0.4761
     46 H46        -0.0124   -3.8015    1.6821 H         1 GTP         0.5030
@<TRIPOS>BOND
     1    1    2 2
     2    1    3 1
     3    1    4 1
     4    1    5 1
     5    4   33 1
     6    5    6 1
     7    6    7 2
     8    6    8 1
     9    6    9 1
    10    9   10 1
    11   10   11 2
    12   10   12 1
    13   10   13 1
    14   13   14 1
    15   14   15 1
    16   14   34 1
    17   14   35 1
    18   15   16 1
    19   15   17 1
    20   15   36 1
    21   16   21 1
    22   17   18 1
    23   17   19 1
    24   17   37 1
    25   18   38 1
    26   19   20 1
    27   19   21 1
    28   19   39 1
    29   20   40 1
    30   21   22 1
    31   21   41 1
    32   22   23 ar
    33   22   32 ar
    34   23   24 ar
    35   23   42 1
    36   24   25 ar
    37   25   26 ar
    38   25   32 ar
    39   26   27 2
    40   26   28 ar
    41   28   29 ar
    42   28   43 1
    43   29   30 1
    44   29   31 ar
    45   30   44 1
    46   30   45 1
    47   31   32 ar
    48   31   46 1
@<TRIPOS>SUBSTRUCTURE
     1 GTP         1 GROUP 0 A     ****
@<TRIPOS>MOLECULE
[[[5-(2-amino-6-oxo-1,3-dihydropurin-2-ylium-9-yl)-3,4-dihydroxy-tetrahydrofuran-2-yl]methoxy-oxido-phosphoryl]oxy-oxido-phosphoryl] hydrogen phosphate
   46    48     1     0     0
SMALL
USER_CHARGES

@<TRIPOS>ATOM
      1 PG          3.7593   -3.5796    1.0430 P.3       1 GTP         1.5400
      2 O1G         2.8275   -2.4308    0.7274 O.co2     1 GTP        -0.8909
      3 O2G         3.9126   -4.7413    0.0867 O.co2     1 GTP        -0.8909
      4 O3G         3.3760   -4.1684    2.5169 O.3       1 GTP        -0.7980
      5 O3B         5.2379   -2.9835    1.3925 O.3       1 GTP        -0.7612
      6 PB          6.3096   -2.2141    0.4307 P.3       1 GTP         1.5847
      7 O1B         7.4711   -1.7442    1.2778 O.co2     1 GTP        -0.8859
      8 O2B         6.5240   -3.0329   -0.8227 O.co2     1 GTP        -0.8859
      9 O3A         5.3978   -0.9318   -0.0040 O.3       1 GTP        -0.7486
     10 PA          5.7602    0.3298   -0.9771 P.3       1 GTP         1.5001
     11 O1A         6.8732    1.1324   -0.3389 O.co2     1 GTP        -0.8487
     12 O2A         5.8749   -0.1731   -2.3997 O.co2     1 GTP        -0.8487
     13 O5'         4.3516    1.1575   -0.9026 O.3       1 GTP        -0.5474
     14 C5'         4.0922    1.9801    0.2227 C.3       1 GTP         0.2547
     15 C4'         2.5944    2.0310    0.4653 C.3       1 GTP         0.0926
     16 O4'         1.9327    2.5740   -0.6889 O.3       1 GTP        -0.3593
     17 C3'         1.9685    0.6634    0.6767 C.3       1 GTP         0.0907
     18 O3'         2.1425    0.1975    1.9977 O.3       1 GTP        -0.5209
     19 C2'         0.5176    0.9128    0.3099 C.3       1 GTP         0.0305
     20 O2'        -0.2103    1.4454    1.4152 O.3       1 GTP        -0.5978
     21 C1'         0.6219    1.9765   -0.7844 C.3       1 GTP         0.2339
     22 N9          0.4237    1.4496   -2.1357 N.pl3     1 GTP        -0.1765
     23 C8          1.3988    0.9691   -2.9736 C.ar      1 GTP         0.4947
     24 N7          0.9092    0.5634   -4.1293 N.2       1 GTP        -0.5802
     25 C5         -0.4383    0.7914   -4.0325 C.ar      1 GTP         0.2279
     26 C6         -1.4217    0.5138   -5.0461 C.ar      1 GTP         0.6513
     27 O6         -1.1759    0.0306   -6.1417 O.2       1 GTP        -0.5111
     28 N1         -2.7543    0.8794   -4.6134 N.pl3     1 GTP        -0.4713
     29 C2         -3.0626    1.4402   -3.3523 C.ar      1 GTP         0.5256
     30 N2         -4.3747    1.7544   -3.0321 N.pl3     1 GTP        -0.8665
     31 N3         -2.0304    1.6759   -2.4233 N.pl3     1 GTP        -0.5398
     32 C4         -0.7497    1.3366   -2.8118 C.ar      1 GTP        -0.0275
     33 HOG3        3.8948   -4.9236    2.8673 H         1 GTP         0.4161
     34 H5'         4.6069    1.5618    1.0936 H         1 GTP         0.0348
     35 H5''        4.4824    2.9837    0.0254 H         1 GTP         0.0348
     36 H4'         2.3752    2.7029    1.3156 H         1 GTP         0.1215
     37 H3'         2.4336   -0.1217   -0.0015 H         1 GTP         0.0576
     38 HO3'        1.7160   -0.6716    2.0397 H         1 GTP         0.3842
     39 H2'         0.0316    0.0155   -0.0339 H         1 GTP         0.0252
     40 HO2'       -0.1608    0.7921    2.1351 H         1 GTP         0.4224
     41 H1'        -0.1474    2.7798   -0.6651 H         1 GTP         0.0745
     42 H8          2.4413    0.9409   -2.6872 H         1 GTP         0.1522
     43 HN1        -3.5236    0.7214   -5.2629 H         1 GTP         0.3518
     44 HN21       -4.5350    2.1409   -2.1461 H         1 GTP         0.4761
     45 HN22       -5.0542    1.5695   -3.7134 H         1 GTP         0.4761
     46 H46        -2.2462    2.0786   -1.5136 H         1 GTP         0.5030
@<TRIPOS>BOND
     1    1    2 2
     2    1    3 1
     3    1    4 1
     4    1    5 1
     5    4   33 1
     6    5    6 1
     7    6    7 2
     8    6    8 1
     9    6    9 1
    10    9   10 1
    11   10   11 2
    12   10   12 1
    13   10   13 1
    14   13   14 1
    15   14   15 1
    16   14   34 1
    17   14   35 1
    18   15   16 1
    19   15   17 1
    20   15   36 1
    21   16   21 1
    22   17   18 1
    23   17   19 1
    24   17   37 1
    25   18   38 1
    26   19   20 1
    27   19   21 1
    28   19   39 1
    29   20   40 1
    30   21   22 1
    31   21   41 1
    32   22   23 ar
    33   22   32 ar
    34   23   24 ar
    35   23   42 1
    36   24   25 ar
    37   25   26 ar
    38   25   32 ar
    39   26   27 2
    40   26   28 ar
    41   28   29 ar
    42   28   43 1
    43   29   30 1
    44   29   31 ar
    45   30   44 1
    46   30   45 1
    47   31   32 ar
    48   31   46 1
@<TRIPOS>SUBSTRUCTURE
     1 GTP         1 GROUP 0 A     ****
@<TRIPOS>MOLECULE
[[[5-(2-amino-6-oxo-1,3-dihydropurin-2-ylium-9-yl)-3,4-dihydroxy-tetrahydrofuran-2-yl]methoxy-oxido-phosphoryl]oxy-oxido-phosphoryl] hydrogen phosphate
   46    48     1     0     0
SMALL
USER_CHARGES

@<TRIPOS>ATOM
      1 PG          3.0490    6.9879    5.5885 P.3       1 GTP         1.5400
      2 O1G         2.0497    7.7920    6.3898 O.co2     1 GTP        -0.8909
      3 O2G         4.2314    6.3259    6.2603 O.co2     1 GTP        -0.8909
      4 O3G         3.6014    7.9178    4.3654 O.3       1 GTP        -0.7980
      5 O3B         2.2481    5.8717    4.7073 O.3       1 GTP        -0.7612
      6 PB          1.3998    4.5651    5.1961 P.3       1 GTP         1.5847
      7 O1B         2.3518    3.5823    5.8406 O.co2     1 GTP        -0.8859
      8 O2B         0.1433    5.0277    5.8993 O.co2     1 GTP        -0.8859
      9 O3A         0.9326    3.9962    3.7391 O.3       1 GTP        -0.7486
     10 PA          0.0330    4.7083    2.5757 P.3       1 GTP         1.5001
     11 O1A        -1.3626    4.9400    3.1133 O.co2     1 GTP        -0.8487
     12 O2A         0.8346    5.8384    1.9673 O.co2     1 GTP        -0.8487
     13 O5'         0.0178    3.5131    1.4595 O.3       1 GTP        -0.5474
     14 C5'        -0.8811    2.4285    1.6206 C.3       1 GTP         0.2547
     15 C4'        -0.1994    1.3333    2.4288 C.3       1 GTP         0.0926
     16 O4'        -1.1285    0.2356    2.5840 O.3       1 GTP        -0.3593
     17 C3'         1.0324    0.7610    1.7344 C.3       1 GTP         0.0907
     18 O3'         1.9175    0.2377    2.7247 O.3       1 GTP        -0.5209
     19 C2'         0.4468   -0.3802    0.9263 C.3       1 GTP         0.0305
     20 O2'         1.3993   -1.3703    0.5961 O.3       1 GTP        -0.5978
     21 C1'        -0.6159   -0.9100    1.8769 C.3       1 GTP         0.2339
     22 N9         -1.7127   -1.6108    1.2130 N.pl3     1 GTP        -0.1765
     23 C8         -2.5534   -1.0907    0.2607 C.ar      1 GTP         0.4947
     24 N7         -3.4469   -1.9695   -0.1508 N.2       1 GTP        -0.5802
     25 C5         -3.1705   -3.1041    0.5657 C.ar      1 GTP         0.2279
     26 C6         -3.8738   -4.3568    0.4777 C.ar      1 GTP         0.6513
     27 O6         -4.8240   -4.5720   -0.2607 O.2       1 GTP        -0.5111
     28 N1         -3.3198   -5.3462    1.3780 N.pl3     1 GTP        -0.4713
     29 C2         -2.2226   -5.1203    2.2413 C.ar      1 GTP         0.5256
     30 N2         -1.7649   -6.1367    3.0659 N.pl3     1 GTP        -0.8665
     31 N3         -1.5969   -3.8585    2.2574 N.pl3     1 GTP        -0.5398
     32 C4         -2.1068   -2.8965    1.4082 C.ar      1 GTP        -0.0275
     33 HOG3        4.2628    7.5354    3.7501 H         1 GTP         0.4161
     34 H5'        -1.7771    2.7849    2.1387 H         1 GTP         0.0348
     35 H5''       -1.1654    2.0541    0.6320 H         1 GTP         0.0348
     36 H4'         0.0403    1.7078    3.4343 H         1 GTP         0.1215
     37 H3'         1.5907    1.4859    1.1353 H         1 GTP         0.0576
     38 HO3'        2.6839   -0.1150    2.2479 H         1 GTP         0.3842
     39 H2'        -0.0017    0.0018    0.0005 H         1 GTP         0.0252
     40 HO2'        2.0953   -0.9375    0.0709 H         1 GTP         0.4224
     41 H1'        -0.1998   -1.6319    2.6178 H         1 GTP         0.0745
     42 H8         -2.4657   -0.0713   -0.0897 H         1 GTP         0.1522
     43 HN1        -3.7505   -6.2699    1.3904 H         1 GTP         0.3518
     44 HN21       -1.0023   -5.9289    3.6451 H         1 GTP         0.4761
     45 HN22       -2.2347   -6.9951    3.0150 H         1 GTP         0.4761
     46 H46        -0.8062   -3.6900    2.8760 H         1 GTP         0.5030
@<TRIPOS>BOND
     1    1    2 2
     2    1    3 1
     3    1    4 1
     4    1    5 1
     5    4   33 1
     6    5    6 1
     7    6    7 2
     8    6    8 1
     9    6    9 1
    10    9   10 1
    11   10   11 2
    12   10   12 1
    13   10   13 1
    14   13   14 1
    15   14   15 1
    16   14   34 1
    17   14   35 1
    18   15   16 1
    19   15   17 1
    20   15   36 1
    21   16   21 1
    22   17   18 1
    23   17   19 1
    24   17   37 1
    25   18   38 1
    26   19   20 1
    27   19   21 1
    28   19   39 1
    29   20   40 1
    30   21   22 1
    31   21   41 1
    32   22   23 ar
    33   22   32 ar
    34   23   24 ar
    35   23   42 1
    36   24   25 ar
    37   25   26 ar
    38   25   32 ar
    39   26   27 2
    40   26   28 ar
    41   28   29 ar
    42   28   43 1
    43   29   30 1
    44   29   31 ar
    45   30   44 1
    46   30   45 1
    47   31   32 ar
    48   31   46 1
@<TRIPOS>SUBSTRUCTURE
     1 GTP         1 GROUP 0 A     ****
@<TRIPOS>MOLECULE
[[[5-(2-amino-6-oxo-1,3-dihydropurin-2-ylium-9-yl)-3,4-dihydroxy-tetrahydrofuran-2-yl]methoxy-oxido-phosphoryl]oxy-oxido-phosphoryl] hydrogen phosphate
   46    48     1     0     0
SMALL
USER_CHARGES

@<TRIPOS>ATOM
      1 PG          7.7023    0.5840   -4.9551 P.3       1 GTP         1.5400
      2 O1G         6.7032   -0.3648   -5.5789 O.co2     1 GTP        -0.8909
      3 O2G         8.4140    1.6237   -5.7918 O.co2     1 GTP        -0.8909
      4 O3G         8.8230   -0.2945   -4.1563 O.3       1 GTP        -0.7980
      5 O3B         7.0077    1.3203   -3.6748 O.3       1 GTP        -0.7612
      6 PB          7.6631    2.3143   -2.5576 P.3       1 GTP         1.5847
      7 O1B         8.6699    1.5322   -1.7438 O.co2     1 GTP        -0.8859
      8 O2B         8.0257    3.6263   -3.2167 O.co2     1 GTP        -0.8859
      9 O3A         6.3356    2.6020   -1.6521 O.3       1 GTP        -0.7486
     10 PA          6.1593    3.5241   -0.3148 P.3       1 GTP         1.5001
     11 O1A         6.9890    2.9266    0.8010 O.co2     1 GTP        -0.8487
     12 O2A         6.3061    4.9783   -0.7063 O.co2     1 GTP        -0.8487
     13 O5'         4.5670    3.2937   -0.0211 O.3       1 GTP        -0.5474
     14 C5'         4.0922    1.9801    0.2227 C.3       1 GTP         0.2547
     15 C4'         2.5944    2.0310    0.4653 C.3       1 GTP         0.0926
     16 O4'         1.9327    2.5740   -0.6889 O.3       1 GTP        -0.3593
     17 C3'         1.9685    0.6634    0.6767 C.3       1 GTP         0.0907
     18 O3'         2.1425    0.1975    1.9977 O.3       1 GTP        -0.5209
     19 C2'         0.5176    0.9128    0.3099 C.3       1 GTP         0.0305
     20 O2'        -0.2103    1.4454    1.4152 O.3       1 GTP        -0.5978
     21 C1'         0.6219    1.9765   -0.7844 C.3       1 GTP         0.2339
     22 N9          0.4237    1.4496   -2.1357 N.pl3     1 GTP        -0.1765
     23 C8          1.1824    0.4874   -2.7540 C.ar      1 GTP         0.4947
     24 N7          0.7559    0.2220   -3.9737 N.2       1 GTP        -0.5802
     25 C5         -0.3234    1.0475   -4.1492 C.ar      1 GTP         0.2279
     26 C6         -1.1420    1.1360   -5.3297 C.ar      1 GTP         0.6513
     27 O6         -0.9760    0.4743   -6.3440 O.2       1 GTP        -0.5111
     28 N1         -2.1989    2.1138   -5.1762 N.pl3     1 GTP        -0.4713
     29 C2         -2.4100    2.8911   -4.0137 C.ar      1 GTP         0.5256
     30 N2         -3.4547    3.8016   -3.9653 N.pl3     1 GTP        -0.8665
     31 N3         -1.5548    2.7339   -2.9056 N.pl3     1 GTP        -0.5398
     32 C4         -0.5379    1.8078   -3.0266 C.ar      1 GTP        -0.0275
     33 HOG3        9.5462    0.1805   -3.6941 H         1 GTP         0.4161
     34 H5'         4.3179    1.3548   -0.6470 H         1 GTP         0.0348
     35 H5''        4.6083    1.5737    1.0983 H         1 GTP         0.0348
     36 H4'         2.3752    2.7029    1.3156 H         1 GTP         0.1215
     37 H3'         2.4336   -0.1217   -0.0015 H         1 GTP         0.0576
     38 HO3'        1.7160   -0.6716    2.0397 H         1 GTP         0.3842
     39 H2'         0.0316    0.0155   -0.0339 H         1 GTP         0.0252
     40 HO2'       -0.1608    0.7921    2.1351 H         1 GTP         0.4224
     41 H1'        -0.1474    2.7798   -0.6651 H         1 GTP         0.0745
     42 H8          2.0279    0.0203   -2.2675 H         1 GTP         0.1522
     43 HN1        -2.8350    2.2514   -5.9606 H         1 GTP         0.3518
     44 HN21       -3.5576    4.3154   -3.1374 H         1 GTP         0.4761
     45 HN22       -4.0202    3.8709   -4.7625 H         1 GTP         0.4761
     46 H46        -1.7022    3.2899   -2.0658 H         1 GTP         0.5030
@<TRIPOS>BOND
     1    1    2 2
     2    1    3 1
     3    1    4 1
     4    1    5 1
     5    4   33 1
     6    5    6 1
     7    6    7 2
     8    6    8 1
     9    6    9 1
    10    9   10 1
    11   10   11 2
    12   10   12 1
    13   10   13 1
    14   13   14 1
    15   14   15 1
    16   14   34 1
    17   14   35 1
    18   15   16 1
    19   15   17 1
    20   15   36 1
    21   16   21 1
    22   17   18 1
    23   17   19 1
    24   17   37 1
    25   18   38 1
    26   19   20 1
    27   19   21 1
    28   19   39 1
    29   20   40 1
    30   21   22 1
    31   21   41 1
    32   22   23 ar
    33   22   32 ar
    34   23   24 ar
    35   23   42 1
    36   24   25 ar
    37   25   26 ar
    38   25   32 ar
    39   26   27 2
    40   26   28 ar
    41   28   29 ar
    42   28   43 1
    43   29   30 1
    44   29   31 ar
    45   30   44 1
    46   30   45 1
    47   31   32 ar
    48   31   46 1
@<TRIPOS>SUBSTRUCTURE
     1 GTP         1 GROUP 0 A     ****
@<TRIPOS>MOLECULE
[[[5-(2-amino-6-oxo-1,3-dihydropurin-2-ylium-9-yl)-3,4-dihydroxy-tetrahydrofuran-2-yl]methoxy-oxido-phosphoryl]oxy-oxido-phosphoryl] hydrogen phosphate
   46    48     1     0     0
SMALL
USER_CHARGES

@<TRIPOS>ATOM
      1 PG          1.0763    7.6703    4.6537 P.3       1 GTP         1.5400
      2 O1G         1.9153    6.9373    5.6766 O.co2     1 GTP        -0.8909
      3 O2G         1.7105    8.6308    3.6725 O.co2     1 GTP        -0.8909
      4 O3G        -0.1303    8.4467    5.4330 O.3       1 GTP        -0.7980
      5 O3B         0.1787    6.5860    3.8276 O.3       1 GTP        -0.7612
      6 PB         -1.0016    6.8281    2.7259 P.3       1 GTP         1.5847
      7 O1B        -2.1750    7.4928    3.4106 O.co2     1 GTP        -0.8859
      8 O2B        -0.3909    7.4016    1.4667 O.co2     1 GTP        -0.8859
      9 O3A        -1.3731    5.2735    2.3942 O.3       1 GTP        -0.7486
     10 PA         -1.9156    4.0918    3.3837 P.3       1 GTP         1.5001
     11 O1A        -0.8453    3.7865    4.4092 O.co2     1 GTP        -0.8487
     12 O2A        -3.3304    4.4243    3.8049 O.co2     1 GTP        -0.8487
     13 O5'        -2.0401    2.8620    2.3128 O.3       1 GTP        -0.5474
     14 C5'        -0.8811    2.4285    1.6206 C.3       1 GTP         0.2547
     15 C4'        -0.1994    1.3333    2.4288 C.3       1 GTP         0.0926
     16 O4'        -1.1285    0.2356    2.5840 O.3       1 GTP        -0.3593
     17 C3'         1.0324    0.7610    1.7344 C.3       1 GTP         0.0907
     18 O3'         1.9175    0.2377    2.7247 O.3       1 GTP        -0.5209
     19 C2'         0.4468   -0.3802    0.9263 C.3       1 GTP         0.0305
     20 O2'         1.3993   -1.3703    0.5961 O.3       1 GTP        -0.5978
     21 C1'        -0.6159   -0.9100    1.8769 C.3       1 GTP         0.2339
     22 N9         -1.7127   -1.6108    1.2130 N.pl3     1 GTP        -0.1765
     23 C8         -1.7789   -2.9564    0.9503 C.ar      1 GTP         0.4947
     24 N7         -2.8980   -3.2916    0.3377 N.2       1 GTP        -0.5802
     25 C5         -3.5824   -2.1127    0.2000 C.ar      1 GTP         0.2279
     26 C6         -4.8740   -1.9471   -0.4133 C.ar      1 GTP         0.6513
     27 O6         -5.5366   -2.8529   -0.8978 O.2       1 GTP        -0.5111
     28 N1         -5.3036   -0.5645   -0.3916 N.pl3     1 GTP        -0.4713
     29 C2         -4.5545    0.4997    0.1619 C.ar      1 GTP         0.5256
     30 N2         -5.0561    1.7921    0.1348 N.pl3     1 GTP        -0.8665
     31 N3         -3.2977    0.2393    0.7420 N.pl3     1 GTP        -0.5398
     32 C4         -2.8643   -1.0716    0.7336 C.ar      1 GTP        -0.0275
     33 HOG3       -0.7665    8.9722    4.9025 H         1 GTP         0.4161
     34 H5'        -1.1767    2.0502    0.6368 H         1 GTP         0.0348
     35 H5''       -0.2080    3.2814    1.4876 H         1 GTP         0.0348
     36 H4'         0.0403    1.7078    3.4343 H         1 GTP         0.1215
     37 H3'         1.5907    1.4859    1.1353 H         1 GTP         0.0576
     38 HO3'        2.6839   -0.1150    2.2479 H         1 GTP         0.3842
     39 H2'        -0.0017    0.0018    0.0005 H         1 GTP         0.0252
     40 HO2'        2.0953   -0.9375    0.0709 H         1 GTP         0.4224
     41 H1'        -0.1998   -1.6319    2.6178 H         1 GTP         0.0745
     42 H8         -0.9852   -3.6367    1.2276 H         1 GTP         0.1522
     43 HN1        -6.2089   -0.3428   -0.8039 H         1 GTP         0.3518
     44 HN21       -5.9354    1.9184   -0.2788 H         1 GTP         0.4761
     45 HN22       -4.4982    2.4931    0.5316 H         1 GTP         0.4761
     46 H46        -2.7541    1.0010    1.1428 H         1 GTP         0.5030
@<TRIPOS>BOND
     1    1    2 2
     2    1    3 1
     3    1    4 1
     4    1    5 1
     5    4   33 1
     6    5    6 1
     7    6    7 2
     8    6    8 1
     9    6    9 1
    10    9   10 1
    11   10   11 2
    12   10   12 1
    13   10   13 1
    14   13   14 1
    15   14   15 1
    16   14   34 1
    17   14   35 1
    18   15   16 1
    19   15   17 1
    20   15   36 1
    21   16   21 1
    22   17   18 1
    23   17   19 1
    24   17   37 1
    25   18   38 1
    26   19   20 1
    27   19   21 1
    28   19   39 1
    29   20   40 1
    30   21   22 1
    31   21   41 1
    32   22   23 ar
    33   22   32 ar
    34   23   24 ar
    35   23   42 1
    36   24   25 ar
    37   25   26 ar
    38   25   32 ar
    39   26   27 2
    40   26   28 ar
    41   28   29 ar
    42   28   43 1
    43   29   30 1
    44   29   31 ar
    45   30   44 1
    46   30   45 1
    47   31   32 ar
    48   31   46 1
@<TRIPOS>SUBSTRUCTURE
     1 GTP         1 GROUP 0 A     ****
@<TRIPOS>MOLECULE
[[[5-(2-amino-6-oxo-1,3-dihydropurin-2-ylium-9-yl)-3,4-dihydroxy-tetrahydrofuran-2-yl]methoxy-oxido-phosphoryl]oxy-oxido-phosphoryl] hydrogen phosphate
   46    48     1     0     0
SMALL
USER_CHARGES

@<TRIPOS>ATOM
      1 PG         -0.2410    9.3880    3.3907 P.3       1 GTP         1.5400
      2 O1G        -1.3854   10.0898    2.6941 O.co2     1 GTP        -0.8909
      3 O2G         0.0232    9.6060    4.8640 O.co2     1 GTP        -0.8909
      4 O3G         1.1346    9.6950    2.5664 O.3       1 GTP        -0.7980
      5 O3B        -0.3476    7.7848    3.1041 O.3       1 GTP        -0.7612
      6 PB         -1.4719    6.7071    3.5943 P.3       1 GTP         1.5847
      7 O1B        -1.3964    6.5786    5.0994 O.co2     1 GTP        -0.8859
      8 O2B        -2.7773    7.0009    2.8893 O.co2     1 GTP        -0.8859
      9 O3A        -0.8637    5.3603    2.9008 O.3       1 GTP        -0.7486
     10 PA         -0.5790    5.0299    1.3261 P.3       1 GTP         1.5001
     11 O1A        -1.8994    5.0096    0.5869 O.co2     1 GTP        -0.8487
     12 O2A         0.5706    5.8913    0.8506 O.co2     1 GTP        -0.8487
     13 O5'         0.0178    3.5131    1.4595 O.3       1 GTP        -0.5474
     14 C5'        -0.8811    2.4285    1.6206 C.3       1 GTP         0.2547
     15 C4'        -0.1994    1.3333    2.4288 C.3       1 GTP         0.0926
     16 O4'        -1.1285    0.2356    2.5840 O.3       1 GTP        -0.3593
     17 C3'         1.0324    0.7610    1.7344 C.3       1 GTP         0.0907
     18 O3'         1.9175    0.2377    2.7247 O.3       1 GTP        -0.5209
     19 C2'         0.4468   -0.3802    0.9263 C.3       1 GTP         0.0305
     20 O2'         1.3993   -1.3703    0.5961 O.3       1 GTP        -0.5978
     21 C1'        -0.6159   -0.9100    1.8769 C.3       1 GTP         0.2339
     22 N9         -1.7127   -1.6108    1.2130 N.pl3     1 GTP        -0.1765
     23 C8         -3.0389   -1.2578    1.2391 C.ar      1 GTP         0.4947
     24 N7         -3.7909   -2.0880    0.5425 N.2       1 GTP        -0.5802
     25 C5         -2.9127   -3.0150    0.0458 C.ar      1 GTP         0.2279
     26 C6         -3.2467   -4.1411   -0.7860 C.ar      1 GTP         0.6513
     27 O6         -4.3761   -4.4189   -1.1621 O.2       1 GTP        -0.5111
     28 N1         -2.0748   -4.9191   -1.1296 N.pl3     1 GTP        -0.4713
     29 C2         -0.7595   -4.6181   -0.7058 C.ar      1 GTP         0.5256
     30 N2          0.2985   -5.4268   -1.0920 N.pl3     1 GTP        -0.8665
     31 N3         -0.5304   -3.4919    0.1084 N.pl3     1 GTP        -0.5398
     32 C4         -1.6318   -2.7332    0.4512 C.ar      1 GTP        -0.0275
     33 HOG3        1.9729    9.3063    2.8957 H         1 GTP         0.4161
     34 H5'        -1.7771    2.7849    2.1387 H         1 GTP         0.0348
     35 H5''       -1.1654    2.0541    0.6320 H         1 GTP         0.0348
     36 H4'         0.0403    1.7078    3.4343 H         1 GTP         0.1215
     37 H3'         1.5907    1.4859    1.1353 H         1 GTP         0.0576
     38 HO3'        2.1521    0.9800    3.3017 H         1 GTP         0.3842
     39 H2'        -0.0017    0.0018    0.0005 H         1 GTP         0.0252
     40 HO2'        1.7495   -1.7243    1.4324 H         1 GTP         0.4224
     41 H1'        -0.1998   -1.6319    2.6178 H         1 GTP         0.0745
     42 H8         -3.3933   -0.3909    1.7800 H         1 GTP         0.1522
     43 HN1        -2.2071   -5.7408   -1.7178 H         1 GTP         0.3518
     44 HN21        0.0848   -6.1964   -1.6597 H         1 GTP         0.4761
     45 HN22        1.1896   -5.1747   -0.7719 H         1 GTP         0.4761
     46 H46         0.4142   -3.2695    0.4160 H         1 GTP         0.5030
@<TRIPOS>BOND
     1    1    2 2
     2    1    3 1
     3    1    4 1
     4    1    5 1
     5    4   33 1
     6    5    6 1
     7    6    7 2
     8    6    8 1
     9    6    9 1
    10    9   10 1
    11   10   11 2
    12   10   12 1
    13   10   13 1
    14   13   14 1
    15   14   15 1
    16   14   34 1
    17   14   35 1
    18   15   16 1
    19   15   17 1
    20   15   36 1
    21   16   21 1
    22   17   18 1
    23   17   19 1
    24   17   37 1
    25   18   38 1
    26   19   20 1
    27   19   21 1
    28   19   39 1
    29   20   40 1
    30   21   22 1
    31   21   41 1
    32   22   23 ar
    33   22   32 ar
    34   23   24 ar
    35   23   42 1
    36   24   25 ar
    37   25   26 ar
    38   25   32 ar
    39   26   27 2
    40   26   28 ar
    41   28   29 ar
    42   28   43 1
    43   29   30 1
    44   29   31 ar
    45   30   44 1
    46   30   45 1
    47   31   32 ar
    48   31   46 1
@<TRIPOS>SUBSTRUCTURE
     1 GTP         1 GROUP 0 A     ****
@<TRIPOS>MOLECULE
[[[5-(2-amino-6-oxo-1,3-dihydropurin-2-ylium-9-yl)-3,4-dihydroxy-tetrahydrofuran-2-yl]methoxy-oxido-phosphoryl]oxy-oxido-phosphoryl] hydrogen phosphate
   46    48     1     0     0
SMALL
USER_CHARGES

@<TRIPOS>ATOM
      1 PG         -4.1788    5.5291   -2.9948 P.3       1 GTP         1.5400
      2 O1G        -4.0526    4.7308   -4.2731 O.co2     1 GTP        -0.8909
      3 O2G        -5.5010    5.6269   -2.2668 O.co2     1 GTP        -0.8909
      4 O3G        -3.6257    7.0404   -3.2704 O.3       1 GTP        -0.7980
      5 O3B        -3.0318    5.0346   -1.9443 O.3       1 GTP        -0.7612
      6 PB         -1.4165    4.9058   -2.1436 P.3       1 GTP         1.5847
      7 O1B        -1.1390    3.8334   -3.1734 O.co2     1 GTP        -0.8859
      8 O2B        -0.8222    6.2914   -2.2635 O.co2     1 GTP        -0.8859
      9 O3A        -1.0127    4.3553   -0.6607 O.3       1 GTP        -0.7486
     10 PA          0.4528    3.9705   -0.0493 P.3       1 GTP         1.5001
     11 O1A         1.0046    2.7881   -0.8159 O.co2     1 GTP        -0.8487
     12 O2A         1.2580    5.2411    0.1148 O.co2     1 GTP        -0.8487
     13 O5'         0.0178    3.5131    1.4595 O.3       1 GTP        -0.5474
     14 C5'        -0.8811    2.4285    1.6206 C.3       1 GTP         0.2547
     15 C4'        -0.1994    1.3333    2.4288 C.3       1 GTP         0.0926
     16 O4'        -1.1285    0.2356    2.5840 O.3       1 GTP        -0.3593
     17 C3'         1.0324    0.7610    1.7344 C.3       1 GTP         0.0907
     18 O3'         1.9175    0.2377    2.7247 O.3       1 GTP        -0.5209
     19 C2'         0.4468   -0.3802    0.9263 C.3       1 GTP         0.0305
     20 O2'         1.3993   -1.3703    0.5961 O.3       1 GTP        -0.5978
     21 C1'        -0.6159   -0.9100    1.8769 C.3       1 GTP         0.2339
     22 N9         -1.7127   -1.6108    1.2130 N.pl3     1 GTP        -0.1765
     23 C8         -2.5534   -1.0907    0.2607 C.ar      1 GTP         0.4947
     24 N7         -3.4469   -1.9695   -0.1508 N.2       1 GTP        -0.5802
     25 C5         -3.1705   -3.1041    0.5657 C.ar      1 GTP         0.2279
     26 C6         -3.8738   -4.3568    0.4777 C.ar      1 GTP         0.6513
     27 O6         -4.8240   -4.5720   -0.2607 O.2       1 GTP        -0.5111
     28 N1         -3.3198   -5.3462    1.3780 N.pl3     1 GTP        -0.4713
     29 C2         -2.2226   -5.1203    2.2413 C.ar      1 GTP         0.5256
     30 N2         -1.7649   -6.1367    3.0659 N.pl3     1 GTP        -0.8665
     31 N3         -1.5969   -3.8585    2.2574 N.pl3     1 GTP        -0.5398
     32 C4         -2.1068   -2.8965    1.4082 C.ar      1 GTP        -0.0275
     33 HOG3       -3.6414    7.6854   -2.5314 H         1 GTP         0.4161
     34 H5'        -1.7771    2.7849    2.1387 H         1 GTP         0.0348
     35 H5''       -1.1654    2.0541    0.6320 H         1 GTP         0.0348
     36 H4'         0.0403    1.7078    3.4343 H         1 GTP         0.1215
     37 H3'         1.5907    1.4859    1.1353 H         1 GTP         0.0576
     38 HO3'        2.1521    0.9800    3.3017 H         1 GTP         0.3842
     39 H2'        -0.0017    0.0018    0.0005 H         1 GTP         0.0252
     40 HO2'        0.9369   -2.0558    0.0825 H         1 GTP         0.4224
     41 H1'        -0.1998   -1.6319    2.6178 H         1 GTP         0.0745
     42 H8         -2.4657   -0.0713   -0.0897 H         1 GTP         0.1522
     43 HN1        -3.7505   -6.2699    1.3904 H         1 GTP         0.3518
     44 HN21       -1.0023   -5.9289    3.6451 H         1 GTP         0.4761
     45 HN22       -2.2347   -6.9951    3.0150 H         1 GTP         0.4761
     46 H46        -0.8062   -3.6900    2.8760 H         1 GTP         0.5030
@<TRIPOS>BOND
     1    1    2 2
     2    1    3 1
     3    1    4 1
     4    1    5 1
     5    4   33 1
     6    5    6 1
     7    6    7 2
     8    6    8 1
     9    6    9 1
    10    9   10 1
    11   10   11 2
    12   10   12 1
    13   10   13 1
    14   13   14 1
    15   14   15 1
    16   14   34 1
    17   14   35 1
    18   15   16 1
    19   15   17 1
    20   15   36 1
    21   16   21 1
    22   17   18 1
    23   17   19 1
    24   17   37 1
    25   18   38 1
    26   19   20 1
    27   19   21 1
    28   19   39 1
    29   20   40 1
    30   21   22 1
    31   21   41 1
    32   22   23 ar
    33   22   32 ar
    34   23   24 ar
    35   23   42 1
    36   24   25 ar
    37   25   26 ar
    38   25   32 ar
    39   26   27 2
    40   26   28 ar
    41   28   29 ar
    42   28   43 1
    43   29   30 1
    44   29   31 ar
    45   30   44 1
    46   30   45 1
    47   31   32 ar
    48   31   46 1
@<TRIPOS>SUBSTRUCTURE
     1 GTP         1 GROUP 0 A     ****
@<TRIPOS>MOLECULE
[[[5-(2-amino-6-oxo-1,3-dihydropurin-2-ylium-9-yl)-3,4-dihydroxy-tetrahydrofuran-2-yl]methoxy-oxido-phosphoryl]oxy-oxido-phosphoryl] hydrogen phosphate
   46    48     1     0     0
SMALL
USER_CHARGES

@<TRIPOS>ATOM
      1 PG          2.3308    4.4045    4.5693 P.3       1 GTP         1.5400
      2 O1G         1.8869    3.1527    3.8459 O.co2     1 GTP        -0.8909
      3 O2G         3.1349    5.4697    3.8577 O.co2     1 GTP        -0.8909
      4 O3G         3.1343    3.9650    5.9211 O.3       1 GTP        -0.7980
      5 O3B         1.0322    5.1018    5.2700 O.3       1 GTP        -0.7612
      6 PB         -0.2716    5.8082    4.5869 P.3       1 GTP         1.5847
      7 O1B        -1.2533    6.1725    5.6783 O.co2     1 GTP        -0.8859
      8 O2B         0.1949    6.8256    3.5697 O.co2     1 GTP        -0.8859
      9 O3A        -0.8451    4.5359    3.7400 O.3       1 GTP        -0.7486
     10 PA         -2.1561    4.4278    2.7707 P.3       1 GTP         1.5001
     11 O1A        -3.3990    4.6374    3.6082 O.co2     1 GTP        -0.8487
     12 O2A        -1.9055    5.2477    1.5239 O.co2     1 GTP        -0.8487
     13 O5'        -2.0401    2.8620    2.3128 O.3       1 GTP        -0.5474
     14 C5'        -0.8811    2.4285    1.6206 C.3       1 GTP         0.2547
     15 C4'        -0.1994    1.3333    2.4288 C.3       1 GTP         0.0926
     16 O4'        -1.1285    0.2356    2.5840 O.3       1 GTP        -0.3593
     17 C3'         1.0324    0.7610    1.7344 C.3       1 GTP         0.0907
     18 O3'         1.9175    0.2377    2.7247 O.3       1 GTP        -0.5209
     19 C2'         0.4468   -0.3802    0.9263 C.3       1 GTP         0.0305
     20 O2'         1.3993   -1.3703    0.5961 O.3       1 GTP        -0.5978
     21 C1'        -0.6159   -0.9100    1.8769 C.3       1 GTP         0.2339
     22 N9         -1.7127   -1.6108    1.2130 N.pl3     1 GTP        -0.1765
     23 C8         -2.5534   -1.0907    0.2607 C.ar      1 GTP         0.4947
     24 N7         -3.4469   -1.9695   -0.1508 N.2       1 GTP        -0.5802
     25 C5         -3.1705   -3.1041    0.5657 C.ar      1 GTP         0.2279
     26 C6         -3.8738   -4.3568    0.4777 C.ar      1 GTP         0.6513
     27 O6         -4.8240   -4.5720   -0.2607 O.2       1 GTP        -0.5111
     28 N1         -3.3198   -5.3462    1.3780 N.pl3     1 GTP        -0.4713
     29 C2         -2.2226   -5.1203    2.2413 C.ar      1 GTP         0.5256
     30 N2         -1.7649   -6.1367    3.0659 N.pl3     1 GTP        -0.8665
     31 N3         -1.5969   -3.8585    2.2574 N.pl3     1 GTP        -0.5398
     32 C4         -2.1068   -2.8965    1.4082 C.ar      1 GTP        -0.0275
     33 HOG3        3.4888    4.6702    6.5036 H         1 GTP         0.4161
     34 H5'        -1.1767    2.0502    0.6368 H         1 GTP         0.0348
     35 H5''       -0.2080    3.2814    1.4876 H         1 GTP         0.0348
     36 H4'         0.0403    1.7078    3.4343 H         1 GTP         0.1215
     37 H3'         1.5907    1.4859    1.1353 H         1 GTP         0.0576
     38 HO3'        2.1521    0.9800    3.3017 H         1 GTP         0.3842
     39 H2'        -0.0017    0.0018    0.0005 H         1 GTP         0.0252
     40 HO2'        1.7495   -1.7243    1.4324 H         1 GTP         0.4224
     41 H1'        -0.1998   -1.6319    2.6178 H         1 GTP         0.0745
     42 H8         -2.4657   -0.0713   -0.0897 H         1 GTP         0.1522
     43 HN1        -3.7505   -6.2699    1.3904 H         1 GTP         0.3518
     44 HN21       -2.2343   -6.9953    3.0147 H         1 GTP         0.4761
     45 HN22       -1.0020   -5.9290    3.6447 H         1 GTP         0.4761
     46 H46        -0.8062   -3.6900    2.8760 H         1 GTP         0.5030
@<TRIPOS>BOND
     1    1    2 2
     2    1    3 1
     3    1    4 1
     4    1    5 1
     5    4   33 1
     6    5    6 1
     7    6    7 2
     8    6    8 1
     9    6    9 1
    10    9   10 1
    11   10   11 2
    12   10   12 1
    13   10   13 1
    14   13   14 1
    15   14   15 1
    16   14   34 1
    17   14   35 1
    18   15   16 1
    19   15   17 1
    20   15   36 1
    21   16   21 1
    22   17   18 1
    23   17   19 1
    24   17   37 1
    25   18   38 1
    26   19   20 1
    27   19   21 1
    28   19   39 1
    29   20   40 1
    30   21   22 1
    31   21   41 1
    32   22   23 ar
    33   22   32 ar
    34   23   24 ar
    35   23   42 1
    36   24   25 ar
    37   25   26 ar
    38   25   32 ar
    39   26   27 2
    40   26   28 ar
    41   28   29 ar
    42   28   43 1
    43   29   30 1
    44   29   31 ar
    45   30   44 1
    46   30   45 1
    47   31   32 ar
    48   31   46 1
@<TRIPOS>SUBSTRUCTURE
     1 GTP         1 GROUP 0 A     ****
@<TRIPOS>MOLECULE
[[[5-(2-amino-6-oxo-1,3-dihydropurin-2-ylium-9-yl)-3,4-dihydroxy-tetrahydrofuran-2-yl]methoxy-oxido-phosphoryl]oxy-oxido-phosphoryl] hydrogen phosphate
   46    48     1     0     0
SMALL
USER_CHARGES

@<TRIPOS>ATOM
      1 PG          0.0924    6.9550   -3.6843 P.3       1 GTP         1.5400
      2 O1G         0.3126    6.2012   -4.9769 O.co2     1 GTP        -0.8909
      3 O2G        -0.9727    8.0238   -3.5796 O.co2     1 GTP        -0.8909
      4 O3G         1.5172    7.5945   -3.2077 O.3       1 GTP        -0.7980
      5 O3B        -0.1140    5.8819   -2.4721 O.3       1 GTP        -0.7612
      6 PB         -1.3288    4.8235   -2.2077 P.3       1 GTP         1.5847
      7 O1B        -2.5963    5.6000   -1.9287 O.co2     1 GTP        -0.8859
      8 O2B        -1.2791    3.7419   -3.2637 O.co2     1 GTP        -0.8859
      9 O3A        -0.7889    4.1455   -0.8244 O.3       1 GTP        -0.7486
     10 PA         -0.4665    4.8322    0.6228 P.3       1 GTP         1.5001
     11 O1A         0.6860    5.7988    0.4566 O.co2     1 GTP        -0.8487
     12 O2A        -1.7709    5.2708    1.2521 O.co2     1 GTP        -0.8487
     13 O5'         0.0178    3.5131    1.4595 O.3       1 GTP        -0.5474
     14 C5'        -0.8811    2.4285    1.6206 C.3       1 GTP         0.2547
     15 C4'        -0.1994    1.3333    2.4288 C.3       1 GTP         0.0926
     16 O4'        -1.1285    0.2356    2.5840 O.3       1 GTP        -0.3593
     17 C3'         1.0324    0.7610    1.7344 C.3       1 GTP         0.0907
     18 O3'         1.9175    0.2377    2.7247 O.3       1 GTP        -0.5209
     19 C2'         0.4468   -0.3802    0.9263 C.3       1 GTP         0.0305
     20 O2'         1.3993   -1.3703    0.5961 O.3       1 GTP        -0.5978
     21 C1'        -0.6159   -0.9100    1.8769 C.3       1 GTP         0.2339
     22 N9         -1.7127   -1.6108    1.2130 N.pl3     1 GTP        -0.1765
     23 C8         -1.6311   -2.3341    0.0493 C.ar      1 GTP         0.4947
     24 N7         -2.7933   -2.8506   -0.3007 N.2       1 GTP        -0.5802
     25 C5         -3.6607   -2.4436    0.6786 C.ar      1 GTP         0.2279
     26 C6         -5.0651   -2.7506    0.7505 C.ar      1 GTP         0.6513
     27 O6         -5.6735   -3.4256   -0.0671 O.2       1 GTP        -0.5111
     28 N1         -5.6834   -2.1585    1.9182 N.pl3     1 GTP        -0.4713
     29 C2         -5.0007   -1.3738    2.8765 C.ar      1 GTP         0.5256
     30 N2         -5.6847   -0.8521    3.9640 N.pl3     1 GTP        -0.8665
     31 N3         -3.6227   -1.1271    2.7212 N.pl3     1 GTP        -0.5398
     32 C4         -3.0090   -1.6802    1.6149 C.ar      1 GTP        -0.0275
     33 HOG3        1.5400    8.1176   -2.3782 H         1 GTP         0.4161
     34 H5'        -1.7771    2.7849    2.1387 H         1 GTP         0.0348
     35 H5''       -1.1654    2.0541    0.6320 H         1 GTP         0.0348
     36 H4'         0.0403    1.7078    3.4343 H         1 GTP         0.1215
     37 H3'         1.5907    1.4859    1.1353 H         1 GTP         0.0576
     38 HO3'        2.6839   -0.1150    2.2479 H         1 GTP         0.3842
     39 H2'        -0.0017    0.0018    0.0005 H         1 GTP         0.0252
     40 HO2'        2.0953   -0.9375    0.0709 H         1 GTP         0.4224
     41 H1'        -0.1998   -1.6319    2.6178 H         1 GTP         0.0745
     42 H8         -0.7029   -2.4474   -0.4941 H         1 GTP         0.1522
     43 HN1        -6.6800   -2.3183    2.0594 H         1 GTP         0.3518
     44 HN21       -5.1660   -0.3153    4.5987 H         1 GTP         0.4761
     45 HN22       -6.6415   -1.0545    4.0252 H         1 GTP         0.4761
     46 H46        -3.1256   -0.5638    3.4080 H         1 GTP         0.5030
@<TRIPOS>BOND
     1    1    2 2
     2    1    3 1
     3    1    4 1
     4    1    5 1
     5    4   33 1
     6    5    6 1
     7    6    7 2
     8    6    8 1
     9    6    9 1
    10    9   10 1
    11   10   11 2
    12   10   12 1
    13   10   13 1
    14   13   14 1
    15   14   15 1
    16   14   34 1
    17   14   35 1
    18   15   16 1
    19   15   17 1
    20   15   36 1
    21   16   21 1
    22   17   18 1
    23   17   19 1
    24   17   37 1
    25   18   38 1
    26   19   20 1
    27   19   21 1
    28   19   39 1
    29   20   40 1
    30   21   22 1
    31   21   41 1
    32   22   23 ar
    33   22   32 ar
    34   23   24 ar
    35   23   42 1
    36   24   25 ar
    37   25   26 ar
    38   25   32 ar
    39   26   27 2
    40   26   28 ar
    41   28   29 ar
    42   28   43 1
    43   29   30 1
    44   29   31 ar
    45   30   44 1
    46   30   45 1
    47   31   32 ar
    48   31   46 1
@<TRIPOS>SUBSTRUCTURE
     1 GTP         1 GROUP 0 A     ****
@<TRIPOS>MOLECULE
[[[5-(2-amino-6-oxo-1,3-dihydropurin-2-ylium-9-yl)-3,4-dihydroxy-tetrahydrofuran-2-yl]methoxy-oxido-phosphoryl]oxy-oxido-phosphoryl] hydrogen phosphate
   46    48     1     0     0
SMALL
USER_CHARGES

@<TRIPOS>ATOM
      1 PG          8.3127    4.2386    0.2774 P.3       1 GTP         1.5400
      2 O1G         6.8071    4.3806    0.2966 O.co2     1 GTP        -0.8909
      3 O2G         9.0796    3.9212    1.5419 O.co2     1 GTP        -0.8909
      4 O3G         8.9520    5.5831   -0.3929 O.3       1 GTP        -0.7980
      5 O3B         8.7303    3.1644   -0.8782 O.3       1 GTP        -0.7612
      6 PB          8.4522    1.5578   -0.9625 P.3       1 GTP         1.5847
      7 O1B         8.9255    1.0537   -2.3076 O.co2     1 GTP        -0.8859
      8 O2B         8.9023    0.9109    0.3285 O.co2     1 GTP        -0.8859
      9 O3A         6.8202    1.5723   -0.9289 O.3       1 GTP        -0.7486
     10 PA          5.7602    0.3298   -0.9771 P.3       1 GTP         1.5001
     11 O1A         5.8877   -0.3669   -2.3145 O.co2     1 GTP        -0.8487
     12 O2A         5.8603   -0.4429    0.3201 O.co2     1 GTP        -0.8487
     13 O5'         4.3516    1.1575   -0.9026 O.3       1 GTP        -0.5474
     14 C5'         4.0922    1.9801    0.2227 C.3       1 GTP         0.2547
     15 C4'         2.5944    2.0310    0.4653 C.3       1 GTP         0.0926
     16 O4'         1.9327    2.5740   -0.6889 O.3       1 GTP        -0.3593
     17 C3'         1.9685    0.6634    0.6767 C.3       1 GTP         0.0907
     18 O3'         2.1425    0.1975    1.9977 O.3       1 GTP        -0.5209
     19 C2'         0.5176    0.9128    0.3099 C.3       1 GTP         0.0305
     20 O2'        -0.2103    1.4454    1.4152 O.3       1 GTP        -0.5978
     21 C1'         0.6219    1.9765   -0.7844 C.3       1 GTP         0.2339
     22 N9          0.4237    1.4496   -2.1357 N.pl3     1 GTP        -0.1765
     23 C8          1.3988    0.9691   -2.9736 C.ar      1 GTP         0.4947
     24 N7          0.9092    0.5634   -4.1293 N.2       1 GTP        -0.5802
     25 C5         -0.4383    0.7914   -4.0325 C.ar      1 GTP         0.2279
     26 C6         -1.4217    0.5138   -5.0461 C.ar      1 GTP         0.6513
     27 O6         -1.1759    0.0306   -6.1417 O.2       1 GTP        -0.5111
     28 N1         -2.7543    0.8794   -4.6134 N.pl3     1 GTP        -0.4713
     29 C2         -3.0626    1.4402   -3.3523 C.ar      1 GTP         0.5256
     30 N2         -4.3747    1.7544   -3.0321 N.pl3     1 GTP        -0.8665
     31 N3         -2.0304    1.6759   -2.4233 N.pl3     1 GTP        -0.5398
     32 C4         -0.7497    1.3366   -2.8118 C.ar      1 GTP        -0.0275
     33 HOG3        9.9274    5.6442   -0.4774 H         1 GTP         0.4161
     34 H5'         4.6069    1.5618    1.0936 H         1 GTP         0.0348
     35 H5''        4.4824    2.9837    0.0254 H         1 GTP         0.0348
     36 H4'         2.3752    2.7029    1.3156 H         1 GTP         0.1215
     37 H3'         2.4336   -0.1217   -0.0015 H         1 GTP         0.0576
     38 HO3'        1.7160   -0.6716    2.0397 H         1 GTP         0.3842
     39 H2'         0.0316    0.0155   -0.0339 H         1 GTP         0.0252
     40 HO2'       -0.1608    0.7921    2.1351 H         1 GTP         0.4224
     41 H1'        -0.1474    2.7798   -0.6651 H         1 GTP         0.0745
     42 H8          2.4413    0.9409   -2.6872 H         1 GTP         0.1522
     43 HN1        -3.5236    0.7214   -5.2629 H         1 GTP         0.3518
     44 HN21       -4.5350    2.1409   -2.1461 H         1 GTP         0.4761
     45 HN22       -5.0542    1.5695   -3.7134 H         1 GTP         0.4761
     46 H46        -2.2462    2.0786   -1.5136 H         1 GTP         0.5030
@<TRIPOS>BOND
     1    1    2 2
     2    1    3 1
     3    1    4 1
     4    1    5 1
     5    4   33 1
     6    5    6 1
     7    6    7 2
     8    6    8 1
     9    6    9 1
    10    9   10 1
    11   10   11 2
    12   10   12 1
    13   10   13 1
    14   13   14 1
    15   14   15 1
    16   14   34 1
    17   14   35 1
    18   15   16 1
    19   15   17 1
    20   15   36 1
    21   16   21 1
    22   17   18 1
    23   17   19 1
    24   17   37 1
    25   18   38 1
    26   19   20 1
    27   19   21 1
    28   19   39 1
    29   20   40 1
    30   21   22 1
    31   21   41 1
    32   22   23 ar
    33   22   32 ar
    34   23   24 ar
    35   23   42 1
    36   24   25 ar
    37   25   26 ar
    38   25   32 ar
    39   26   27 2
    40   26   28 ar
    41   28   29 ar
    42   28   43 1
    43   29   30 1
    44   29   31 ar
    45   30   44 1
    46   30   45 1
    47   31   32 ar
    48   31   46 1
@<TRIPOS>SUBSTRUCTURE
     1 GTP         1 GROUP 0 A     ****
@<TRIPOS>MOLECULE
[[[5-(2-amino-6-oxo-1,3-dihydropurin-2-ylium-9-yl)-3,4-dihydroxy-tetrahydrofuran-2-yl]methoxy-oxido-phosphoryl]oxy-oxido-phosphoryl] hydrogen phosphate
   46    48     1     0     0
SMALL
USER_CHARGES

@<TRIPOS>ATOM
      1 PG          1.8482    4.1388    6.2380 P.3       1 GTP         1.5400
      2 O1G         2.0032    3.0842    5.1649 O.co2     1 GTP        -0.8909
      3 O2G         2.9022    5.2050    6.4379 O.co2     1 GTP        -0.8909
      4 O3G         1.5895    3.3912    7.6663 O.3       1 GTP        -0.7980
      5 O3B         0.3931    4.8585    6.0692 O.3       1 GTP        -0.7612
      6 PB         -0.1676    5.8159    4.8714 P.3       1 GTP         1.5847
      7 O1B        -1.6292    6.1079    5.1282 O.co2     1 GTP        -0.8859
      8 O2B         0.8291    6.9253    4.6193 O.co2     1 GTP        -0.8859
      9 O3A        -0.0307    4.7768    3.6199 O.3       1 GTP        -0.7486
     10 PA         -0.3962    4.9846    2.0409 P.3       1 GTP         1.5001
     11 O1A        -1.8888    5.1976    1.9110 O.co2     1 GTP        -0.8487
     12 O2A         0.5889    5.9637    1.4405 O.co2     1 GTP        -0.8487
     13 O5'         0.0178    3.5131    1.4595 O.3       1 GTP        -0.5474
     14 C5'        -0.8811    2.4285    1.6206 C.3       1 GTP         0.2547
     15 C4'        -0.1994    1.3333    2.4288 C.3       1 GTP         0.0926
     16 O4'        -1.1285    0.2356    2.5840 O.3       1 GTP        -0.3593
     17 C3'         1.0324    0.7610    1.7344 C.3       1 GTP         0.0907
     18 O3'         1.9175    0.2377    2.7247 O.3       1 GTP        -0.5209
     19 C2'         0.4468   -0.3802    0.9263 C.3       1 GTP         0.0305
     20 O2'         1.3993   -1.3703    0.5961 O.3       1 GTP        -0.5978
     21 C1'        -0.6159   -0.9100    1.8769 C.3       1 GTP         0.2339
     22 N9         -1.7127   -1.6108    1.2130 N.pl3     1 GTP        -0.1765
     23 C8         -1.7789   -2.9564    0.9503 C.ar      1 GTP         0.4947
     24 N7         -2.8980   -3.2916    0.3377 N.2       1 GTP        -0.5802
     25 C5         -3.5824   -2.1127    0.2000 C.ar      1 GTP         0.2279
     26 C6         -4.8740   -1.9471   -0.4133 C.ar      1 GTP         0.6513
     27 O6         -5.5366   -2.8529   -0.8978 O.2       1 GTP        -0.5111
     28 N1         -5.3036   -0.5645   -0.3916 N.pl3     1 GTP        -0.4713
     29 C2         -4.5545    0.4997    0.1619 C.ar      1 GTP         0.5256
     30 N2         -5.0561    1.7921    0.1348 N.pl3     1 GTP        -0.8665
     31 N3         -3.2977    0.2393    0.7420 N.pl3     1 GTP        -0.5398
     32 C4         -2.8643   -1.0716    0.7336 C.ar      1 GTP        -0.0275
     33 HOG3        1.4681    3.9442    8.4674 H         1 GTP         0.4161
     34 H5'        -1.7771    2.7849    2.1387 H         1 GTP         0.0348
     35 H5''       -1.1654    2.0541    0.6320 H         1 GTP         0.0348
     36 H4'         0.0403    1.7078    3.4343 H         1 GTP         0.1215
     37 H3'         1.5907    1.4859    1.1353 H         1 GTP         0.0576
     38 HO3'        2.6839   -0.1150    2.2479 H         1 GTP         0.3842
     39 H2'        -0.0017    0.0018    0.0005 H         1 GTP         0.0252
     40 HO2'        2.0953   -0.9375    0.0709 H         1 GTP         0.4224
     41 H1'        -0.1998   -1.6319    2.6178 H         1 GTP         0.0745
     42 H8         -0.9852   -3.6367    1.2276 H         1 GTP         0.1522
     43 HN1        -6.2089   -0.3428   -0.8039 H         1 GTP         0.3518
     44 HN21       -4.4981    2.4933    0.5311 H         1 GTP         0.4761
     45 HN22       -5.9352    1.9183   -0.2793 H         1 GTP         0.4761
     46 H46        -2.7541    1.0010    1.1428 H         1 GTP         0.5030
@<TRIPOS>BOND
     1    1    2 2
     2    1    3 1
     3    1    4 1
     4    1    5 1
     5    4   33 1
     6    5    6 1
     7    6    7 2
     8    6    8 1
     9    6    9 1
    10    9   10 1
    11   10   11 2
    12   10   12 1
    13   10   13 1
    14   13   14 1
    15   14   15 1
    16   14   34 1
    17   14   35 1
    18   15   16 1
    19   15   17 1
    20   15   36 1
    21   16   21 1
    22   17   18 1
    23   17   19 1
    24   17   37 1
    25   18   38 1
    26   19   20 1
    27   19   21 1
    28   19   39 1
    29   20   40 1
    30   21   22 1
    31   21   41 1
    32   22   23 ar
    33   22   32 ar
    34   23   24 ar
    35   23   42 1
    36   24   25 ar
    37   25   26 ar
    38   25   32 ar
    39   26   27 2
    40   26   28 ar
    41   28   29 ar
    42   28   43 1
    43   29   30 1
    44   29   31 ar
    45   30   44 1
    46   30   45 1
    47   31   32 ar
    48   31   46 1
@<TRIPOS>SUBSTRUCTURE
     1 GTP         1 GROUP 0 A     ****
@<TRIPOS>MOLECULE
[[[5-(2-amino-6-oxo-1,3-dihydropurin-2-ylium-9-yl)-3,4-dihydroxy-tetrahydrofuran-2-yl]methoxy-oxido-phosphoryl]oxy-oxido-phosphoryl] hydrogen phosphate
   46    48     1     0     0
SMALL
USER_CHARGES

@<TRIPOS>ATOM
      1 PG         -3.7606    6.2688    1.5200 P.3       1 GTP         1.5400
      2 O1G        -4.0810    5.7157    2.8907 O.co2     1 GTP        -0.8909
      3 O2G        -2.3405    6.6208    1.1363 O.co2     1 GTP        -0.8909
      4 O3G        -4.7080    7.5712    1.2517 O.3       1 GTP        -0.7980
      5 O3B        -4.3834    5.2732    0.3866 O.3       1 GTP        -0.7612
      6 PB         -3.9735    3.7404    0.0016 P.3       1 GTP         1.5847
      7 O1B        -4.0323    2.8938    1.2536 O.co2     1 GTP        -0.8859
      8 O2B        -4.7014    3.3375   -1.2615 O.co2     1 GTP        -0.8859
      9 O3A        -2.4152    3.9839   -0.4194 O.3       1 GTP        -0.7486
     10 PA         -1.2907    2.9172   -0.9365 P.3       1 GTP         1.5001
     11 O1A        -1.8308    2.1905   -2.1492 O.co2     1 GTP        -0.8487
     12 O2A         0.0536    3.6108   -0.9746 O.co2     1 GTP        -0.8487
     13 O5'        -1.2434    1.9104    0.3515 O.3       1 GTP        -0.5474
     14 C5'        -0.8811    2.4285    1.6206 C.3       1 GTP         0.2547
     15 C4'        -0.1994    1.3333    2.4288 C.3       1 GTP         0.0926
     16 O4'        -1.1285    0.2356    2.5840 O.3       1 GTP        -0.3593
     17 C3'         1.0324    0.7610    1.7344 C.3       1 GTP         0.0907
     18 O3'         1.9175    0.2377    2.7247 O.3       1 GTP        -0.5209
     19 C2'         0.4468   -0.3802    0.9263 C.3       1 GTP         0.0305
     20 O2'         1.3993   -1.3703    0.5961 O.3       1 GTP        -0.5978
     21 C1'        -0.6159   -0.9100    1.8769 C.3       1 GTP         0.2339
     22 N9         -1.7127   -1.6108    1.2130 N.pl3     1 GTP        -0.1765
     23 C8         -2.8692   -1.0463    0.7355 C.ar      1 GTP         0.4947
     24 N7         -3.6707   -1.9381    0.1856 N.2       1 GTP        -0.5802
     25 C5         -3.0027   -3.1275    0.3134 C.ar      1 GTP         0.2279
     26 C6         -3.4659   -4.4142   -0.1355 C.ar      1 GTP         0.6513
     27 O6         -4.5328   -4.6133   -0.6980 O.2       1 GTP        -0.5111
     28 N1         -2.5102   -5.4606    0.1612 N.pl3     1 GTP        -0.4713
     29 C2         -1.2711   -5.2547    0.8113 C.ar      1 GTP         0.5256
     30 N2         -0.4228   -6.3256    1.0482 N.pl3     1 GTP        -0.8665
     31 N3         -0.9033   -3.9563    1.2146 N.pl3     1 GTP        -0.5398
     32 C4         -1.7979   -2.9400    0.9438 C.ar      1 GTP        -0.0275
     33 HOG3       -4.6185    8.0459    0.3979 H         1 GTP         0.4161
     34 H5'        -0.2033    3.2760    1.4769 H         1 GTP         0.0348
     35 H5''       -1.7841    2.7762    2.1323 H         1 GTP         0.0348
     36 H4'         0.0403    1.7078    3.4343 H         1 GTP         0.1215
     37 H3'         1.5907    1.4859    1.1353 H         1 GTP         0.0576
     38 HO3'        2.6839   -0.1150    2.2479 H         1 GTP         0.3842
     39 H2'        -0.0017    0.0018    0.0005 H         1 GTP         0.0252
     40 HO2'        2.0953   -0.9375    0.0709 H         1 GTP         0.4224
     41 H1'        -0.1998   -1.6319    2.6178 H         1 GTP         0.0745
     42 H8         -3.0691    0.0134    0.8177 H         1 GTP         0.1522
     43 HN1        -2.7468   -6.4119   -0.1177 H         1 GTP         0.3518
     44 HN21        0.4233   -6.1297    1.5018 H         1 GTP         0.4761
     45 HN22       -0.7261   -7.2071    0.7466 H         1 GTP         0.4761
     46 H46        -0.0124   -3.8015    1.6821 H         1 GTP         0.5030
@<TRIPOS>BOND
     1    1    2 2
     2    1    3 1
     3    1    4 1
     4    1    5 1
     5    4   33 1
     6    5    6 1
     7    6    7 2
     8    6    8 1
     9    6    9 1
    10    9   10 1
    11   10   11 2
    12   10   12 1
    13   10   13 1
    14   13   14 1
    15   14   15 1
    16   14   34 1
    17   14   35 1
    18   15   16 1
    19   15   17 1
    20   15   36 1
    21   16   21 1
    22   17   18 1
    23   17   19 1
    24   17   37 1
    25   18   38 1
    26   19   20 1
    27   19   21 1
    28   19   39 1
    29   20   40 1
    30   21   22 1
    31   21   41 1
    32   22   23 ar
    33   22   32 ar
    34   23   24 ar
    35   23   42 1
    36   24   25 ar
    37   25   26 ar
    38   25   32 ar
    39   26   27 2
    40   26   28 ar
    41   28   29 ar
    42   28   43 1
    43   29   30 1
    44   29   31 ar
    45   30   44 1
    46   30   45 1
    47   31   32 ar
    48   31   46 1
@<TRIPOS>SUBSTRUCTURE
     1 GTP         1 GROUP 0 A     ****
@<TRIPOS>MOLECULE
[[[5-(2-amino-6-oxo-1,3-dihydropurin-2-ylium-9-yl)-3,4-dihydroxy-tetrahydrofuran-2-yl]methoxy-oxido-phosphoryl]oxy-oxido-phosphoryl] hydrogen phosphate
   46    48     1     0     0
SMALL
USER_CHARGES

@<TRIPOS>ATOM
      1 PG         -7.1430    5.9969    1.4395 P.3       1 GTP         1.5400
      2 O1G        -6.9288    7.1417    0.4747 O.co2     1 GTP        -0.8909
      3 O2G        -8.3439    5.0864    1.3109 O.co2     1 GTP        -0.8909
      4 O3G        -7.1000    6.5863    2.9616 O.3       1 GTP        -0.7980
      5 O3B        -5.7906    5.0846    1.4900 O.3       1 GTP        -0.7612
      6 PB         -5.1161    4.1493    0.3342 P.3       1 GTP         1.5847
      7 O1B        -6.0524    3.0004    0.0327 O.co2     1 GTP        -0.8859
      8 O2B        -4.5725    5.0366   -0.7634 O.co2     1 GTP        -0.8859
      9 O3A        -3.8245    3.5965    1.1654 O.3       1 GTP        -0.7486
     10 PA         -2.5926    4.4187    1.8556 P.3       1 GTP         1.5001
     11 O1A        -1.8001    5.1111    0.7680 O.co2     1 GTP        -0.8487
     12 O2A        -3.1290    5.1879    3.0431 O.co2     1 GTP        -0.8487
     13 O5'        -1.7336    3.1724    2.4750 O.3       1 GTP        -0.5474
     14 C5'        -0.8811    2.4285    1.6206 C.3       1 GTP         0.2547
     15 C4'        -0.1994    1.3333    2.4288 C.3       1 GTP         0.0926
     16 O4'        -1.1285    0.2356    2.5840 O.3       1 GTP        -0.3593
     17 C3'         1.0324    0.7610    1.7344 C.3       1 GTP         0.0907
     18 O3'         1.9175    0.2377    2.7247 O.3       1 GTP        -0.5209
     19 C2'         0.4468   -0.3802    0.9263 C.3       1 GTP         0.0305
     20 O2'         1.3993   -1.3703    0.5961 O.3       1 GTP        -0.5978
     21 C1'        -0.6159   -0.9100    1.8769 C.3       1 GTP         0.2339
     22 N9         -1.7127   -1.6108    1.2130 N.pl3     1 GTP        -0.1765
     23 C8         -3.0389   -1.2578    1.2391 C.ar      1 GTP         0.4947
     24 N7         -3.7909   -2.0880    0.5425 N.2       1 GTP        -0.5802
     25 C5         -2.9127   -3.0150    0.0458 C.ar      1 GTP         0.2279
     26 C6         -3.2467   -4.1411   -0.7860 C.ar      1 GTP         0.6513
     27 O6         -4.3761   -4.4189   -1.1621 O.2       1 GTP        -0.5111
     28 N1         -2.0748   -4.9191   -1.1296 N.pl3     1 GTP        -0.4713
     29 C2         -0.7595   -4.6181   -0.7058 C.ar      1 GTP         0.5256
     30 N2          0.2985   -5.4268   -1.0920 N.pl3     1 GTP        -0.8665
     31 N3         -0.5304   -3.4919    0.1084 N.pl3     1 GTP        -0.5398
     32 C4         -1.6318   -2.7332    0.4512 C.ar      1 GTP        -0.0275
     33 HOG3       -6.2819    7.0340    3.2659 H         1 GTP         0.4161
     34 H5'        -1.4800    1.9927    0.8146 H         1 GTP         0.0348
     35 H5''       -0.1367    3.1040    1.1872 H         1 GTP         0.0348
     36 H4'         0.0403    1.7078    3.4343 H         1 GTP         0.1215
     37 H3'         1.5907    1.4859    1.1353 H         1 GTP         0.0576
     38 HO3'        2.1521    0.9800    3.3017 H         1 GTP         0.3842
     39 H2'        -0.0017    0.0018    0.0005 H         1 GTP         0.0252
     40 HO2'        1.7495   -1.7243    1.4324 H         1 GTP         0.4224
     41 H1'        -0.1998   -1.6319    2.6178 H         1 GTP         0.0745
     42 H8         -3.3933   -0.3909    1.7800 H         1 GTP         0.1522
     43 HN1        -2.2071   -5.7408   -1.7178 H         1 GTP         0.3518
     44 HN21        0.0848   -6.1964   -1.6597 H         1 GTP         0.4761
     45 HN22        1.1896   -5.1747   -0.7719 H         1 GTP         0.4761
     46 H46         0.4142   -3.2695    0.4160 H         1 GTP         0.5030
@<TRIPOS>BOND
     1    1    2 2
     2    1    3 1
     3    1    4 1
     4    1    5 1
     5    4   33 1
     6    5    6 1
     7    6    7 2
     8    6    8 1
     9    6    9 1
    10    9   10 1
    11   10   11 2
    12   10   12 1
    13   10   13 1
    14   13   14 1
    15   14   15 1
    16   14   34 1
    17   14   35 1
    18   15   16 1
    19   15   17 1
    20   15   36 1
    21   16   21 1
    22   17   18 1
    23   17   19 1
    24   17   37 1
    25   18   38 1
    26   19   20 1
    27   19   21 1
    28   19   39 1
    29   20   40 1
    30   21   22 1
    31   21   41 1
    32   22   23 ar
    33   22   32 ar
    34   23   24 ar
    35   23   42 1
    36   24   25 ar
    37   25   26 ar
    38   25   32 ar
    39   26   27 2
    40   26   28 ar
    41   28   29 ar
    42   28   43 1
    43   29   30 1
    44   29   31 ar
    45   30   44 1
    46   30   45 1
    47   31   32 ar
    48   31   46 1
@<TRIPOS>SUBSTRUCTURE
     1 GTP         1 GROUP 0 A     ****
@<TRIPOS>MOLECULE
[[[5-(2-amino-6-oxo-1,3-dihydropurin-2-ylium-9-yl)-3,4-dihydroxy-tetrahydrofuran-2-yl]methoxy-oxido-phosphoryl]oxy-oxido-phosphoryl] hydrogen phosphate
   46    48     1     0     0
SMALL
USER_CHARGES

@<TRIPOS>ATOM
      1 PG         -2.0089    8.8557    3.5050 P.3       1 GTP         1.5400
      2 O1G        -1.0164    9.9644    3.2340 O.co2     1 GTP        -0.8909
      3 O2G        -3.4800    9.0391    3.2052 O.co2     1 GTP        -0.8909
      4 O3G        -1.8514    8.3875    5.0612 O.3       1 GTP        -0.7980
      5 O3B        -1.4882    7.4882    2.7821 O.3       1 GTP        -0.7612
      6 PB         -1.3380    7.1361    1.1949 P.3       1 GTP         1.5847
      7 O1B        -2.7156    7.1118    0.5712 O.co2     1 GTP        -0.8859
      8 O2B        -0.2181    7.9670    0.6092 O.co2     1 GTP        -0.8859
      9 O3A        -0.7681    5.6113    1.3178 O.3       1 GTP        -0.7486
     10 PA         -0.3566    4.5491    0.1464 P.3       1 GTP         1.5001
     11 O1A        -1.5961    4.1945   -0.6461 O.co2     1 GTP        -0.8487
     12 O2A         0.8956    5.0477   -0.5414 O.co2     1 GTP        -0.8487
     13 O5'         0.1084    3.2799    1.0671 O.3       1 GTP        -0.5474
     14 C5'        -0.8811    2.4285    1.6206 C.3       1 GTP         0.2547
     15 C4'        -0.1994    1.3333    2.4288 C.3       1 GTP         0.0926
     16 O4'        -1.1285    0.2356    2.5840 O.3       1 GTP        -0.3593
     17 C3'         1.0324    0.7610    1.7344 C.3       1 GTP         0.0907
     18 O3'         1.9175    0.2377    2.7247 O.3       1 GTP        -0.5209
     19 C2'         0.4468   -0.3802    0.9263 C.3       1 GTP         0.0305
     20 O2'         1.3993   -1.3703    0.5961 O.3       1 GTP        -0.5978
     21 C1'        -0.6159   -0.9100    1.8769 C.3       1 GTP         0.2339
     22 N9         -1.7127   -1.6108    1.2130 N.pl3     1 GTP        -0.1765
     23 C8         -2.8692   -1.0463    0.7355 C.ar      1 GTP         0.4947
     24 N7         -3.6707   -1.9381    0.1856 N.2       1 GTP        -0.5802
     25 C5         -3.0027   -3.1275    0.3134 C.ar      1 GTP         0.2279
     26 C6         -3.4659   -4.4142   -0.1355 C.ar      1 GTP         0.6513
     27 O6         -4.5328   -4.6133   -0.6980 O.2       1 GTP        -0.5111
     28 N1         -2.5102   -5.4606    0.1612 N.pl3     1 GTP        -0.4713
     29 C2         -1.2711   -5.2547    0.8113 C.ar      1 GTP         0.5256
     30 N2         -0.4228   -6.3256    1.0482 N.pl3     1 GTP        -0.8665
     31 N3         -0.9033   -3.9563    1.2146 N.pl3     1 GTP        -0.5398
     32 C4         -1.7979   -2.9400    0.9438 C.ar      1 GTP        -0.0275
     33 HOG3       -2.4313    7.6696    5.3938 H         1 GTP         0.4161
     34 H5'        -1.5412    3.0221    2.2611 H         1 GTP         0.0348
     35 H5''       -1.4698    1.9935    0.8067 H         1 GTP         0.0348
     36 H4'         0.0403    1.7078    3.4343 H         1 GTP         0.1215
     37 H3'         1.5907    1.4859    1.1353 H         1 GTP         0.0576
     38 HO3'        2.6839   -0.1150    2.2479 H         1 GTP         0.3842
     39 H2'        -0.0017    0.0018    0.0005 H         1 GTP         0.0252
     40 HO2'        2.0953   -0.9375    0.0709 H         1 GTP         0.4224
     41 H1'        -0.1998   -1.6319    2.6178 H         1 GTP         0.0745
     42 H8         -3.0691    0.0134    0.8177 H         1 GTP         0.1522
     43 HN1        -2.7468   -6.4119   -0.1177 H         1 GTP         0.3518
     44 HN21        0.4233   -6.1297    1.5018 H         1 GTP         0.4761
     45 HN22       -0.7261   -7.2071    0.7466 H         1 GTP         0.4761
     46 H46        -0.0124   -3.8015    1.6821 H         1 GTP         0.5030
@<TRIPOS>BOND
     1    1    2 2
     2    1    3 1
     3    1    4 1
     4    1    5 1
     5    4   33 1
     6    5    6 1
     7    6    7 2
     8    6    8 1
     9    6    9 1
    10    9   10 1
    11   10   11 2
    12   10   12 1
    13   10   13 1
    14   13   14 1
    15   14   15 1
    16   14   34 1
    17   14   35 1
    18   15   16 1
    19   15   17 1
    20   15   36 1
    21   16   21 1
    22   17   18 1
    23   17   19 1
    24   17   37 1
    25   18   38 1
    26   19   20 1
    27   19   21 1
    28   19   39 1
    29   20   40 1
    30   21   22 1
    31   21   41 1
    32   22   23 ar
    33   22   32 ar
    34   23   24 ar
    35   23   42 1
    36   24   25 ar
    37   25   26 ar
    38   25   32 ar
    39   26   27 2
    40   26   28 ar
    41   28   29 ar
    42   28   43 1
    43   29   30 1
    44   29   31 ar
    45   30   44 1
    46   30   45 1
    47   31   32 ar
    48   31   46 1
@<TRIPOS>SUBSTRUCTURE
     1 GTP         1 GROUP 0 A     ****
@<TRIPOS>MOLECULE
[[[5-(2-amino-6-oxo-1,3-dihydropurin-2-ylium-9-yl)-3,4-dihydroxy-tetrahydrofuran-2-yl]methoxy-oxido-phosphoryl]oxy-oxido-phosphoryl] hydrogen phosphate
   46    48     1     0     0
SMALL
USER_CHARGES

@<TRIPOS>ATOM
      1 PG         -3.8992    6.2620   -2.4662 P.3       1 GTP         1.5400
      2 O1G        -3.3430    7.6127   -2.8584 O.co2     1 GTP        -0.8909
      3 O2G        -4.5397    5.3567   -3.4948 O.co2     1 GTP        -0.8909
      4 O3G        -4.9500    6.4717   -1.2342 O.3       1 GTP        -0.7980
      5 O3B        -2.7477    5.4247   -1.6684 O.3       1 GTP        -0.7612
      6 PB         -1.3288    4.8235   -2.2077 P.3       1 GTP         1.5847
      7 O1B        -1.6159    3.7399   -3.2230 O.co2     1 GTP        -0.8859
      8 O2B        -0.3928    5.9706   -2.5172 O.co2     1 GTP        -0.8859
      9 O3A        -0.7889    4.1455   -0.8244 O.3       1 GTP        -0.7486
     10 PA         -0.4665    4.8322    0.6228 P.3       1 GTP         1.5001
     11 O1A         0.6860    5.7988    0.4566 O.co2     1 GTP        -0.8487
     12 O2A        -1.7709    5.2708    1.2521 O.co2     1 GTP        -0.8487
     13 O5'         0.0178    3.5131    1.4595 O.3       1 GTP        -0.5474
     14 C5'        -0.8811    2.4285    1.6206 C.3       1 GTP         0.2547
     15 C4'        -0.1994    1.3333    2.4288 C.3       1 GTP         0.0926
     16 O4'        -1.1285    0.2356    2.5840 O.3       1 GTP        -0.3593
     17 C3'         1.0324    0.7610    1.7344 C.3       1 GTP         0.0907
     18 O3'         1.9175    0.2377    2.7247 O.3       1 GTP        -0.5209
     19 C2'         0.4468   -0.3802    0.9263 C.3       1 GTP         0.0305
     20 O2'         1.3993   -1.3703    0.5961 O.3       1 GTP        -0.5978
     21 C1'        -0.6159   -0.9100    1.8769 C.3       1 GTP         0.2339
     22 N9         -1.7127   -1.6108    1.2130 N.pl3     1 GTP        -0.1765
     23 C8         -1.6311   -2.3341    0.0493 C.ar      1 GTP         0.4947
     24 N7         -2.7933   -2.8506   -0.3007 N.2       1 GTP        -0.5802
     25 C5         -3.6607   -2.4436    0.6786 C.ar      1 GTP         0.2279
     26 C6         -5.0651   -2.7506    0.7505 C.ar      1 GTP         0.6513
     27 O6         -5.6735   -3.4256   -0.0671 O.2       1 GTP        -0.5111
     28 N1         -5.6834   -2.1585    1.9182 N.pl3     1 GTP        -0.4713
     29 C2         -5.0007   -1.3738    2.8765 C.ar      1 GTP         0.5256
     30 N2         -5.6847   -0.8521    3.9640 N.pl3     1 GTP        -0.8665
     31 N3         -3.6227   -1.1271    2.7212 N.pl3     1 GTP        -0.5398
     32 C4         -3.0090   -1.6802    1.6149 C.ar      1 GTP        -0.0275
     33 HOG3       -5.3991    5.6820   -0.8641 H         1 GTP         0.4161
     34 H5'        -1.7771    2.7849    2.1387 H         1 GTP         0.0348
     35 H5''       -1.1654    2.0541    0.6320 H         1 GTP         0.0348
     36 H4'         0.0403    1.7078    3.4343 H         1 GTP         0.1215
     37 H3'         1.5907    1.4859    1.1353 H         1 GTP         0.0576
     38 HO3'        2.6839   -0.1150    2.2479 H         1 GTP         0.3842
     39 H2'        -0.0017    0.0018    0.0005 H         1 GTP         0.0252
     40 HO2'        2.0953   -0.9375    0.0709 H         1 GTP         0.4224
     41 H1'        -0.1998   -1.6319    2.6178 H         1 GTP         0.0745
     42 H8         -0.7029   -2.4474   -0.4941 H         1 GTP         0.1522
     43 HN1        -6.6800   -2.3183    2.0594 H         1 GTP         0.3518
     44 HN21       -5.1660   -0.3153    4.5987 H         1 GTP         0.4761
     45 HN22       -6.6415   -1.0545    4.0252 H         1 GTP         0.4761
     46 H46        -3.1256   -0.5638    3.4080 H         1 GTP         0.5030
@<TRIPOS>BOND
     1    1    2 2
     2    1    3 1
     3    1    4 1
     4    1    5 1
     5    4   33 1
     6    5    6 1
     7    6    7 2
     8    6    8 1
     9    6    9 1
    10    9   10 1
    11   10   11 2
    12   10   12 1
    13   10   13 1
    14   13   14 1
    15   14   15 1
    16   14   34 1
    17   14   35 1
    18   15   16 1
    19   15   17 1
    20   15   36 1
    21   16   21 1
    22   17   18 1
    23   17   19 1
    24   17   37 1
    25   18   38 1
    26   19   20 1
    27   19   21 1
    28   19   39 1
    29   20   40 1
    30   21   22 1
    31   21   41 1
    32   22   23 ar
    33   22   32 ar
    34   23   24 ar
    35   23   42 1
    36   24   25 ar
    37   25   26 ar
    38   25   32 ar
    39   26   27 2
    40   26   28 ar
    41   28   29 ar
    42   28   43 1
    43   29   30 1
    44   29   31 ar
    45   30   44 1
    46   30   45 1
    47   31   32 ar
    48   31   46 1
@<TRIPOS>SUBSTRUCTURE
     1 GTP         1 GROUP 0 A     ****
@<TRIPOS>MOLECULE
[[[5-(2-amino-6-oxo-1,3-dihydropurin-2-ylium-9-yl)-3,4-dihydroxy-tetrahydrofuran-2-yl]methoxy-oxido-phosphoryl]oxy-oxido-phosphoryl] hydrogen phosphate
   46    48     1     0     0
SMALL
USER_CHARGES

@<TRIPOS>ATOM
      1 PG          2.3109    5.6500   -4.7794 P.3       1 GTP         1.5400
      2 O1G         0.8030    5.6321   -4.8944 O.co2     1 GTP        -0.8909
      3 O2G         3.1049    6.8800   -5.1594 O.co2     1 GTP        -0.8909
      4 O3G         2.9090    4.3724   -5.6016 O.3       1 GTP        -0.7980
      5 O3B         2.7341    5.1924   -3.2710 O.3       1 GTP        -0.7612
      6 PB          2.4910    5.9452   -1.8427 P.3       1 GTP         1.5847
      7 O1B         3.2872    7.2310   -1.8307 O.co2     1 GTP        -0.8859
      8 O2B         1.0135    5.9258   -1.5201 O.co2     1 GTP        -0.8859
      9 O3A         3.1962    4.8578   -0.8502 O.3       1 GTP        -0.7486
     10 PA          4.7368    4.3145   -0.8169 P.3       1 GTP         1.5001
     11 O1A         5.0163    3.5650   -2.1016 O.co2     1 GTP        -0.8487
     12 O2A         5.6373    5.4398   -0.3559 O.co2     1 GTP        -0.8487
     13 O5'         4.6405    3.2699    0.4378 O.3       1 GTP        -0.5474
     14 C5'         4.0922    1.9801    0.2227 C.3       1 GTP         0.2547
     15 C4'         2.5944    2.0310    0.4653 C.3       1 GTP         0.0926
     16 O4'         1.9327    2.5740   -0.6889 O.3       1 GTP        -0.3593
     17 C3'         1.9685    0.6634    0.6767 C.3       1 GTP         0.0907
     18 O3'         2.1425    0.1975    1.9977 O.3       1 GTP        -0.5209
     19 C2'         0.5176    0.9128    0.3099 C.3       1 GTP         0.0305
     20 O2'        -0.2103    1.4454    1.4152 O.3       1 GTP        -0.5978
     21 C1'         0.6219    1.9765   -0.7844 C.3       1 GTP         0.2339
     22 N9          0.4237    1.4496   -2.1357 N.pl3     1 GTP        -0.1765
     23 C8          1.3988    0.9691   -2.9736 C.ar      1 GTP         0.4947
     24 N7          0.9092    0.5634   -4.1293 N.2       1 GTP        -0.5802
     25 C5         -0.4383    0.7914   -4.0325 C.ar      1 GTP         0.2279
     26 C6         -1.4217    0.5138   -5.0461 C.ar      1 GTP         0.6513
     27 O6         -1.1759    0.0306   -6.1417 O.2       1 GTP        -0.5111
     28 N1         -2.7543    0.8794   -4.6134 N.pl3     1 GTP        -0.4713
     29 C2         -3.0626    1.4402   -3.3523 C.ar      1 GTP         0.5256
     30 N2         -4.3747    1.7544   -3.0321 N.pl3     1 GTP        -0.8665
     31 N3         -2.0304    1.6759   -2.4233 N.pl3     1 GTP        -0.5398
     32 C4         -0.7497    1.3366   -2.8118 C.ar      1 GTP        -0.0275
     33 HOG3        3.8814    4.2440   -5.6220 H         1 GTP         0.4161
     34 H5'         4.3028    1.6728   -0.8066 H         1 GTP         0.0348
     35 H5''        4.5677    1.2738    0.9106 H         1 GTP         0.0348
     36 H4'         2.3752    2.7029    1.3156 H         1 GTP         0.1215
     37 H3'         2.4336   -0.1217   -0.0015 H         1 GTP         0.0576
     38 HO3'        1.7160   -0.6716    2.0397 H         1 GTP         0.3842
     39 H2'         0.0316    0.0155   -0.0339 H         1 GTP         0.0252
     40 HO2'       -1.1270    1.5823    1.1180 H         1 GTP         0.4224
     41 H1'        -0.1474    2.7798   -0.6651 H         1 GTP         0.0745
     42 H8          2.4413    0.9409   -2.6872 H         1 GTP         0.1522
     43 HN1        -3.5236    0.7214   -5.2629 H         1 GTP         0.3518
     44 HN21       -4.5350    2.1409   -2.1461 H         1 GTP         0.4761
     45 HN22       -5.0542    1.5695   -3.7134 H         1 GTP         0.4761
     46 H46        -2.2462    2.0786   -1.5136 H         1 GTP         0.5030
@<TRIPOS>BOND
     1    1    2 2
     2    1    3 1
     3    1    4 1
     4    1    5 1
     5    4   33 1
     6    5    6 1
     7    6    7 2
     8    6    8 1
     9    6    9 1
    10    9   10 1
    11   10   11 2
    12   10   12 1
    13   10   13 1
    14   13   14 1
    15   14   15 1
    16   14   34 1
    17   14   35 1
    18   15   16 1
    19   15   17 1
    20   15   36 1
    21   16   21 1
    22   17   18 1
    23   17   19 1
    24   17   37 1
    25   18   38 1
    26   19   20 1
    27   19   21 1
    28   19   39 1
    29   20   40 1
    30   21   22 1
    31   21   41 1
    32   22   23 ar
    33   22   32 ar
    34   23   24 ar
    35   23   42 1
    36   24   25 ar
    37   25   26 ar
    38   25   32 ar
    39   26   27 2
    40   26   28 ar
    41   28   29 ar
    42   28   43 1
    43   29   30 1
    44   29   31 ar
    45   30   44 1
    46   30   45 1
    47   31   32 ar
    48   31   46 1
@<TRIPOS>SUBSTRUCTURE
     1 GTP         1 GROUP 0 A     ****
@<TRIPOS>MOLECULE
[[[5-(2-amino-6-oxo-1,3-dihydropurin-2-ylium-9-yl)-3,4-dihydroxy-tetrahydrofuran-2-yl]methoxy-oxido-phosphoryl]oxy-oxido-phosphoryl] hydrogen phosphate
   46    48     1     0     0
SMALL
USER_CHARGES

@<TRIPOS>ATOM
      1 PG         10.1417    1.0691   -1.5329 P.3       1 GTP         1.5400
      2 O1G        10.6368    0.7034   -0.1514 O.co2     1 GTP        -0.8909
      3 O2G        10.2072    0.0746   -2.6706 O.co2     1 GTP        -0.8909
      4 O3G        10.8854    2.4445   -2.0032 O.3       1 GTP        -0.7980
      5 O3B         8.6172    1.6404   -1.4168 O.3       1 GTP        -0.7612
      6 PB          7.6631    2.3143   -2.5576 P.3       1 GTP         1.5847
      7 O1B         8.2759    3.6284   -2.9877 O.co2     1 GTP        -0.8859
      8 O2B         7.2745    1.2547   -3.5645 O.co2     1 GTP        -0.8859
      9 O3A         6.3356    2.6020   -1.6521 O.3       1 GTP        -0.7486
     10 PA          6.1593    3.5241   -0.3148 P.3       1 GTP         1.5001
     11 O1A         6.9890    2.9266    0.8010 O.co2     1 GTP        -0.8487
     12 O2A         6.3061    4.9783   -0.7063 O.co2     1 GTP        -0.8487
     13 O5'         4.5670    3.2937   -0.0211 O.3       1 GTP        -0.5474
     14 C5'         4.0922    1.9801    0.2227 C.3       1 GTP         0.2547
     15 C4'         2.5944    2.0310    0.4653 C.3       1 GTP         0.0926
     16 O4'         1.9327    2.5740   -0.6889 O.3       1 GTP        -0.3593
     17 C3'         1.9685    0.6634    0.6767 C.3       1 GTP         0.0907
     18 O3'         2.1425    0.1975    1.9977 O.3       1 GTP        -0.5209
     19 C2'         0.5176    0.9128    0.3099 C.3       1 GTP         0.0305
     20 O2'        -0.2103    1.4454    1.4152 O.3       1 GTP        -0.5978
     21 C1'         0.6219    1.9765   -0.7844 C.3       1 GTP         0.2339
     22 N9          0.4237    1.4496   -2.1357 N.pl3     1 GTP        -0.1765
     23 C8          1.1824    0.4874   -2.7540 C.ar      1 GTP         0.4947
     24 N7          0.7559    0.2220   -3.9737 N.2       1 GTP        -0.5802
     25 C5         -0.3234    1.0475   -4.1492 C.ar      1 GTP         0.2279
     26 C6         -1.1420    1.1360   -5.3297 C.ar      1 GTP         0.6513
     27 O6         -0.9760    0.4743   -6.3440 O.2       1 GTP        -0.5111
     28 N1         -2.1989    2.1138   -5.1762 N.pl3     1 GTP        -0.4713
     29 C2         -2.4100    2.8911   -4.0137 C.ar      1 GTP         0.5256
     30 N2         -3.4547    3.8016   -3.9653 N.pl3     1 GTP        -0.8665
     31 N3         -1.5548    2.7339   -2.9056 N.pl3     1 GTP        -0.5398
     32 C4         -0.5379    1.8078   -3.0266 C.ar      1 GTP        -0.0275
     33 HOG3       10.6686    2.8143   -2.8855 H         1 GTP         0.4161
     34 H5'         4.3179    1.3548   -0.6470 H         1 GTP         0.0348
     35 H5''        4.6083    1.5737    1.0983 H         1 GTP         0.0348
     36 H4'         2.3752    2.7029    1.3156 H         1 GTP         0.1215
     37 H3'         2.4336   -0.1217   -0.0015 H         1 GTP         0.0576
     38 HO3'        1.7160   -0.6716    2.0397 H         1 GTP         0.3842
     39 H2'         0.0316    0.0155   -0.0339 H         1 GTP         0.0252
     40 HO2'       -0.1608    0.7921    2.1351 H         1 GTP         0.4224
     41 H1'        -0.1474    2.7798   -0.6651 H         1 GTP         0.0745
     42 H8          2.0279    0.0203   -2.2675 H         1 GTP         0.1522
     43 HN1        -2.8350    2.2514   -5.9606 H         1 GTP         0.3518
     44 HN21       -3.5576    4.3154   -3.1374 H         1 GTP         0.4761
     45 HN22       -4.0202    3.8709   -4.7625 H         1 GTP         0.4761
     46 H46        -1.7022    3.2899   -2.0658 H         1 GTP         0.5030
@<TRIPOS>BOND
     1    1    2 2
     2    1    3 1
     3    1    4 1
     4    1    5 1
     5    4   33 1
     6    5    6 1
     7    6    7 2
     8    6    8 1
     9    6    9 1
    10    9   10 1
    11   10   11 2
    12   10   12 1
    13   10   13 1
    14   13   14 1
    15   14   15 1
    16   14   34 1
    17   14   35 1
    18   15   16 1
    19   15   17 1
    20   15   36 1
    21   16   21 1
    22   17   18 1
    23   17   19 1
    24   17   37 1
    25   18   38 1
    26   19   20 1
    27   19   21 1
    28   19   39 1
    29   20   40 1
    30   21   22 1
    31   21   41 1
    32   22   23 ar
    33   22   32 ar
    34   23   24 ar
    35   23   42 1
    36   24   25 ar
    37   25   26 ar
    38   25   32 ar
    39   26   27 2
    40   26   28 ar
    41   28   29 ar
    42   28   43 1
    43   29   30 1
    44   29   31 ar
    45   30   44 1
    46   30   45 1
    47   31   32 ar
    48   31   46 1
@<TRIPOS>SUBSTRUCTURE
     1 GTP         1 GROUP 0 A     ****
@<TRIPOS>MOLECULE
[[[5-(2-amino-6-oxo-1,3-dihydropurin-2-ylium-9-yl)-3,4-dihydroxy-tetrahydrofuran-2-yl]methoxy-oxido-phosphoryl]oxy-oxido-phosphoryl] hydrogen phosphate
   46    48     1     0     0
SMALL
USER_CHARGES

@<TRIPOS>ATOM
      1 PG          1.9261    8.1328    1.9167 P.3       1 GTP         1.5400
      2 O1G         1.3017    9.2962    2.6544 O.co2     1 GTP        -0.8909
      3 O2G         3.4121    7.8644    2.0041 O.co2     1 GTP        -0.8909
      4 O3G         1.5094    8.2339    0.3412 O.3       1 GTP        -0.7980
      5 O3B         1.1185    6.7668    2.2983 O.3       1 GTP        -0.7612
      6 PB          1.0195    5.9733    3.7217 P.3       1 GTP         1.5847
      7 O1B         2.3880    5.4328    4.0717 O.co2     1 GTP        -0.8859
      8 O2B         0.2253    6.8109    4.6991 O.co2     1 GTP        -0.8859
      9 O3A         0.0468    4.7431    3.2686 O.3       1 GTP        -0.7486
     10 PA         -1.4709    4.7755    2.6641 P.3       1 GTP         1.5001
     11 O1A        -2.4018    5.3379    3.7164 O.co2     1 GTP        -0.8487
     12 O2A        -1.4241    5.3590    1.2687 O.co2     1 GTP        -0.8487
     13 O5'        -1.7336    3.1724    2.4750 O.3       1 GTP        -0.5474
     14 C5'        -0.8811    2.4285    1.6206 C.3       1 GTP         0.2547
     15 C4'        -0.1994    1.3333    2.4288 C.3       1 GTP         0.0926
     16 O4'        -1.1285    0.2356    2.5840 O.3       1 GTP        -0.3593
     17 C3'         1.0324    0.7610    1.7344 C.3       1 GTP         0.0907
     18 O3'         1.9175    0.2377    2.7247 O.3       1 GTP        -0.5209
     19 C2'         0.4468   -0.3802    0.9263 C.3       1 GTP         0.0305
     20 O2'         1.3993   -1.3703    0.5961 O.3       1 GTP        -0.5978
     21 C1'        -0.6159   -0.9100    1.8769 C.3       1 GTP         0.2339
     22 N9         -1.7127   -1.6108    1.2130 N.pl3     1 GTP        -0.1765
     23 C8         -3.0389   -1.2578    1.2391 C.ar      1 GTP         0.4947
     24 N7         -3.7909   -2.0880    0.5425 N.2       1 GTP        -0.5802
     25 C5         -2.9127   -3.0150    0.0458 C.ar      1 GTP         0.2279
     26 C6         -3.2467   -4.1411   -0.7860 C.ar      1 GTP         0.6513
     27 O6         -4.3761   -4.4189   -1.1621 O.2       1 GTP        -0.5111
     28 N1         -2.0748   -4.9191   -1.1296 N.pl3     1 GTP        -0.4713
     29 C2         -0.7595   -4.6181   -0.7058 C.ar      1 GTP         0.5256
     30 N2          0.2985   -5.4268   -1.0920 N.pl3     1 GTP        -0.8665
     31 N3         -0.5304   -3.4919    0.1084 N.pl3     1 GTP        -0.5398
     32 C4         -1.6318   -2.7332    0.4512 C.ar      1 GTP        -0.0275
     33 HOG3        1.8396    7.5450   -0.2742 H         1 GTP         0.4161
     34 H5'        -1.4800    1.9927    0.8146 H         1 GTP         0.0348
     35 H5''       -0.1367    3.1040    1.1872 H         1 GTP         0.0348
     36 H4'         0.0403    1.7078    3.4343 H         1 GTP         0.1215
     37 H3'         1.5907    1.4859    1.1353 H         1 GTP         0.0576
     38 HO3'        2.1521    0.9800    3.3017 H         1 GTP         0.3842
     39 H2'        -0.0017    0.0018    0.0005 H         1 GTP         0.0252
     40 HO2'        1.7495   -1.7243    1.4324 H         1 GTP         0.4224
     41 H1'        -0.1998   -1.6319    2.6178 H         1 GTP         0.0745
     42 H8         -3.3933   -0.3909    1.7800 H         1 GTP         0.1522
     43 HN1        -2.2071   -5.7408   -1.7178 H         1 GTP         0.3518
     44 HN21        0.0848   -6.1964   -1.6597 H         1 GTP         0.4761
     45 HN22        1.1896   -5.1747   -0.7719 H         1 GTP         0.4761
     46 H46         0.4142   -3.2695    0.4160 H         1 GTP         0.5030
@<TRIPOS>BOND
     1    1    2 2
     2    1    3 1
     3    1    4 1
     4    1    5 1
     5    4   33 1
     6    5    6 1
     7    6    7 2
     8    6    8 1
     9    6    9 1
    10    9   10 1
    11   10   11 2
    12   10   12 1
    13   10   13 1
    14   13   14 1
    15   14   15 1
    16   14   34 1
    17   14   35 1
    18   15   16 1
    19   15   17 1
    20   15   36 1
    21   16   21 1
    22   17   18 1
    23   17   19 1
    24   17   37 1
    25   18   38 1
    26   19   20 1
    27   19   21 1
    28   19   39 1
    29   20   40 1
    30   21   22 1
    31   21   41 1
    32   22   23 ar
    33   22   32 ar
    34   23   24 ar
    35   23   42 1
    36   24   25 ar
    37   25   26 ar
    38   25   32 ar
    39   26   27 2
    40   26   28 ar
    41   28   29 ar
    42   28   43 1
    43   29   30 1
    44   29   31 ar
    45   30   44 1
    46   30   45 1
    47   31   32 ar
    48   31   46 1
@<TRIPOS>SUBSTRUCTURE
     1 GTP         1 GROUP 0 A     ****
@<TRIPOS>MOLECULE
[[[5-(2-amino-6-oxo-1,3-dihydropurin-2-ylium-9-yl)-3,4-dihydroxy-tetrahydrofuran-2-yl]methoxy-oxido-phosphoryl]oxy-oxido-phosphoryl] hydrogen phosphate
   46    48     1     0     0
SMALL
USER_CHARGES

@<TRIPOS>ATOM
      1 PG          6.1503    7.1021    4.5941 P.3       1 GTP         1.5400
      2 O1G         5.0759    7.3685    5.6248 O.co2     1 GTP        -0.8909
      3 O2G         7.5732    6.8064    5.0131 O.co2     1 GTP        -0.8909
      4 O3G         6.1696    8.3426    3.5326 O.3       1 GTP        -0.7980
      5 O3B         5.6396    5.9237    3.5870 O.3       1 GTP        -0.7612
      6 PB          5.3574    4.3433    3.8843 P.3       1 GTP         1.5847
      7 O1B         6.6678    3.6743    4.2345 O.co2     1 GTP        -0.8859
      8 O2B         4.1417    4.2185    4.7755 O.co2     1 GTP        -0.8859
      9 O3A         4.8880    3.8759    2.3923 O.3       1 GTP        -0.7486
     10 PA          5.6979    3.9301    0.9743 P.3       1 GTP         1.5001
     11 O1A         5.9554    5.3778    0.6161 O.co2     1 GTP        -0.8487
     12 O2A         6.8267    2.9235    1.0223 O.co2     1 GTP        -0.8487
     13 O5'         4.5670    3.2937   -0.0211 O.3       1 GTP        -0.5474
     14 C5'         4.0922    1.9801    0.2227 C.3       1 GTP         0.2547
     15 C4'         2.5944    2.0310    0.4653 C.3       1 GTP         0.0926
     16 O4'         1.9327    2.5740   -0.6889 O.3       1 GTP        -0.3593
     17 C3'         1.9685    0.6634    0.6767 C.3       1 GTP         0.0907
     18 O3'         2.1425    0.1975    1.9977 O.3       1 GTP        -0.5209
     19 C2'         0.5176    0.9128    0.3099 C.3       1 GTP         0.0305
     20 O2'        -0.2103    1.4454    1.4152 O.3       1 GTP        -0.5978
     21 C1'         0.6219    1.9765   -0.7844 C.3       1 GTP         0.2339
     22 N9          0.4237    1.4496   -2.1357 N.pl3     1 GTP        -0.1765
     23 C8          1.3988    0.9691   -2.9736 C.ar      1 GTP         0.4947
     24 N7          0.9092    0.5634   -4.1293 N.2       1 GTP        -0.5802
     25 C5         -0.4383    0.7914   -4.0325 C.ar      1 GTP         0.2279
     26 C6         -1.4217    0.5138   -5.0461 C.ar      1 GTP         0.6513
     27 O6         -1.1759    0.0306   -6.1417 O.2       1 GTP        -0.5111
     28 N1         -2.7543    0.8794   -4.6134 N.pl3     1 GTP        -0.4713
     29 C2         -3.0626    1.4402   -3.3523 C.ar      1 GTP         0.5256
     30 N2         -4.3747    1.7544   -3.0321 N.pl3     1 GTP        -0.8665
     31 N3         -2.0304    1.6759   -2.4233 N.pl3     1 GTP        -0.5398
     32 C4         -0.7497    1.3366   -2.8118 C.ar      1 GTP        -0.0275
     33 HOG3        6.8179    8.3175    2.7969 H         1 GTP         0.4161
     34 H5'         4.3179    1.3548   -0.6470 H         1 GTP         0.0348
     35 H5''        4.6083    1.5737    1.0983 H         1 GTP         0.0348
     36 H4'         2.3752    2.7029    1.3156 H         1 GTP         0.1215
     37 H3'         2.4336   -0.1217   -0.0015 H         1 GTP         0.0576
     38 HO3'        1.7160   -0.6716    2.0397 H         1 GTP         0.3842
     39 H2'         0.0316    0.0155   -0.0339 H         1 GTP         0.0252
     40 HO2'       -0.1608    0.7921    2.1351 H         1 GTP         0.4224
     41 H1'        -0.1474    2.7798   -0.6651 H         1 GTP         0.0745
     42 H8          2.4413    0.9409   -2.6872 H         1 GTP         0.1522
     43 HN1        -3.5236    0.7214   -5.2629 H         1 GTP         0.3518
     44 HN21       -4.5350    2.1409   -2.1461 H         1 GTP         0.4761
     45 HN22       -5.0542    1.5695   -3.7134 H         1 GTP         0.4761
     46 H46        -2.2462    2.0786   -1.5136 H         1 GTP         0.5030
@<TRIPOS>BOND
     1    1    2 2
     2    1    3 1
     3    1    4 1
     4    1    5 1
     5    4   33 1
     6    5    6 1
     7    6    7 2
     8    6    8 1
     9    6    9 1
    10    9   10 1
    11   10   11 2
    12   10   12 1
    13   10   13 1
    14   13   14 1
    15   14   15 1
    16   14   34 1
    17   14   35 1
    18   15   16 1
    19   15   17 1
    20   15   36 1
    21   16   21 1
    22   17   18 1
    23   17   19 1
    24   17   37 1
    25   18   38 1
    26   19   20 1
    27   19   21 1
    28   19   39 1
    29   20   40 1
    30   21   22 1
    31   21   41 1
    32   22   23 ar
    33   22   32 ar
    34   23   24 ar
    35   23   42 1
    36   24   25 ar
    37   25   26 ar
    38   25   32 ar
    39   26   27 2
    40   26   28 ar
    41   28   29 ar
    42   28   43 1
    43   29   30 1
    44   29   31 ar
    45   30   44 1
    46   30   45 1
    47   31   32 ar
    48   31   46 1
@<TRIPOS>SUBSTRUCTURE
     1 GTP         1 GROUP 0 A     ****
@<TRIPOS>MOLECULE
[[[5-(2-amino-6-oxo-1,3-dihydropurin-2-ylium-9-yl)-3,4-dihydroxy-tetrahydrofuran-2-yl]methoxy-oxido-phosphoryl]oxy-oxido-phosphoryl] hydrogen phosphate
   46    48     1     0     0
SMALL
USER_CHARGES

@<TRIPOS>ATOM
      1 PG          7.0164    5.7444   -0.3515 P.3       1 GTP         1.5400
      2 O1G         7.3811    4.6034   -1.2748 O.co2     1 GTP        -0.8909
      3 O2G         5.6675    6.4218   -0.4482 O.co2     1 GTP        -0.8909
      4 O3G         8.1787    6.8865   -0.4541 O.3       1 GTP        -0.7980
      5 O3B         7.2646    5.2781    1.1928 O.3       1 GTP        -0.7612
      6 PB          6.4917    4.1469    2.0809 P.3       1 GTP         1.5847
      7 O1B         7.1995    4.0073    3.4102 O.co2     1 GTP        -0.8859
      8 O2B         5.0010    4.3893    1.9992 O.co2     1 GTP        -0.8859
      9 O3A         6.7990    2.8353    1.1590 O.3       1 GTP        -0.7486
     10 PA          6.3565    1.2771    1.3734 P.3       1 GTP         1.5001
     11 O1A         6.8037    0.4744    0.1709 O.co2     1 GTP        -0.8487
     12 O2A         6.7306    0.8562    2.7779 O.co2     1 GTP        -0.8487
     13 O5'         4.7294    1.4427    1.3696 O.3       1 GTP        -0.5474
     14 C5'         4.0922    1.9801    0.2227 C.3       1 GTP         0.2547
     15 C4'         2.5944    2.0310    0.4653 C.3       1 GTP         0.0926
     16 O4'         1.9327    2.5740   -0.6889 O.3       1 GTP        -0.3593
     17 C3'         1.9685    0.6634    0.6767 C.3       1 GTP         0.0907
     18 O3'         2.1425    0.1975    1.9977 O.3       1 GTP        -0.5209
     19 C2'         0.5176    0.9128    0.3099 C.3       1 GTP         0.0305
     20 O2'        -0.2103    1.4454    1.4152 O.3       1 GTP        -0.5978
     21 C1'         0.6219    1.9765   -0.7844 C.3       1 GTP         0.2339
     22 N9          0.4237    1.4496   -2.1357 N.pl3     1 GTP        -0.1765
     23 C8          1.3988    0.9691   -2.9736 C.ar      1 GTP         0.4947
     24 N7          0.9092    0.5634   -4.1293 N.2       1 GTP        -0.5802
     25 C5         -0.4383    0.7914   -4.0325 C.ar      1 GTP         0.2279
     26 C6         -1.4217    0.5138   -5.0461 C.ar      1 GTP         0.6513
     27 O6         -1.1759    0.0306   -6.1417 O.2       1 GTP        -0.5111
     28 N1         -2.7543    0.8794   -4.6134 N.pl3     1 GTP        -0.4713
     29 C2         -3.0626    1.4402   -3.3523 C.ar      1 GTP         0.5256
     30 N2         -4.3747    1.7544   -3.0321 N.pl3     1 GTP        -0.8665
     31 N3         -2.0304    1.6759   -2.4233 N.pl3     1 GTP        -0.5398
     32 C4         -0.7497    1.3366   -2.8118 C.ar      1 GTP        -0.0275
     33 HOG3        8.0858    7.6974    0.0901 H         1 GTP         0.4161
     34 H5'         4.4843    2.9854    0.0380 H         1 GTP         0.0348
     35 H5''        4.3191    1.3446   -0.6392 H         1 GTP         0.0348
     36 H4'         2.3752    2.7029    1.3156 H         1 GTP         0.1215
     37 H3'         2.4336   -0.1217   -0.0015 H         1 GTP         0.0576
     38 HO3'        3.0987    0.1465    2.1461 H         1 GTP         0.3842
     39 H2'         0.0316    0.0155   -0.0339 H         1 GTP         0.0252
     40 HO2'       -0.1608    0.7921    2.1351 H         1 GTP         0.4224
     41 H1'        -0.1474    2.7798   -0.6651 H         1 GTP         0.0745
     42 H8          2.4413    0.9409   -2.6872 H         1 GTP         0.1522
     43 HN1        -3.5236    0.7214   -5.2629 H         1 GTP         0.3518
     44 HN21       -4.5350    2.1409   -2.1461 H         1 GTP         0.4761
     45 HN22       -5.0542    1.5695   -3.7134 H         1 GTP         0.4761
     46 H46        -2.2462    2.0786   -1.5136 H         1 GTP         0.5030
@<TRIPOS>BOND
     1    1    2 2
     2    1    3 1
     3    1    4 1
     4    1    5 1
     5    4   33 1
     6    5    6 1
     7    6    7 2
     8    6    8 1
     9    6    9 1
    10    9   10 1
    11   10   11 2
    12   10   12 1
    13   10   13 1
    14   13   14 1
    15   14   15 1
    16   14   34 1
    17   14   35 1
    18   15   16 1
    19   15   17 1
    20   15   36 1
    21   16   21 1
    22   17   18 1
    23   17   19 1
    24   17   37 1
    25   18   38 1
    26   19   20 1
    27   19   21 1
    28   19   39 1
    29   20   40 1
    30   21   22 1
    31   21   41 1
    32   22   23 ar
    33   22   32 ar
    34   23   24 ar
    35   23   42 1
    36   24   25 ar
    37   25   26 ar
    38   25   32 ar
    39   26   27 2
    40   26   28 ar
    41   28   29 ar
    42   28   43 1
    43   29   30 1
    44   29   31 ar
    45   30   44 1
    46   30   45 1
    47   31   32 ar
    48   31   46 1
@<TRIPOS>SUBSTRUCTURE
     1 GTP         1 GROUP 0 A     ****
@<TRIPOS>MOLECULE
[[[5-(2-amino-6-oxo-1,3-dihydropurin-2-ylium-9-yl)-3,4-dihydroxy-tetrahydrofuran-2-yl]methoxy-oxido-phosphoryl]oxy-oxido-phosphoryl] hydrogen phosphate
   46    48     1     0     0
SMALL
USER_CHARGES

@<TRIPOS>ATOM
      1 PG         -0.9639    8.7081    0.5878 P.3       1 GTP         1.5400
      2 O1G        -2.0989    9.5846    1.0685 O.co2     1 GTP        -0.8909
      3 O2G         0.4727    9.1691    0.6939 O.co2     1 GTP        -0.8909
      4 O3G        -1.2584    8.2808   -0.9603 O.3       1 GTP        -0.7980
      5 O3B        -1.0997    7.2363    1.2799 O.3       1 GTP        -0.7612
      6 PB         -0.9420    6.7977    2.8447 P.3       1 GTP         1.5847
      7 O1B         0.4918    7.0238    3.2695 O.co2     1 GTP        -0.8859
      8 O2B        -2.1006    7.3643    3.6349 O.co2     1 GTP        -0.8859
      9 O3A        -1.2210    5.1961    2.6972 O.3       1 GTP        -0.7486
     10 PA         -2.5400    4.4095    2.1393 P.3       1 GTP         1.5001
     11 O1A        -3.7027    4.6909    3.0663 O.co2     1 GTP        -0.8487
     12 O2A        -2.6521    4.6480    0.6493 O.co2     1 GTP        -0.8487
     13 O5'        -2.0401    2.8620    2.3128 O.3       1 GTP        -0.5474
     14 C5'        -0.8811    2.4285    1.6206 C.3       1 GTP         0.2547
     15 C4'        -0.1994    1.3333    2.4288 C.3       1 GTP         0.0926
     16 O4'        -1.1285    0.2356    2.5840 O.3       1 GTP        -0.3593
     17 C3'         1.0324    0.7610    1.7344 C.3       1 GTP         0.0907
     18 O3'         1.9175    0.2377    2.7247 O.3       1 GTP        -0.5209
     19 C2'         0.4468   -0.3802    0.9263 C.3       1 GTP         0.0305
     20 O2'         1.3993   -1.3703    0.5961 O.3       1 GTP        -0.5978
     21 C1'        -0.6159   -0.9100    1.8769 C.3       1 GTP         0.2339
     22 N9         -1.7127   -1.6108    1.2130 N.pl3     1 GTP        -0.1765
     23 C8         -1.6311   -2.3341    0.0493 C.ar      1 GTP         0.4947
     24 N7         -2.7933   -2.8506   -0.3007 N.2       1 GTP        -0.5802
     25 C5         -3.6607   -2.4436    0.6786 C.ar      1 GTP         0.2279
     26 C6         -5.0651   -2.7506    0.7505 C.ar      1 GTP         0.6513
     27 O6         -5.6735   -3.4256   -0.0671 O.2       1 GTP        -0.5111
     28 N1         -5.6834   -2.1585    1.9182 N.pl3     1 GTP        -0.4713
     29 C2         -5.0007   -1.3738    2.8765 C.ar      1 GTP         0.5256
     30 N2         -5.6847   -0.8521    3.9640 N.pl3     1 GTP        -0.8665
     31 N3         -3.6227   -1.1271    2.7212 N.pl3     1 GTP        -0.5398
     32 C4         -3.0090   -1.6802    1.6149 C.ar      1 GTP        -0.0275
     33 HOG3       -0.6077    7.7070   -1.4181 H         1 GTP         0.4161
     34 H5'        -1.1767    2.0502    0.6368 H         1 GTP         0.0348
     35 H5''       -0.2080    3.2814    1.4876 H         1 GTP         0.0348
     36 H4'         0.0403    1.7078    3.4343 H         1 GTP         0.1215
     37 H3'         1.5907    1.4859    1.1353 H         1 GTP         0.0576
     38 HO3'        2.6839   -0.1150    2.2479 H         1 GTP         0.3842
     39 H2'        -0.0017    0.0018    0.0005 H         1 GTP         0.0252
     40 HO2'        2.0953   -0.9375    0.0709 H         1 GTP         0.4224
     41 H1'        -0.1998   -1.6319    2.6178 H         1 GTP         0.0745
     42 H8         -0.7029   -2.4474   -0.4941 H         1 GTP         0.1522
     43 HN1        -6.6800   -2.3183    2.0594 H         1 GTP         0.3518
     44 HN21       -5.1660   -0.3153    4.5987 H         1 GTP         0.4761
     45 HN22       -6.6415   -1.0545    4.0252 H         1 GTP         0.4761
     46 H46        -3.1256   -0.5638    3.4080 H         1 GTP         0.5030
@<TRIPOS>BOND
     1    1    2 2
     2    1    3 1
     3    1    4 1
     4    1    5 1
     5    4   33 1
     6    5    6 1
     7    6    7 2
     8    6    8 1
     9    6    9 1
    10    9   10 1
    11   10   11 2
    12   10   12 1
    13   10   13 1
    14   13   14 1
    15   14   15 1
    16   14   34 1
    17   14   35 1
    18   15   16 1
    19   15   17 1
    20   15   36 1
    21   16   21 1
    22   17   18 1
    23   17   19 1
    24   17   37 1
    25   18   38 1
    26   19   20 1
    27   19   21 1
    28   19   39 1
    29   20   40 1
    30   21   22 1
    31   21   41 1
    32   22   23 ar
    33   22   32 ar
    34   23   24 ar
    35   23   42 1
    36   24   25 ar
    37   25   26 ar
    38   25   32 ar
    39   26   27 2
    40   26   28 ar
    41   28   29 ar
    42   28   43 1
    43   29   30 1
    44   29   31 ar
    45   30   44 1
    46   30   45 1
    47   31   32 ar
    48   31   46 1
@<TRIPOS>SUBSTRUCTURE
     1 GTP         1 GROUP 0 A     ****
@<TRIPOS>MOLECULE
[[[5-(2-amino-6-oxo-1,3-dihydropurin-2-ylium-9-yl)-3,4-dihydroxy-tetrahydrofuran-2-yl]methoxy-oxido-phosphoryl]oxy-oxido-phosphoryl] hydrogen phosphate
   46    48     1     0     0
SMALL
USER_CHARGES

@<TRIPOS>ATOM
      1 PG         10.3943    0.6914    0.8658 P.3       1 GTP         1.5400
      2 O1G        10.6721    0.4471    2.3323 O.co2     1 GTP        -0.8909
      3 O2G        10.4729   -0.4367   -0.1386 O.co2     1 GTP        -0.8909
      4 O3G        11.3520    1.9102    0.3525 O.3       1 GTP        -0.7980
      5 O3B         8.9486    1.4337    0.7155 O.3       1 GTP        -0.7612
      6 PB          8.3906    2.7915    1.4302 P.3       1 GTP         1.5847
      7 O1B         8.2694    2.5420    2.9170 O.co2     1 GTP        -0.8859
      8 O2B         9.1483    3.9822    0.8863 O.co2     1 GTP        -0.8859
      9 O3A         6.9017    2.8457    0.7631 O.3       1 GTP        -0.7486
     10 PA          5.6979    3.9301    0.9743 P.3       1 GTP         1.5001
     11 O1A         5.2283    3.8619    2.4113 O.co2     1 GTP        -0.8487
     12 O2A         6.1140    5.2436    0.3487 O.co2     1 GTP        -0.8487
     13 O5'         4.5670    3.2937   -0.0211 O.3       1 GTP        -0.5474
     14 C5'         4.0922    1.9801    0.2227 C.3       1 GTP         0.2547
     15 C4'         2.5944    2.0310    0.4653 C.3       1 GTP         0.0926
     16 O4'         1.9327    2.5740   -0.6889 O.3       1 GTP        -0.3593
     17 C3'         1.9685    0.6634    0.6767 C.3       1 GTP         0.0907
     18 O3'         2.1425    0.1975    1.9977 O.3       1 GTP        -0.5209
     19 C2'         0.5176    0.9128    0.3099 C.3       1 GTP         0.0305
     20 O2'        -0.2103    1.4454    1.4152 O.3       1 GTP        -0.5978
     21 C1'         0.6219    1.9765   -0.7844 C.3       1 GTP         0.2339
     22 N9          0.4237    1.4496   -2.1357 N.pl3     1 GTP        -0.1765
     23 C8          1.3988    0.9691   -2.9736 C.ar      1 GTP         0.4947
     24 N7          0.9092    0.5634   -4.1293 N.2       1 GTP        -0.5802
     25 C5         -0.4383    0.7914   -4.0325 C.ar      1 GTP         0.2279
     26 C6         -1.4217    0.5138   -5.0461 C.ar      1 GTP         0.6513
     27 O6         -1.1759    0.0306   -6.1417 O.2       1 GTP        -0.5111
     28 N1         -2.7543    0.8794   -4.6134 N.pl3     1 GTP        -0.4713
     29 C2         -3.0626    1.4402   -3.3523 C.ar      1 GTP         0.5256
     30 N2         -4.3747    1.7544   -3.0321 N.pl3     1 GTP        -0.8665
     31 N3         -2.0304    1.6759   -2.4233 N.pl3     1 GTP        -0.5398
     32 C4         -0.7497    1.3366   -2.8118 C.ar      1 GTP        -0.0275
     33 HOG3       11.2892    2.1899   -0.5856 H         1 GTP         0.4161
     34 H5'         4.3179    1.3548   -0.6470 H         1 GTP         0.0348
     35 H5''        4.6083    1.5737    1.0983 H         1 GTP         0.0348
     36 H4'         2.3752    2.7029    1.3156 H         1 GTP         0.1215
     37 H3'         2.4336   -0.1217   -0.0015 H         1 GTP         0.0576
     38 HO3'        1.7160   -0.6716    2.0397 H         1 GTP         0.3842
     39 H2'         0.0316    0.0155   -0.0339 H         1 GTP         0.0252
     40 HO2'       -0.1608    0.7921    2.1351 H         1 GTP         0.4224
     41 H1'        -0.1474    2.7798   -0.6651 H         1 GTP         0.0745
     42 H8          2.4413    0.9409   -2.6872 H         1 GTP         0.1522
     43 HN1        -3.5236    0.7214   -5.2629 H         1 GTP         0.3518
     44 HN21       -4.5350    2.1409   -2.1461 H         1 GTP         0.4761
     45 HN22       -5.0542    1.5695   -3.7134 H         1 GTP         0.4761
     46 H46        -2.2462    2.0786   -1.5136 H         1 GTP         0.5030
@<TRIPOS>BOND
     1    1    2 2
     2    1    3 1
     3    1    4 1
     4    1    5 1
     5    4   33 1
     6    5    6 1
     7    6    7 2
     8    6    8 1
     9    6    9 1
    10    9   10 1
    11   10   11 2
    12   10   12 1
    13   10   13 1
    14   13   14 1
    15   14   15 1
    16   14   34 1
    17   14   35 1
    18   15   16 1
    19   15   17 1
    20   15   36 1
    21   16   21 1
    22   17   18 1
    23   17   19 1
    24   17   37 1
    25   18   38 1
    26   19   20 1
    27   19   21 1
    28   19   39 1
    29   20   40 1
    30   21   22 1
    31   21   41 1
    32   22   23 ar
    33   22   32 ar
    34   23   24 ar
    35   23   42 1
    36   24   25 ar
    37   25   26 ar
    38   25   32 ar
    39   26   27 2
    40   26   28 ar
    41   28   29 ar
    42   28   43 1
    43   29   30 1
    44   29   31 ar
    45   30   44 1
    46   30   45 1
    47   31   32 ar
    48   31   46 1
@<TRIPOS>SUBSTRUCTURE
     1 GTP         1 GROUP 0 A     ****
@<TRIPOS>MOLECULE
[[[5-(2-amino-6-oxo-1,3-dihydropurin-2-ylium-9-yl)-3,4-dihydroxy-tetrahydrofuran-2-yl]methoxy-oxido-phosphoryl]oxy-oxido-phosphoryl] hydrogen phosphate
   46    48     1     0     0
SMALL
USER_CHARGES

@<TRIPOS>ATOM
      1 PG         -5.2065    6.7567   -0.4646 P.3       1 GTP         1.5400
      2 O1G        -6.2205    6.8414    0.6544 O.co2     1 GTP        -0.8909
      3 O2G        -4.8061    7.9885   -1.2456 O.co2     1 GTP        -0.8909
      4 O3G        -5.6929    5.6094   -1.5196 O.3       1 GTP        -0.7980
      5 O3B        -3.8596    6.0233    0.0936 O.3       1 GTP        -0.7612
      6 PB         -2.7767    6.5305    1.2053 P.3       1 GTP         1.5847
      7 O1B        -2.0624    7.7495    0.6654 O.co2     1 GTP        -0.8859
      8 O2B        -3.4341    6.5366    2.5674 O.co2     1 GTP        -0.8859
      9 O3A        -1.7628    5.2512    1.1860 O.3       1 GTP        -0.7486
     10 PA         -0.3962    4.9846    2.0409 P.3       1 GTP         1.5001
     11 O1A         0.6371    6.0152    1.6404 O.co2     1 GTP        -0.8487
     12 O2A        -0.7667    4.7715    3.4925 O.co2     1 GTP        -0.8487
     13 O5'         0.0178    3.5131    1.4595 O.3       1 GTP        -0.5474
     14 C5'        -0.8811    2.4285    1.6206 C.3       1 GTP         0.2547
     15 C4'        -0.1994    1.3333    2.4288 C.3       1 GTP         0.0926
     16 O4'        -1.1285    0.2356    2.5840 O.3       1 GTP        -0.3593
     17 C3'         1.0324    0.7610    1.7344 C.3       1 GTP         0.0907
     18 O3'         1.9175    0.2377    2.7247 O.3       1 GTP        -0.5209
     19 C2'         0.4468   -0.3802    0.9263 C.3       1 GTP         0.0305
     20 O2'         1.3993   -1.3703    0.5961 O.3       1 GTP        -0.5978
     21 C1'        -0.6159   -0.9100    1.8769 C.3       1 GTP         0.2339
     22 N9         -1.7127   -1.6108    1.2130 N.pl3     1 GTP        -0.1765
     23 C8         -3.0389   -1.2578    1.2391 C.ar      1 GTP         0.4947
     24 N7         -3.7909   -2.0880    0.5425 N.2       1 GTP        -0.5802
     25 C5         -2.9127   -3.0150    0.0458 C.ar      1 GTP         0.2279
     26 C6         -3.2467   -4.1411   -0.7860 C.ar      1 GTP         0.6513
     27 O6         -4.3761   -4.4189   -1.1621 O.2       1 GTP        -0.5111
     28 N1         -2.0748   -4.9191   -1.1296 N.pl3     1 GTP        -0.4713
     29 C2         -0.7595   -4.6181   -0.7058 C.ar      1 GTP         0.5256
     30 N2          0.2985   -5.4268   -1.0920 N.pl3     1 GTP        -0.8665
     31 N3         -0.5304   -3.4919    0.1084 N.pl3     1 GTP        -0.5398
     32 C4         -1.6318   -2.7332    0.4512 C.ar      1 GTP        -0.0275
     33 HOG3       -5.1359    5.4335   -2.3076 H         1 GTP         0.4161
     34 H5'        -1.7771    2.7849    2.1387 H         1 GTP         0.0348
     35 H5''       -1.1654    2.0541    0.6320 H         1 GTP         0.0348
     36 H4'         0.0403    1.7078    3.4343 H         1 GTP         0.1215
     37 H3'         1.5907    1.4859    1.1353 H         1 GTP         0.0576
     38 HO3'        2.1521    0.9800    3.3017 H         1 GTP         0.3842
     39 H2'        -0.0017    0.0018    0.0005 H         1 GTP         0.0252
     40 HO2'        2.0953   -0.9375    0.0709 H         1 GTP         0.4224
     41 H1'        -0.1998   -1.6319    2.6178 H         1 GTP         0.0745
     42 H8         -3.3933   -0.3909    1.7800 H         1 GTP         0.1522
     43 HN1        -2.2071   -5.7408   -1.7178 H         1 GTP         0.3518
     44 HN21        1.1896   -5.1751   -0.7715 H         1 GTP         0.4761
     45 HN22        0.0846   -6.1966   -1.6593 H         1 GTP         0.4761
     46 H46         0.4142   -3.2695    0.4160 H         1 GTP         0.5030
@<TRIPOS>BOND
     1    1    2 2
     2    1    3 1
     3    1    4 1
     4    1    5 1
     5    4   33 1
     6    5    6 1
     7    6    7 2
     8    6    8 1
     9    6    9 1
    10    9   10 1
    11   10   11 2
    12   10   12 1
    13   10   13 1
    14   13   14 1
    15   14   15 1
    16   14   34 1
    17   14   35 1
    18   15   16 1
    19   15   17 1
    20   15   36 1
    21   16   21 1
    22   17   18 1
    23   17   19 1
    24   17   37 1
    25   18   38 1
    26   19   20 1
    27   19   21 1
    28   19   39 1
    29   20   40 1
    30   21   22 1
    31   21   41 1
    32   22   23 ar
    33   22   32 ar
    34   23   24 ar
    35   23   42 1
    36   24   25 ar
    37   25   26 ar
    38   25   32 ar
    39   26   27 2
    40   26   28 ar
    41   28   29 ar
    42   28   43 1
    43   29   30 1
    44   29   31 ar
    45   30   44 1
    46   30   45 1
    47   31   32 ar
    48   31   46 1
@<TRIPOS>SUBSTRUCTURE
     1 GTP         1 GROUP 0 A     ****
@<TRIPOS>MOLECULE
[[[5-(2-amino-6-oxo-1,3-dihydropurin-2-ylium-9-yl)-3,4-dihydroxy-tetrahydrofuran-2-yl]methoxy-oxido-phosphoryl]oxy-oxido-phosphoryl] hydrogen phosphate
   46    48     1     0     0
SMALL
USER_CHARGES

@<TRIPOS>ATOM
      1 PG         -4.0398    1.7974   -1.9395 P.3       1 GTP         1.5400
      2 O1G        -3.0866    2.9354   -2.2290 O.co2     1 GTP        -0.8909
      3 O2G        -3.5317    0.3836   -1.7636 O.co2     1 GTP        -0.8909
      4 O3G        -5.2034    1.7913   -3.0848 O.3       1 GTP        -0.7980
      5 O3B        -4.9626    2.1917   -0.6524 O.3       1 GTP        -0.7612
      6 PB         -4.5418    2.4029    0.9109 P.3       1 GTP         1.5847
      7 O1B        -5.7495    2.8972    1.6755 O.co2     1 GTP        -0.8859
      8 O2B        -3.7483    1.2018    1.3747 O.co2     1 GTP        -0.8859
      9 O3A        -3.4727    3.6234    0.7318 O.3       1 GTP        -0.7486
     10 PA         -2.5926    4.4187    1.8556 P.3       1 GTP         1.5001
     11 O1A        -1.6707    5.3914    1.1526 O.co2     1 GTP        -0.8487
     12 O2A        -3.5190    4.8780    2.9603 O.co2     1 GTP        -0.8487
     13 O5'        -1.7336    3.1724    2.4750 O.3       1 GTP        -0.5474
     14 C5'        -0.8811    2.4285    1.6206 C.3       1 GTP         0.2547
     15 C4'        -0.1994    1.3333    2.4288 C.3       1 GTP         0.0926
     16 O4'        -1.1285    0.2356    2.5840 O.3       1 GTP        -0.3593
     17 C3'         1.0324    0.7610    1.7344 C.3       1 GTP         0.0907
     18 O3'         1.9175    0.2377    2.7247 O.3       1 GTP        -0.5209
     19 C2'         0.4468   -0.3802    0.9263 C.3       1 GTP         0.0305
     20 O2'         1.3993   -1.3703    0.5961 O.3       1 GTP        -0.5978
     21 C1'        -0.6159   -0.9100    1.8769 C.3       1 GTP         0.2339
     22 N9         -1.7127   -1.6108    1.2130 N.pl3     1 GTP        -0.1765
     23 C8         -1.6311   -2.3341    0.0493 C.ar      1 GTP         0.4947
     24 N7         -2.7933   -2.8506   -0.3007 N.2       1 GTP        -0.5802
     25 C5         -3.6607   -2.4436    0.6786 C.ar      1 GTP         0.2279
     26 C6         -5.0651   -2.7506    0.7505 C.ar      1 GTP         0.6513
     27 O6         -5.6735   -3.4256   -0.0671 O.2       1 GTP        -0.5111
     28 N1         -5.6834   -2.1585    1.9182 N.pl3     1 GTP        -0.4713
     29 C2         -5.0007   -1.3738    2.8765 C.ar      1 GTP         0.5256
     30 N2         -5.6847   -0.8521    3.9640 N.pl3     1 GTP        -0.8665
     31 N3         -3.6227   -1.1271    2.7212 N.pl3     1 GTP        -0.5398
     32 C4         -3.0090   -1.6802    1.6149 C.ar      1 GTP        -0.0275
     33 HOG3       -5.9036    1.1060   -3.0354 H         1 GTP         0.4161
     34 H5'        -1.4800    1.9927    0.8146 H         1 GTP         0.0348
     35 H5''       -0.1367    3.1040    1.1872 H         1 GTP         0.0348
     36 H4'         0.0403    1.7078    3.4343 H         1 GTP         0.1215
     37 H3'         1.5907    1.4859    1.1353 H         1 GTP         0.0576
     38 HO3'        2.6839   -0.1150    2.2479 H         1 GTP         0.3842
     39 H2'        -0.0017    0.0018    0.0005 H         1 GTP         0.0252
     40 HO2'        2.0953   -0.9375    0.0709 H         1 GTP         0.4224
     41 H1'        -0.1998   -1.6319    2.6178 H         1 GTP         0.0745
     42 H8         -0.7029   -2.4474   -0.4941 H         1 GTP         0.1522
     43 HN1        -6.6800   -2.3183    2.0594 H         1 GTP         0.3518
     44 HN21       -5.1660   -0.3153    4.5987 H         1 GTP         0.4761
     45 HN22       -6.6415   -1.0545    4.0252 H         1 GTP         0.4761
     46 H46        -3.1256   -0.5638    3.4080 H         1 GTP         0.5030
@<TRIPOS>BOND
     1    1    2 2
     2    1    3 1
     3    1    4 1
     4    1    5 1
     5    4   33 1
     6    5    6 1
     7    6    7 2
     8    6    8 1
     9    6    9 1
    10    9   10 1
    11   10   11 2
    12   10   12 1
    13   10   13 1
    14   13   14 1
    15   14   15 1
    16   14   34 1
    17   14   35 1
    18   15   16 1
    19   15   17 1
    20   15   36 1
    21   16   21 1
    22   17   18 1
    23   17   19 1
    24   17   37 1
    25   18   38 1
    26   19   20 1
    27   19   21 1
    28   19   39 1
    29   20   40 1
    30   21   22 1
    31   21   41 1
    32   22   23 ar
    33   22   32 ar
    34   23   24 ar
    35   23   42 1
    36   24   25 ar
    37   25   26 ar
    38   25   32 ar
    39   26   27 2
    40   26   28 ar
    41   28   29 ar
    42   28   43 1
    43   29   30 1
    44   29   31 ar
    45   30   44 1
    46   30   45 1
    47   31   32 ar
    48   31   46 1
@<TRIPOS>SUBSTRUCTURE
     1 GTP         1 GROUP 0 A     ****
@<TRIPOS>MOLECULE
[[[5-(2-amino-6-oxo-1,3-dihydropurin-2-ylium-9-yl)-3,4-dihydroxy-tetrahydrofuran-2-yl]methoxy-oxido-phosphoryl]oxy-oxido-phosphoryl] hydrogen phosphate
   46    48     1     0     0
SMALL
USER_CHARGES

@<TRIPOS>ATOM
      1 PG          9.9070    0.3235   -2.0654 P.3       1 GTP         1.5400
      2 O1G        10.3478   -0.5334   -0.8998 O.co2     1 GTP        -0.8909
      3 O2G         9.7107   -0.2758   -3.4402 O.co2     1 GTP        -0.8909
      4 O3G        10.9287    1.5906   -2.1933 O.3       1 GTP        -0.7980
      5 O3B         8.5560    1.1374   -1.6454 O.3       1 GTP        -0.7612
      6 PB          7.7456    2.3045   -2.4495 P.3       1 GTP         1.5847
      7 O1B         8.6271    3.5298   -2.5439 O.co2     1 GTP        -0.8859
      8 O2B         7.0964    1.6999   -3.6744 O.co2     1 GTP        -0.8859
      9 O3A         6.5460    2.5771   -1.3764 O.3       1 GTP        -0.7486
     10 PA          5.2953    3.6262   -1.4472 P.3       1 GTP         1.5001
     11 O1A         5.8426    5.0371   -1.4390 O.co2     1 GTP        -0.8487
     12 O2A         4.3369    3.1652   -2.5236 O.co2     1 GTP        -0.8487
     13 O5'         4.5670    3.2937   -0.0211 O.3       1 GTP        -0.5474
     14 C5'         4.0922    1.9801    0.2227 C.3       1 GTP         0.2547
     15 C4'         2.5944    2.0310    0.4653 C.3       1 GTP         0.0926
     16 O4'         1.9327    2.5740   -0.6889 O.3       1 GTP        -0.3593
     17 C3'         1.9685    0.6634    0.6767 C.3       1 GTP         0.0907
     18 O3'         2.1425    0.1975    1.9977 O.3       1 GTP        -0.5209
     19 C2'         0.5176    0.9128    0.3099 C.3       1 GTP         0.0305
     20 O2'        -0.2103    1.4454    1.4152 O.3       1 GTP        -0.5978
     21 C1'         0.6219    1.9765   -0.7844 C.3       1 GTP         0.2339
     22 N9          0.4237    1.4496   -2.1357 N.pl3     1 GTP        -0.1765
     23 C8          1.3988    0.9691   -2.9736 C.ar      1 GTP         0.4947
     24 N7          0.9092    0.5634   -4.1293 N.2       1 GTP        -0.5802
     25 C5         -0.4383    0.7914   -4.0325 C.ar      1 GTP         0.2279
     26 C6         -1.4217    0.5138   -5.0461 C.ar      1 GTP         0.6513
     27 O6         -1.1759    0.0306   -6.1417 O.2       1 GTP        -0.5111
     28 N1         -2.7543    0.8794   -4.6134 N.pl3     1 GTP        -0.4713
     29 C2         -3.0626    1.4402   -3.3523 C.ar      1 GTP         0.5256
     30 N2         -4.3747    1.7544   -3.0321 N.pl3     1 GTP        -0.8665
     31 N3         -2.0304    1.6759   -2.4233 N.pl3     1 GTP        -0.5398
     32 C4         -0.7497    1.3366   -2.8118 C.ar      1 GTP        -0.0275
     33 HOG3       10.7748    2.2442   -2.9084 H         1 GTP         0.4161
     34 H5'         4.3179    1.3548   -0.6470 H         1 GTP         0.0348
     35 H5''        4.6083    1.5737    1.0983 H         1 GTP         0.0348
     36 H4'         2.3752    2.7029    1.3156 H         1 GTP         0.1215
     37 H3'         2.4336   -0.1217   -0.0015 H         1 GTP         0.0576
     38 HO3'        1.7160   -0.6716    2.0397 H         1 GTP         0.3842
     39 H2'         0.0316    0.0155   -0.0339 H         1 GTP         0.0252
     40 HO2'       -0.1608    0.7921    2.1351 H         1 GTP         0.4224
     41 H1'        -0.1474    2.7798   -0.6651 H         1 GTP         0.0745
     42 H8          2.4413    0.9409   -2.6872 H         1 GTP         0.1522
     43 HN1        -3.5236    0.7214   -5.2629 H         1 GTP         0.3518
     44 HN21       -4.5350    2.1409   -2.1461 H         1 GTP         0.4761
     45 HN22       -5.0542    1.5695   -3.7134 H         1 GTP         0.4761
     46 H46        -2.2462    2.0786   -1.5136 H         1 GTP         0.5030
@<TRIPOS>BOND
     1    1    2 2
     2    1    3 1
     3    1    4 1
     4    1    5 1
     5    4   33 1
     6    5    6 1
     7    6    7 2
     8    6    8 1
     9    6    9 1
    10    9   10 1
    11   10   11 2
    12   10   12 1
    13   10   13 1
    14   13   14 1
    15   14   15 1
    16   14   34 1
    17   14   35 1
    18   15   16 1
    19   15   17 1
    20   15   36 1
    21   16   21 1
    22   17   18 1
    23   17   19 1
    24   17   37 1
    25   18   38 1
    26   19   20 1
    27   19   21 1
    28   19   39 1
    29   20   40 1
    30   21   22 1
    31   21   41 1
    32   22   23 ar
    33   22   32 ar
    34   23   24 ar
    35   23   42 1
    36   24   25 ar
    37   25   26 ar
    38   25   32 ar
    39   26   27 2
    40   26   28 ar
    41   28   29 ar
    42   28   43 1
    43   29   30 1
    44   29   31 ar
    45   30   44 1
    46   30   45 1
    47   31   32 ar
    48   31   46 1
@<TRIPOS>SUBSTRUCTURE
     1 GTP         1 GROUP 0 A     ****
@<TRIPOS>MOLECULE
[[[5-(2-amino-6-oxo-1,3-dihydropurin-2-ylium-9-yl)-3,4-dihydroxy-tetrahydrofuran-2-yl]methoxy-oxido-phosphoryl]oxy-oxido-phosphoryl] hydrogen phosphate
   46    48     1     0     0
SMALL
USER_CHARGES

@<TRIPOS>ATOM
      1 PG          8.9095    2.6036    4.3352 P.3       1 GTP         1.5400
      2 O1G         9.9040    3.7430    4.3145 O.co2     1 GTP        -0.8909
      3 O2G         8.0299    2.3615    5.5415 O.co2     1 GTP        -0.8909
      4 O3G         9.6999    1.2188    3.9836 O.3       1 GTP        -0.7980
      5 O3B         7.9689    2.6953    3.0045 O.3       1 GTP        -0.7612
      6 PB          8.3906    2.7915    1.4302 P.3       1 GTP         1.5847
      7 O1B         9.0970    4.1084    1.1970 O.co2     1 GTP        -0.8859
      8 O2B         9.0048    1.4770    1.0029 O.co2     1 GTP        -0.8859
      9 O3A         6.9017    2.8457    0.7631 O.3       1 GTP        -0.7486
     10 PA          5.6979    3.9301    0.9743 P.3       1 GTP         1.5001
     11 O1A         5.2283    3.8619    2.4113 O.co2     1 GTP        -0.8487
     12 O2A         6.1140    5.2436    0.3487 O.co2     1 GTP        -0.8487
     13 O5'         4.5670    3.2937   -0.0211 O.3       1 GTP        -0.5474
     14 C5'         4.0922    1.9801    0.2227 C.3       1 GTP         0.2547
     15 C4'         2.5944    2.0310    0.4653 C.3       1 GTP         0.0926
     16 O4'         1.9327    2.5740   -0.6889 O.3       1 GTP        -0.3593
     17 C3'         1.9685    0.6634    0.6767 C.3       1 GTP         0.0907
     18 O3'         2.1425    0.1975    1.9977 O.3       1 GTP        -0.5209
     19 C2'         0.5176    0.9128    0.3099 C.3       1 GTP         0.0305
     20 O2'        -0.2103    1.4454    1.4152 O.3       1 GTP        -0.5978
     21 C1'         0.6219    1.9765   -0.7844 C.3       1 GTP         0.2339
     22 N9          0.4237    1.4496   -2.1357 N.pl3     1 GTP        -0.1765
     23 C8          1.3988    0.9691   -2.9736 C.ar      1 GTP         0.4947
     24 N7          0.9092    0.5634   -4.1293 N.2       1 GTP        -0.5802
     25 C5         -0.4383    0.7914   -4.0325 C.ar      1 GTP         0.2279
     26 C6         -1.4217    0.5138   -5.0461 C.ar      1 GTP         0.6513
     27 O6         -1.1759    0.0306   -6.1417 O.2       1 GTP        -0.5111
     28 N1         -2.7543    0.8794   -4.6134 N.pl3     1 GTP        -0.4713
     29 C2         -3.0626    1.4402   -3.3523 C.ar      1 GTP         0.5256
     30 N2         -4.3747    1.7544   -3.0321 N.pl3     1 GTP        -0.8665
     31 N3         -2.0304    1.6759   -2.4233 N.pl3     1 GTP        -0.5398
     32 C4         -0.7497    1.3366   -2.8118 C.ar      1 GTP        -0.0275
     33 HOG3        9.1878    0.3826    3.9577 H         1 GTP         0.4161
     34 H5'         4.3179    1.3548   -0.6470 H         1 GTP         0.0348
     35 H5''        4.6083    1.5737    1.0983 H         1 GTP         0.0348
     36 H4'         2.3752    2.7029    1.3156 H         1 GTP         0.1215
     37 H3'         2.4336   -0.1217   -0.0015 H         1 GTP         0.0576
     38 HO3'        1.7160   -0.6716    2.0397 H         1 GTP         0.3842
     39 H2'         0.0316    0.0155   -0.0339 H         1 GTP         0.0252
     40 HO2'       -0.1608    0.7921    2.1351 H         1 GTP         0.4224
     41 H1'        -0.1474    2.7798   -0.6651 H         1 GTP         0.0745
     42 H8          2.4413    0.9409   -2.6872 H         1 GTP         0.1522
     43 HN1        -3.5236    0.7214   -5.2629 H         1 GTP         0.3518
     44 HN21       -4.5350    2.1409   -2.1461 H         1 GTP         0.4761
     45 HN22       -5.0542    1.5695   -3.7134 H         1 GTP         0.4761
     46 H46        -2.2462    2.0786   -1.5136 H         1 GTP         0.5030
@<TRIPOS>BOND
     1    1    2 2
     2    1    3 1
     3    1    4 1
     4    1    5 1
     5    4   33 1
     6    5    6 1
     7    6    7 2
     8    6    8 1
     9    6    9 1
    10    9   10 1
    11   10   11 2
    12   10   12 1
    13   10   13 1
    14   13   14 1
    15   14   15 1
    16   14   34 1
    17   14   35 1
    18   15   16 1
    19   15   17 1
    20   15   36 1
    21   16   21 1
    22   17   18 1
    23   17   19 1
    24   17   37 1
    25   18   38 1
    26   19   20 1
    27   19   21 1
    28   19   39 1
    29   20   40 1
    30   21   22 1
    31   21   41 1
    32   22   23 ar
    33   22   32 ar
    34   23   24 ar
    35   23   42 1
    36   24   25 ar
    37   25   26 ar
    38   25   32 ar
    39   26   27 2
    40   26   28 ar
    41   28   29 ar
    42   28   43 1
    43   29   30 1
    44   29   31 ar
    45   30   44 1
    46   30   45 1
    47   31   32 ar
    48   31   46 1
@<TRIPOS>SUBSTRUCTURE
     1 GTP         1 GROUP 0 A     ****
@<TRIPOS>MOLECULE
[[[5-(2-amino-6-oxo-1,3-dihydropurin-2-ylium-9-yl)-3,4-dihydroxy-tetrahydrofuran-2-yl]methoxy-oxido-phosphoryl]oxy-oxido-phosphoryl] hydrogen phosphate
   46    48     1     0     0
SMALL
USER_CHARGES

@<TRIPOS>ATOM
      1 PG         -1.2098    9.3110    3.0706 P.3       1 GTP         1.5400
      2 O1G        -0.1361    9.6212    4.0897 O.co2     1 GTP        -0.8909
      3 O2G        -1.3171   10.1056    1.7882 O.co2     1 GTP        -0.8909
      4 O3G        -2.6599    9.3385    3.8204 O.3       1 GTP        -0.7980
      5 O3B        -1.1515    7.7215    2.7047 O.3       1 GTP        -0.7612
      6 PB          0.0055    6.8681    1.9308 P.3       1 GTP         1.5847
      7 O1B         0.0852    7.3475    0.4986 O.co2     1 GTP        -0.8859
      8 O2B         1.2338    6.7924    2.8100 O.co2     1 GTP        -0.8859
      9 O3A        -0.6866    5.3902    1.9734 O.3       1 GTP        -0.7486
     10 PA         -1.1369    4.4808    3.2540 P.3       1 GTP         1.5001
     11 O1A         0.0993    4.1026    4.0409 O.co2     1 GTP        -0.8487
     12 O2A        -2.3199    5.1428    3.9262 O.co2     1 GTP        -0.8487
     13 O5'        -1.7336    3.1724    2.4750 O.3       1 GTP        -0.5474
     14 C5'        -0.8811    2.4285    1.6206 C.3       1 GTP         0.2547
     15 C4'        -0.1994    1.3333    2.4288 C.3       1 GTP         0.0926
     16 O4'        -1.1285    0.2356    2.5840 O.3       1 GTP        -0.3593
     17 C3'         1.0324    0.7610    1.7344 C.3       1 GTP         0.0907
     18 O3'         1.9175    0.2377    2.7247 O.3       1 GTP        -0.5209
     19 C2'         0.4468   -0.3802    0.9263 C.3       1 GTP         0.0305
     20 O2'         1.3993   -1.3703    0.5961 O.3       1 GTP        -0.5978
     21 C1'        -0.6159   -0.9100    1.8769 C.3       1 GTP         0.2339
     22 N9         -1.7127   -1.6108    1.2130 N.pl3     1 GTP        -0.1765
     23 C8         -1.6092   -2.7449    0.4467 C.ar      1 GTP         0.4947
     24 N7         -2.7778   -3.1416   -0.0191 N.2       1 GTP        -0.5802
     25 C5         -3.6725   -2.2253    0.4675 C.ar      1 GTP         0.2279
     26 C6         -5.0932   -2.2202    0.2371 C.ar      1 GTP         0.6513
     27 O6         -5.6933   -3.0474   -0.4337 O.2       1 GTP        -0.5111
     28 N1         -5.7390   -1.1061    0.8992 N.pl3     1 GTP        -0.4713
     29 C2         -5.0661   -0.1368    1.6789 C.ar      1 GTP         0.5256
     30 N2         -5.7774    0.8934    2.2749 N.pl3     1 GTP        -0.8665
     31 N3         -3.6705   -0.2251    1.8481 N.pl3     1 GTP        -0.5398
     32 C4         -3.0303   -1.2785    1.2262 C.ar      1 GTP        -0.0275
     33 HOG3       -3.4638    9.1549    3.2891 H         1 GTP         0.4161
     34 H5'        -1.4800    1.9927    0.8146 H         1 GTP         0.0348
     35 H5''       -0.1367    3.1040    1.1872 H         1 GTP         0.0348
     36 H4'         0.0403    1.7078    3.4343 H         1 GTP         0.1215
     37 H3'         1.5907    1.4859    1.1353 H         1 GTP         0.0576
     38 HO3'        2.6839   -0.1150    2.2479 H         1 GTP         0.3842
     39 H2'        -0.0017    0.0018    0.0005 H         1 GTP         0.0252
     40 HO2'        2.0953   -0.9375    0.0709 H         1 GTP         0.4224
     41 H1'        -0.1998   -1.6319    2.6178 H         1 GTP         0.0745
     42 H8         -0.6610   -3.2324    0.2653 H         1 GTP         0.1522
     43 HN1        -6.7487   -1.0139    0.7961 H         1 GTP         0.3518
     44 HN21       -5.2644    1.5388    2.8044 H         1 GTP         0.4761
     45 HN22       -6.7459    0.9078    2.1265 H         1 GTP         0.4761
     46 H46        -3.1807    0.4690    2.4089 H         1 GTP         0.5030
@<TRIPOS>BOND
     1    1    2 2
     2    1    3 1
     3    1    4 1
     4    1    5 1
     5    4   33 1
     6    5    6 1
     7    6    7 2
     8    6    8 1
     9    6    9 1
    10    9   10 1
    11   10   11 2
    12   10   12 1
    13   10   13 1
    14   13   14 1
    15   14   15 1
    16   14   34 1
    17   14   35 1
    18   15   16 1
    19   15   17 1
    20   15   36 1
    21   16   21 1
    22   17   18 1
    23   17   19 1
    24   17   37 1
    25   18   38 1
    26   19   20 1
    27   19   21 1
    28   19   39 1
    29   20   40 1
    30   21   22 1
    31   21   41 1
    32   22   23 ar
    33   22   32 ar
    34   23   24 ar
    35   23   42 1
    36   24   25 ar
    37   25   26 ar
    38   25   32 ar
    39   26   27 2
    40   26   28 ar
    41   28   29 ar
    42   28   43 1
    43   29   30 1
    44   29   31 ar
    45   30   44 1
    46   30   45 1
    47   31   32 ar
    48   31   46 1
@<TRIPOS>SUBSTRUCTURE
     1 GTP         1 GROUP 0 A     ****
@<TRIPOS>MOLECULE
[[[5-(2-amino-6-oxo-1,3-dihydropurin-2-ylium-9-yl)-3,4-dihydroxy-tetrahydrofuran-2-yl]methoxy-oxido-phosphoryl]oxy-oxido-phosphoryl] hydrogen phosphate
   46    48     1     0     0
SMALL
USER_CHARGES

@<TRIPOS>ATOM
      1 PG         -2.6165    6.1793   -1.6182 P.3       1 GTP         1.5400
      2 O1G        -3.3941    7.4546   -1.3810 O.co2     1 GTP        -0.8909
      3 O2G        -1.4022    5.8423   -0.7818 O.co2     1 GTP        -0.8909
      4 O3G        -2.1945    6.1147   -3.1942 O.3       1 GTP        -0.7980
      5 O3B        -3.6478    4.9147   -1.5871 O.3       1 GTP        -0.7612
      6 PB         -4.5154    4.3030   -0.3467 P.3       1 GTP         1.5847
      7 O1B        -5.3377    5.4153    0.2649 O.co2     1 GTP        -0.8859
      8 O2B        -5.1465    2.9992   -0.7819 O.co2     1 GTP        -0.8859
      9 O3A        -3.2920    3.9119    0.6609 O.3       1 GTP        -0.7486
     10 PA         -3.3347    3.2338    2.1468 P.3       1 GTP         1.5001
     11 O1A        -4.0274    4.1866    3.0968 O.co2     1 GTP        -0.8487
     12 O2A        -3.7889    1.7968    2.0106 O.co2     1 GTP        -0.8487
     13 O5'        -1.7336    3.1724    2.4750 O.3       1 GTP        -0.5474
     14 C5'        -0.8811    2.4285    1.6206 C.3       1 GTP         0.2547
     15 C4'        -0.1994    1.3333    2.4288 C.3       1 GTP         0.0926
     16 O4'        -1.1285    0.2356    2.5840 O.3       1 GTP        -0.3593
     17 C3'         1.0324    0.7610    1.7344 C.3       1 GTP         0.0907
     18 O3'         1.9175    0.2377    2.7247 O.3       1 GTP        -0.5209
     19 C2'         0.4468   -0.3802    0.9263 C.3       1 GTP         0.0305
     20 O2'         1.3993   -1.3703    0.5961 O.3       1 GTP        -0.5978
     21 C1'        -0.6159   -0.9100    1.8769 C.3       1 GTP         0.2339
     22 N9         -1.7127   -1.6108    1.2130 N.pl3     1 GTP        -0.1765
     23 C8         -2.8692   -1.0463    0.7355 C.ar      1 GTP         0.4947
     24 N7         -3.6707   -1.9381    0.1856 N.2       1 GTP        -0.5802
     25 C5         -3.0027   -3.1275    0.3134 C.ar      1 GTP         0.2279
     26 C6         -3.4659   -4.4142   -0.1355 C.ar      1 GTP         0.6513
     27 O6         -4.5328   -4.6133   -0.6980 O.2       1 GTP        -0.5111
     28 N1         -2.5102   -5.4606    0.1612 N.pl3     1 GTP        -0.4713
     29 C2         -1.2711   -5.2547    0.8113 C.ar      1 GTP         0.5256
     30 N2         -0.4228   -6.3256    1.0482 N.pl3     1 GTP        -0.8665
     31 N3         -0.9033   -3.9563    1.2146 N.pl3     1 GTP        -0.5398
     32 C4         -1.7979   -2.9400    0.9438 C.ar      1 GTP        -0.0275
     33 HOG3       -1.6807    5.3405   -3.5086 H         1 GTP         0.4161
     34 H5'        -1.4800    1.9927    0.8146 H         1 GTP         0.0348
     35 H5''       -0.1367    3.1040    1.1872 H         1 GTP         0.0348
     36 H4'         0.0403    1.7078    3.4343 H         1 GTP         0.1215
     37 H3'         1.5907    1.4859    1.1353 H         1 GTP         0.0576
     38 HO3'        2.1521    0.9800    3.3017 H         1 GTP         0.3842
     39 H2'        -0.0017    0.0018    0.0005 H         1 GTP         0.0252
     40 HO2'        0.9369   -2.0558    0.0825 H         1 GTP         0.4224
     41 H1'        -0.1998   -1.6319    2.6178 H         1 GTP         0.0745
     42 H8         -3.0691    0.0134    0.8177 H         1 GTP         0.1522
     43 HN1        -2.7468   -6.4119   -0.1177 H         1 GTP         0.3518
     44 HN21        0.4233   -6.1297    1.5018 H         1 GTP         0.4761
     45 HN22       -0.7261   -7.2071    0.7466 H         1 GTP         0.4761
     46 H46        -0.0124   -3.8015    1.6821 H         1 GTP         0.5030
@<TRIPOS>BOND
     1    1    2 2
     2    1    3 1
     3    1    4 1
     4    1    5 1
     5    4   33 1
     6    5    6 1
     7    6    7 2
     8    6    8 1
     9    6    9 1
    10    9   10 1
    11   10   11 2
    12   10   12 1
    13   10   13 1
    14   13   14 1
    15   14   15 1
    16   14   34 1
    17   14   35 1
    18   15   16 1
    19   15   17 1
    20   15   36 1
    21   16   21 1
    22   17   18 1
    23   17   19 1
    24   17   37 1
    25   18   38 1
    26   19   20 1
    27   19   21 1
    28   19   39 1
    29   20   40 1
    30   21   22 1
    31   21   41 1
    32   22   23 ar
    33   22   32 ar
    34   23   24 ar
    35   23   42 1
    36   24   25 ar
    37   25   26 ar
    38   25   32 ar
    39   26   27 2
    40   26   28 ar
    41   28   29 ar
    42   28   43 1
    43   29   30 1
    44   29   31 ar
    45   30   44 1
    46   30   45 1
    47   31   32 ar
    48   31   46 1
@<TRIPOS>SUBSTRUCTURE
     1 GTP         1 GROUP 0 A     ****
@<TRIPOS>MOLECULE
[[[5-(2-amino-6-oxo-1,3-dihydropurin-2-ylium-9-yl)-3,4-dihydroxy-tetrahydrofuran-2-yl]methoxy-oxido-phosphoryl]oxy-oxido-phosphoryl] hydrogen phosphate
   46    48     1     0     0
SMALL
USER_CHARGES

@<TRIPOS>ATOM
      1 PG         10.0639    0.4417   -3.1762 P.3       1 GTP         1.5400
      2 O1G        10.7766    1.7142   -3.5765 O.co2     1 GTP        -0.8909
      3 O2G        10.7781   -0.6345   -2.3891 O.co2     1 GTP        -0.8909
      4 O3G         9.4207   -0.2358   -4.5153 O.3       1 GTP        -0.7980
      5 O3B         8.6781    0.8289   -2.4058 O.3       1 GTP        -0.7612
      6 PB          8.4522    1.5578   -0.9625 P.3       1 GTP         1.5847
      7 O1B         8.9719    0.6469    0.1273 O.co2     1 GTP        -0.8859
      8 O2B         8.8923    3.0012   -1.0646 O.co2     1 GTP        -0.8859
      9 O3A         6.8202    1.5723   -0.9289 O.3       1 GTP        -0.7486
     10 PA          5.7602    0.3298   -0.9771 P.3       1 GTP         1.5001
     11 O1A         5.8877   -0.3669   -2.3145 O.co2     1 GTP        -0.8487
     12 O2A         5.8603   -0.4429    0.3201 O.co2     1 GTP        -0.8487
     13 O5'         4.3516    1.1575   -0.9026 O.3       1 GTP        -0.5474
     14 C5'         4.0922    1.9801    0.2227 C.3       1 GTP         0.2547
     15 C4'         2.5944    2.0310    0.4653 C.3       1 GTP         0.0926
     16 O4'         1.9327    2.5740   -0.6889 O.3       1 GTP        -0.3593
     17 C3'         1.9685    0.6634    0.6767 C.3       1 GTP         0.0907
     18 O3'         2.1425    0.1975    1.9977 O.3       1 GTP        -0.5209
     19 C2'         0.5176    0.9128    0.3099 C.3       1 GTP         0.0305
     20 O2'        -0.2103    1.4454    1.4152 O.3       1 GTP        -0.5978
     21 C1'         0.6219    1.9765   -0.7844 C.3       1 GTP         0.2339
     22 N9          0.4237    1.4496   -2.1357 N.pl3     1 GTP        -0.1765
     23 C8          1.3988    0.9691   -2.9736 C.ar      1 GTP         0.4947
     24 N7          0.9092    0.5634   -4.1293 N.2       1 GTP        -0.5802
     25 C5         -0.4383    0.7914   -4.0325 C.ar      1 GTP         0.2279
     26 C6         -1.4217    0.5138   -5.0461 C.ar      1 GTP         0.6513
     27 O6         -1.1759    0.0306   -6.1417 O.2       1 GTP        -0.5111
     28 N1         -2.7543    0.8794   -4.6134 N.pl3     1 GTP        -0.4713
     29 C2         -3.0626    1.4402   -3.3523 C.ar      1 GTP         0.5256
     30 N2         -4.3747    1.7544   -3.0321 N.pl3     1 GTP        -0.8665
     31 N3         -2.0304    1.6759   -2.4233 N.pl3     1 GTP        -0.5398
     32 C4         -0.7497    1.3366   -2.8118 C.ar      1 GTP        -0.0275
     33 HOG3        8.9219   -1.0751   -4.4203 H         1 GTP         0.4161
     34 H5'         4.6069    1.5618    1.0936 H         1 GTP         0.0348
     35 H5''        4.4824    2.9837    0.0254 H         1 GTP         0.0348
     36 H4'         2.3752    2.7029    1.3156 H         1 GTP         0.1215
     37 H3'         2.4336   -0.1217   -0.0015 H         1 GTP         0.0576
     38 HO3'        1.7160   -0.6716    2.0397 H         1 GTP         0.3842
     39 H2'         0.0316    0.0155   -0.0339 H         1 GTP         0.0252
     40 HO2'       -0.1608    0.7921    2.1351 H         1 GTP         0.4224
     41 H1'        -0.1474    2.7798   -0.6651 H         1 GTP         0.0745
     42 H8          2.4413    0.9409   -2.6872 H         1 GTP         0.1522
     43 HN1        -3.5236    0.7214   -5.2629 H         1 GTP         0.3518
     44 HN21       -4.5350    2.1409   -2.1461 H         1 GTP         0.4761
     45 HN22       -5.0542    1.5695   -3.7134 H         1 GTP         0.4761
     46 H46        -2.2462    2.0786   -1.5136 H         1 GTP         0.5030
@<TRIPOS>BOND
     1    1    2 2
     2    1    3 1
     3    1    4 1
     4    1    5 1
     5    4   33 1
     6    5    6 1
     7    6    7 2
     8    6    8 1
     9    6    9 1
    10    9   10 1
    11   10   11 2
    12   10   12 1
    13   10   13 1
    14   13   14 1
    15   14   15 1
    16   14   34 1
    17   14   35 1
    18   15   16 1
    19   15   17 1
    20   15   36 1
    21   16   21 1
    22   17   18 1
    23   17   19 1
    24   17   37 1
    25   18   38 1
    26   19   20 1
    27   19   21 1
    28   19   39 1
    29   20   40 1
    30   21   22 1
    31   21   41 1
    32   22   23 ar
    33   22   32 ar
    34   23   24 ar
    35   23   42 1
    36   24   25 ar
    37   25   26 ar
    38   25   32 ar
    39   26   27 2
    40   26   28 ar
    41   28   29 ar
    42   28   43 1
    43   29   30 1
    44   29   31 ar
    45   30   44 1
    46   30   45 1
    47   31   32 ar
    48   31   46 1
@<TRIPOS>SUBSTRUCTURE
     1 GTP         1 GROUP 0 A     ****
@<TRIPOS>MOLECULE
[[[5-(2-amino-6-oxo-1,3-dihydropurin-2-ylium-9-yl)-3,4-dihydroxy-tetrahydrofuran-2-yl]methoxy-oxido-phosphoryl]oxy-oxido-phosphoryl] hydrogen phosphate
   46    48     1     0     0
SMALL
USER_CHARGES

@<TRIPOS>ATOM
      1 PG         -2.9503    2.1187    5.9262 P.3       1 GTP         1.5400
      2 O1G        -4.4567    2.1819    5.8071 O.co2     1 GTP        -0.8909
      3 O2G        -2.1160    1.4208    4.8752 O.co2     1 GTP        -0.8909
      4 O3G        -2.5712    1.4956    7.3870 O.3       1 GTP        -0.7980
      5 O3B        -2.3710    3.6289    6.1444 O.3       1 GTP        -0.7612
      6 PB         -2.3622    4.9034    5.1240 P.3       1 GTP         1.5847
      7 O1B        -3.7768    5.1569    4.6527 O.co2     1 GTP        -0.8859
      8 O2B        -1.5165    6.0066    5.7200 O.co2     1 GTP        -0.8859
      9 O3A        -1.4890    4.2572    3.9055 O.3       1 GTP        -0.7486
     10 PA         -1.0308    4.9148    2.4816 P.3       1 GTP         1.5001
     11 O1A        -2.2675    5.2030    1.6584 O.co2     1 GTP        -0.8487
     12 O2A        -0.0037    5.9921    2.7538 O.co2     1 GTP        -0.8487
     13 O5'        -0.2062    3.6557    1.8417 O.3       1 GTP        -0.5474
     14 C5'        -0.8811    2.4285    1.6206 C.3       1 GTP         0.2547
     15 C4'        -0.1994    1.3333    2.4288 C.3       1 GTP         0.0926
     16 O4'        -1.1285    0.2356    2.5840 O.3       1 GTP        -0.3593
     17 C3'         1.0324    0.7610    1.7344 C.3       1 GTP         0.0907
     18 O3'         1.9175    0.2377    2.7247 O.3       1 GTP        -0.5209
     19 C2'         0.4468   -0.3802    0.9263 C.3       1 GTP         0.0305
     20 O2'         1.3993   -1.3703    0.5961 O.3       1 GTP        -0.5978
     21 C1'        -0.6159   -0.9100    1.8769 C.3       1 GTP         0.2339
     22 N9         -1.7127   -1.6108    1.2130 N.pl3     1 GTP        -0.1765
     23 C8         -2.5534   -1.0907    0.2607 C.ar      1 GTP         0.4947
     24 N7         -3.4469   -1.9695   -0.1508 N.2       1 GTP        -0.5802
     25 C5         -3.1705   -3.1041    0.5657 C.ar      1 GTP         0.2279
     26 C6         -3.8738   -4.3568    0.4777 C.ar      1 GTP         0.6513
     27 O6         -4.8240   -4.5720   -0.2607 O.2       1 GTP        -0.5111
     28 N1         -3.3198   -5.3462    1.3780 N.pl3     1 GTP        -0.4713
     29 C2         -2.2226   -5.1203    2.2413 C.ar      1 GTP         0.5256
     30 N2         -1.7649   -6.1367    3.0659 N.pl3     1 GTP        -0.8665
     31 N3         -1.5969   -3.8585    2.2574 N.pl3     1 GTP        -0.5398
     32 C4         -2.1068   -2.8965    1.4082 C.ar      1 GTP        -0.0275
     33 HOG3       -1.6237    1.3898    7.6178 H         1 GTP         0.4161
     34 H5'        -1.9256    2.5380    1.9293 H         1 GTP         0.0348
     35 H5''       -0.8474    2.1930    0.5521 H         1 GTP         0.0348
     36 H4'         0.0403    1.7078    3.4343 H         1 GTP         0.1215
     37 H3'         1.5907    1.4859    1.1353 H         1 GTP         0.0576
     38 HO3'        2.6839   -0.1150    2.2479 H         1 GTP         0.3842
     39 H2'        -0.0017    0.0018    0.0005 H         1 GTP         0.0252
     40 HO2'        2.0953   -0.9375    0.0709 H         1 GTP         0.4224
     41 H1'        -0.1998   -1.6319    2.6178 H         1 GTP         0.0745
     42 H8         -2.4657   -0.0713   -0.0897 H         1 GTP         0.1522
     43 HN1        -3.7505   -6.2699    1.3904 H         1 GTP         0.3518
     44 HN21       -1.0023   -5.9289    3.6451 H         1 GTP         0.4761
     45 HN22       -2.2347   -6.9951    3.0150 H         1 GTP         0.4761
     46 H46        -0.8062   -3.6900    2.8760 H         1 GTP         0.5030
@<TRIPOS>BOND
     1    1    2 2
     2    1    3 1
     3    1    4 1
     4    1    5 1
     5    4   33 1
     6    5    6 1
     7    6    7 2
     8    6    8 1
     9    6    9 1
    10    9   10 1
    11   10   11 2
    12   10   12 1
    13   10   13 1
    14   13   14 1
    15   14   15 1
    16   14   34 1
    17   14   35 1
    18   15   16 1
    19   15   17 1
    20   15   36 1
    21   16   21 1
    22   17   18 1
    23   17   19 1
    24   17   37 1
    25   18   38 1
    26   19   20 1
    27   19   21 1
    28   19   39 1
    29   20   40 1
    30   21   22 1
    31   21   41 1
    32   22   23 ar
    33   22   32 ar
    34   23   24 ar
    35   23   42 1
    36   24   25 ar
    37   25   26 ar
    38   25   32 ar
    39   26   27 2
    40   26   28 ar
    41   28   29 ar
    42   28   43 1
    43   29   30 1
    44   29   31 ar
    45   30   44 1
    46   30   45 1
    47   31   32 ar
    48   31   46 1
@<TRIPOS>SUBSTRUCTURE
     1 GTP         1 GROUP 0 A     ****
@<TRIPOS>MOLECULE
[[[5-(2-amino-6-oxo-1,3-dihydropurin-2-ylium-9-yl)-3,4-dihydroxy-tetrahydrofuran-2-yl]methoxy-oxido-phosphoryl]oxy-oxido-phosphoryl] hydrogen phosphate
   46    48     1     0     0
SMALL
USER_CHARGES

@<TRIPOS>ATOM
      1 PG          3.7529    5.6282    4.7954 P.3       1 GTP         1.5400
      2 O1G         3.4941    6.5413    5.9730 O.co2     1 GTP        -0.8909
      3 O2G         4.6862    4.4445    4.9200 O.co2     1 GTP        -0.8909
      4 O3G         4.2367    6.5388    3.5295 O.3       1 GTP        -0.7980
      5 O3B         2.3238    5.1143    4.1976 O.3       1 GTP        -0.7612
      6 PB          1.0195    5.9733    3.7217 P.3       1 GTP         1.5847
      7 O1B         0.4284    6.6664    4.9291 O.co2     1 GTP        -0.8859
      8 O2B         1.3636    6.7350    2.4612 O.co2     1 GTP        -0.8859
      9 O3A         0.0468    4.7431    3.2686 O.3       1 GTP        -0.7486
     10 PA         -1.4709    4.7755    2.6641 P.3       1 GTP         1.5001
     11 O1A        -2.4018    5.3379    3.7164 O.co2     1 GTP        -0.8487
     12 O2A        -1.4241    5.3590    1.2687 O.co2     1 GTP        -0.8487
     13 O5'        -1.7336    3.1724    2.4750 O.3       1 GTP        -0.5474
     14 C5'        -0.8811    2.4285    1.6206 C.3       1 GTP         0.2547
     15 C4'        -0.1994    1.3333    2.4288 C.3       1 GTP         0.0926
     16 O4'        -1.1285    0.2356    2.5840 O.3       1 GTP        -0.3593
     17 C3'         1.0324    0.7610    1.7344 C.3       1 GTP         0.0907
     18 O3'         1.9175    0.2377    2.7247 O.3       1 GTP        -0.5209
     19 C2'         0.4468   -0.3802    0.9263 C.3       1 GTP         0.0305
     20 O2'         1.3993   -1.3703    0.5961 O.3       1 GTP        -0.5978
     21 C1'        -0.6159   -0.9100    1.8769 C.3       1 GTP         0.2339
     22 N9         -1.7127   -1.6108    1.2130 N.pl3     1 GTP        -0.1765
     23 C8         -1.6092   -2.7449    0.4467 C.ar      1 GTP         0.4947
     24 N7         -2.7778   -3.1416   -0.0191 N.2       1 GTP        -0.5802
     25 C5         -3.6725   -2.2253    0.4675 C.ar      1 GTP         0.2279
     26 C6         -5.0932   -2.2202    0.2371 C.ar      1 GTP         0.6513
     27 O6         -5.6933   -3.0474   -0.4337 O.2       1 GTP        -0.5111
     28 N1         -5.7390   -1.1061    0.8992 N.pl3     1 GTP        -0.4713
     29 C2         -5.0661   -0.1368    1.6789 C.ar      1 GTP         0.5256
     30 N2         -5.7774    0.8934    2.2749 N.pl3     1 GTP        -0.8665
     31 N3         -3.6705   -0.2251    1.8481 N.pl3     1 GTP        -0.5398
     32 C4         -3.0303   -1.2785    1.2262 C.ar      1 GTP        -0.0275
     33 HOG3        4.4451    6.0887    2.6832 H         1 GTP         0.4161
     34 H5'        -1.4800    1.9927    0.8146 H         1 GTP         0.0348
     35 H5''       -0.1367    3.1040    1.1872 H         1 GTP         0.0348
     36 H4'         0.0403    1.7078    3.4343 H         1 GTP         0.1215
     37 H3'         1.5907    1.4859    1.1353 H         1 GTP         0.0576
     38 HO3'        2.1521    0.9800    3.3017 H         1 GTP         0.3842
     39 H2'        -0.0017    0.0018    0.0005 H         1 GTP         0.0252
     40 HO2'        1.7495   -1.7243    1.4324 H         1 GTP         0.4224
     41 H1'        -0.1998   -1.6319    2.6178 H         1 GTP         0.0745
     42 H8         -0.6610   -3.2324    0.2653 H         1 GTP         0.1522
     43 HN1        -6.7487   -1.0139    0.7961 H         1 GTP         0.3518
     44 HN21       -6.7460    0.9076    2.1270 H         1 GTP         0.4761
     45 HN22       -5.2643    1.5384    2.8048 H         1 GTP         0.4761
     46 H46        -3.1807    0.4690    2.4089 H         1 GTP         0.5030
@<TRIPOS>BOND
     1    1    2 2
     2    1    3 1
     3    1    4 1
     4    1    5 1
     5    4   33 1
     6    5    6 1
     7    6    7 2
     8    6    8 1
     9    6    9 1
    10    9   10 1
    11   10   11 2
    12   10   12 1
    13   10   13 1
    14   13   14 1
    15   14   15 1
    16   14   34 1
    17   14   35 1
    18   15   16 1
    19   15   17 1
    20   15   36 1
    21   16   21 1
    22   17   18 1
    23   17   19 1
    24   17   37 1
    25   18   38 1
    26   19   20 1
    27   19   21 1
    28   19   39 1
    29   20   40 1
    30   21   22 1
    31   21   41 1
    32   22   23 ar
    33   22   32 ar
    34   23   24 ar
    35   23   42 1
    36   24   25 ar
    37   25   26 ar
    38   25   32 ar
    39   26   27 2
    40   26   28 ar
    41   28   29 ar
    42   28   43 1
    43   29   30 1
    44   29   31 ar
    45   30   44 1
    46   30   45 1
    47   31   32 ar
    48   31   46 1
@<TRIPOS>SUBSTRUCTURE
     1 GTP         1 GROUP 0 A     ****
@<TRIPOS>MOLECULE
[[[5-(2-amino-6-oxo-1,3-dihydropurin-2-ylium-9-yl)-3,4-dihydroxy-tetrahydrofuran-2-yl]methoxy-oxido-phosphoryl]oxy-oxido-phosphoryl] hydrogen phosphate
   46    48     1     0     0
SMALL
USER_CHARGES

@<TRIPOS>ATOM
      1 PG          1.3389    2.5437    7.6910 P.3       1 GTP         1.5400
      2 O1G         1.4332    1.0417    7.8412 O.co2     1 GTP        -0.8909
      3 O2G         2.4595    3.4438    8.1619 O.co2     1 GTP        -0.8909
      4 O3G        -0.0540    3.0473    8.3781 O.3       1 GTP        -0.7980
      5 O3B         0.9907    2.9014    6.1371 O.3       1 GTP        -0.7612
      6 PB          0.6299    4.3378    5.4500 P.3       1 GTP         1.5847
      7 O1B        -0.6890    4.8244    6.0076 O.co2     1 GTP        -0.8859
      8 O2B         1.8639    5.2123    5.4582 O.co2     1 GTP        -0.8859
      9 O3A         0.4215    3.8453    3.9076 O.3       1 GTP        -0.7486
     10 PA          0.0330    4.7083    2.5757 P.3       1 GTP         1.5001
     11 O1A        -1.3584    5.2766    2.7529 O.co2     1 GTP        -0.8487
     12 O2A         1.2023    5.5996    2.2180 O.co2     1 GTP        -0.8487
     13 O5'         0.0178    3.5131    1.4595 O.3       1 GTP        -0.5474
     14 C5'        -0.8811    2.4285    1.6206 C.3       1 GTP         0.2547
     15 C4'        -0.1994    1.3333    2.4288 C.3       1 GTP         0.0926
     16 O4'        -1.1285    0.2356    2.5840 O.3       1 GTP        -0.3593
     17 C3'         1.0324    0.7610    1.7344 C.3       1 GTP         0.0907
     18 O3'         1.9175    0.2377    2.7247 O.3       1 GTP        -0.5209
     19 C2'         0.4468   -0.3802    0.9263 C.3       1 GTP         0.0305
     20 O2'         1.3993   -1.3703    0.5961 O.3       1 GTP        -0.5978
     21 C1'        -0.6159   -0.9100    1.8769 C.3       1 GTP         0.2339
     22 N9         -1.7127   -1.6108    1.2130 N.pl3     1 GTP        -0.1765
     23 C8         -2.8692   -1.0463    0.7355 C.ar      1 GTP         0.4947
     24 N7         -3.6707   -1.9381    0.1856 N.2       1 GTP        -0.5802
     25 C5         -3.0027   -3.1275    0.3134 C.ar      1 GTP         0.2279
     26 C6         -3.4659   -4.4142   -0.1355 C.ar      1 GTP         0.6513
     27 O6         -4.5328   -4.6133   -0.6980 O.2       1 GTP        -0.5111
     28 N1         -2.5102   -5.4606    0.1612 N.pl3     1 GTP        -0.4713
     29 C2         -1.2711   -5.2547    0.8113 C.ar      1 GTP         0.5256
     30 N2         -0.4228   -6.3256    1.0482 N.pl3     1 GTP        -0.8665
     31 N3         -0.9033   -3.9563    1.2146 N.pl3     1 GTP        -0.5398
     32 C4         -1.7979   -2.9400    0.9438 C.ar      1 GTP        -0.0275
     33 HOG3       -0.2625    4.0057    8.3626 H         1 GTP         0.4161
     34 H5'        -1.7771    2.7849    2.1387 H         1 GTP         0.0348
     35 H5''       -1.1654    2.0541    0.6320 H         1 GTP         0.0348
     36 H4'         0.0403    1.7078    3.4343 H         1 GTP         0.1215
     37 H3'         1.5907    1.4859    1.1353 H         1 GTP         0.0576
     38 HO3'        2.6839   -0.1150    2.2479 H         1 GTP         0.3842
     39 H2'        -0.0017    0.0018    0.0005 H         1 GTP         0.0252
     40 HO2'        0.9369   -2.0558    0.0825 H         1 GTP         0.4224
     41 H1'        -0.1998   -1.6319    2.6178 H         1 GTP         0.0745
     42 H8         -3.0691    0.0134    0.8177 H         1 GTP         0.1522
     43 HN1        -2.7468   -6.4119   -0.1177 H         1 GTP         0.3518
     44 HN21        0.4233   -6.1297    1.5018 H         1 GTP         0.4761
     45 HN22       -0.7261   -7.2071    0.7466 H         1 GTP         0.4761
     46 H46        -0.0124   -3.8015    1.6821 H         1 GTP         0.5030
@<TRIPOS>BOND
     1    1    2 2
     2    1    3 1
     3    1    4 1
     4    1    5 1
     5    4   33 1
     6    5    6 1
     7    6    7 2
     8    6    8 1
     9    6    9 1
    10    9   10 1
    11   10   11 2
    12   10   12 1
    13   10   13 1
    14   13   14 1
    15   14   15 1
    16   14   34 1
    17   14   35 1
    18   15   16 1
    19   15   17 1
    20   15   36 1
    21   16   21 1
    22   17   18 1
    23   17   19 1
    24   17   37 1
    25   18   38 1
    26   19   20 1
    27   19   21 1
    28   19   39 1
    29   20   40 1
    30   21   22 1
    31   21   41 1
    32   22   23 ar
    33   22   32 ar
    34   23   24 ar
    35   23   42 1
    36   24   25 ar
    37   25   26 ar
    38   25   32 ar
    39   26   27 2
    40   26   28 ar
    41   28   29 ar
    42   28   43 1
    43   29   30 1
    44   29   31 ar
    45   30   44 1
    46   30   45 1
    47   31   32 ar
    48   31   46 1
@<TRIPOS>SUBSTRUCTURE
     1 GTP         1 GROUP 0 A     ****
@<TRIPOS>MOLECULE
[[[5-(2-amino-6-oxo-1,3-dihydropurin-2-ylium-9-yl)-3,4-dihydroxy-tetrahydrofuran-2-yl]methoxy-oxido-phosphoryl]oxy-oxido-phosphoryl] hydrogen phosphate
   46    48     1     0     0
SMALL
USER_CHARGES

@<TRIPOS>ATOM
      1 PG          7.4510    4.0436   -5.3084 P.3       1 GTP         1.5400
      2 O1G         7.9789    5.4533   -5.4556 O.co2     1 GTP        -0.8909
      3 O2G         8.3200    2.8500   -5.6369 O.co2     1 GTP        -0.8909
      4 O3G         6.0595    3.9200   -6.1536 O.3       1 GTP        -0.7980
      5 O3B         6.8437    3.8580   -3.8049 O.3       1 GTP        -0.7612
      6 PB          7.6067    3.8569   -2.3615 P.3       1 GTP         1.5847
      7 O1B         8.5196    2.6528   -2.2966 O.co2     1 GTP        -0.8859
      8 O2B         8.1141    5.2517   -2.0706 O.co2     1 GTP        -0.8859
      9 O3A         6.3201    3.6190   -1.3854 O.3       1 GTP        -0.7486
     10 PA          6.2486    3.4952    0.2423 P.3       1 GTP         1.5001
     11 O1A         7.0063    2.2568    0.6697 O.co2     1 GTP        -0.8487
     12 O2A         6.5575    4.8483    0.8451 O.co2     1 GTP        -0.8487
     13 O5'         4.6405    3.2699    0.4378 O.3       1 GTP        -0.5474
     14 C5'         4.0922    1.9801    0.2227 C.3       1 GTP         0.2547
     15 C4'         2.5944    2.0310    0.4653 C.3       1 GTP         0.0926
     16 O4'         1.9327    2.5740   -0.6889 O.3       1 GTP        -0.3593
     17 C3'         1.9685    0.6634    0.6767 C.3       1 GTP         0.0907
     18 O3'         2.1425    0.1975    1.9977 O.3       1 GTP        -0.5209
     19 C2'         0.5176    0.9128    0.3099 C.3       1 GTP         0.0305
     20 O2'        -0.2103    1.4454    1.4152 O.3       1 GTP        -0.5978
     21 C1'         0.6219    1.9765   -0.7844 C.3       1 GTP         0.2339
     22 N9          0.4237    1.4496   -2.1357 N.pl3     1 GTP        -0.1765
     23 C8          1.1824    0.4874   -2.7540 C.ar      1 GTP         0.4947
     24 N7          0.7559    0.2220   -3.9737 N.2       1 GTP        -0.5802
     25 C5         -0.3234    1.0475   -4.1492 C.ar      1 GTP         0.2279
     26 C6         -1.1420    1.1360   -5.3297 C.ar      1 GTP         0.6513
     27 O6         -0.9760    0.4743   -6.3440 O.2       1 GTP        -0.5111
     28 N1         -2.1989    2.1138   -5.1762 N.pl3     1 GTP        -0.4713
     29 C2         -2.4100    2.8911   -4.0137 C.ar      1 GTP         0.5256
     30 N2         -3.4547    3.8016   -3.9653 N.pl3     1 GTP        -0.8665
     31 N3         -1.5548    2.7339   -2.9056 N.pl3     1 GTP        -0.5398
     32 C4         -0.5379    1.8078   -3.0266 C.ar      1 GTP        -0.0275
     33 HOG3        5.5903    3.0585   -6.1571 H         1 GTP         0.4161
     34 H5'         4.3028    1.6728   -0.8066 H         1 GTP         0.0348
     35 H5''        4.5677    1.2738    0.9106 H         1 GTP         0.0348
     36 H4'         2.3752    2.7029    1.3156 H         1 GTP         0.1215
     37 H3'         2.4336   -0.1217   -0.0015 H         1 GTP         0.0576
     38 HO3'        1.7160   -0.6716    2.0397 H         1 GTP         0.3842
     39 H2'         0.0316    0.0155   -0.0339 H         1 GTP         0.0252
     40 HO2'       -0.1608    0.7921    2.1351 H         1 GTP         0.4224
     41 H1'        -0.1474    2.7798   -0.6651 H         1 GTP         0.0745
     42 H8          2.0279    0.0203   -2.2675 H         1 GTP         0.1522
     43 HN1        -2.8350    2.2514   -5.9606 H         1 GTP         0.3518
     44 HN21       -3.5576    4.3154   -3.1374 H         1 GTP         0.4761
     45 HN22       -4.0202    3.8709   -4.7625 H         1 GTP         0.4761
     46 H46        -1.7022    3.2899   -2.0658 H         1 GTP         0.5030
@<TRIPOS>BOND
     1    1    2 2
     2    1    3 1
     3    1    4 1
     4    1    5 1
     5    4   33 1
     6    5    6 1
     7    6    7 2
     8    6    8 1
     9    6    9 1
    10    9   10 1
    11   10   11 2
    12   10   12 1
    13   10   13 1
    14   13   14 1
    15   14   15 1
    16   14   34 1
    17   14   35 1
    18   15   16 1
    19   15   17 1
    20   15   36 1
    21   16   21 1
    22   17   18 1
    23   17   19 1
    24   17   37 1
    25   18   38 1
    26   19   20 1
    27   19   21 1
    28   19   39 1
    29   20   40 1
    30   21   22 1
    31   21   41 1
    32   22   23 ar
    33   22   32 ar
    34   23   24 ar
    35   23   42 1
    36   24   25 ar
    37   25   26 ar
    38   25   32 ar
    39   26   27 2
    40   26   28 ar
    41   28   29 ar
    42   28   43 1
    43   29   30 1
    44   29   31 ar
    45   30   44 1
    46   30   45 1
    47   31   32 ar
    48   31   46 1
@<TRIPOS>SUBSTRUCTURE
     1 GTP         1 GROUP 0 A     ****
@<TRIPOS>MOLECULE
[[[5-(2-amino-6-oxo-1,3-dihydropurin-2-ylium-9-yl)-3,4-dihydroxy-tetrahydrofuran-2-yl]methoxy-oxido-phosphoryl]oxy-oxido-phosphoryl] hydrogen phosphate
   46    48     1     0     0
SMALL
USER_CHARGES

@<TRIPOS>ATOM
      1 PG         -1.6279    7.5527   -2.2492 P.3       1 GTP         1.5400
      2 O1G        -0.1629    7.8623   -2.4620 O.co2     1 GTP        -0.8909
      3 O2G        -2.5102    7.1362   -3.4050 O.co2     1 GTP        -0.8909
      4 O3G        -2.3232    8.8251   -1.4985 O.3       1 GTP        -0.7980
      5 O3B        -1.7699    6.4524   -1.0521 O.3       1 GTP        -0.7612
      6 PB         -3.1074    5.8778   -0.3129 P.3       1 GTP         1.5847
      7 O1B        -3.7613    7.0067    0.4522 O.co2     1 GTP        -0.8859
      8 O2B        -3.8869    5.0298   -1.2931 O.co2     1 GTP        -0.8859
      9 O3A        -2.4032    4.8441    0.7361 O.3       1 GTP        -0.7486
     10 PA         -3.0798    3.8627    1.8536 P.3       1 GTP         1.5001
     11 O1A        -3.7618    4.7157    2.9012 O.co2     1 GTP        -0.8487
     12 O2A        -3.8250    2.7565    1.1390 O.co2     1 GTP        -0.8487
     13 O5'        -1.7336    3.1724    2.4750 O.3       1 GTP        -0.5474
     14 C5'        -0.8811    2.4285    1.6206 C.3       1 GTP         0.2547
     15 C4'        -0.1994    1.3333    2.4288 C.3       1 GTP         0.0926
     16 O4'        -1.1285    0.2356    2.5840 O.3       1 GTP        -0.3593
     17 C3'         1.0324    0.7610    1.7344 C.3       1 GTP         0.0907
     18 O3'         1.9175    0.2377    2.7247 O.3       1 GTP        -0.5209
     19 C2'         0.4468   -0.3802    0.9263 C.3       1 GTP         0.0305
     20 O2'         1.3993   -1.3703    0.5961 O.3       1 GTP        -0.5978
     21 C1'        -0.6159   -0.9100    1.8769 C.3       1 GTP         0.2339
     22 N9         -1.7127   -1.6108    1.2130 N.pl3     1 GTP        -0.1765
     23 C8         -1.6311   -2.3341    0.0493 C.ar      1 GTP         0.4947
     24 N7         -2.7933   -2.8506   -0.3007 N.2       1 GTP        -0.5802
     25 C5         -3.6607   -2.4436    0.6786 C.ar      1 GTP         0.2279
     26 C6         -5.0651   -2.7506    0.7505 C.ar      1 GTP         0.6513
     27 O6         -5.6735   -3.4256   -0.0671 O.2       1 GTP        -0.5111
     28 N1         -5.6834   -2.1585    1.9182 N.pl3     1 GTP        -0.4713
     29 C2         -5.0007   -1.3738    2.8765 C.ar      1 GTP         0.5256
     30 N2         -5.6847   -0.8521    3.9640 N.pl3     1 GTP        -0.8665
     31 N3         -3.6227   -1.1271    2.7212 N.pl3     1 GTP        -0.5398
     32 C4         -3.0090   -1.6802    1.6149 C.ar      1 GTP        -0.0275
     33 HOG3       -3.2803    8.7775   -1.2887 H         1 GTP         0.4161
     34 H5'        -1.4800    1.9927    0.8146 H         1 GTP         0.0348
     35 H5''       -0.1367    3.1040    1.1872 H         1 GTP         0.0348
     36 H4'         0.0403    1.7078    3.4343 H         1 GTP         0.1215
     37 H3'         1.5907    1.4859    1.1353 H         1 GTP         0.0576
     38 HO3'        2.6839   -0.1150    2.2479 H         1 GTP         0.3842
     39 H2'        -0.0017    0.0018    0.0005 H         1 GTP         0.0252
     40 HO2'        2.0953   -0.9375    0.0709 H         1 GTP         0.4224
     41 H1'        -0.1998   -1.6319    2.6178 H         1 GTP         0.0745
     42 H8         -0.7029   -2.4474   -0.4941 H         1 GTP         0.1522
     43 HN1        -6.6800   -2.3183    2.0594 H         1 GTP         0.3518
     44 HN21       -5.1660   -0.3153    4.5987 H         1 GTP         0.4761
     45 HN22       -6.6415   -1.0545    4.0252 H         1 GTP         0.4761
     46 H46        -3.1256   -0.5638    3.4080 H         1 GTP         0.5030
@<TRIPOS>BOND
     1    1    2 2
     2    1    3 1
     3    1    4 1
     4    1    5 1
     5    4   33 1
     6    5    6 1
     7    6    7 2
     8    6    8 1
     9    6    9 1
    10    9   10 1
    11   10   11 2
    12   10   12 1
    13   10   13 1
    14   13   14 1
    15   14   15 1
    16   14   34 1
    17   14   35 1
    18   15   16 1
    19   15   17 1
    20   15   36 1
    21   16   21 1
    22   17   18 1
    23   17   19 1
    24   17   37 1
    25   18   38 1
    26   19   20 1
    27   19   21 1
    28   19   39 1
    29   20   40 1
    30   21   22 1
    31   21   41 1
    32   22   23 ar
    33   22   32 ar
    34   23   24 ar
    35   23   42 1
    36   24   25 ar
    37   25   26 ar
    38   25   32 ar
    39   26   27 2
    40   26   28 ar
    41   28   29 ar
    42   28   43 1
    43   29   30 1
    44   29   31 ar
    45   30   44 1
    46   30   45 1
    47   31   32 ar
    48   31   46 1
@<TRIPOS>SUBSTRUCTURE
     1 GTP         1 GROUP 0 A     ****
@<TRIPOS>MOLECULE
[[[5-(2-amino-6-oxo-1,3-dihydropurin-2-ylium-9-yl)-3,4-dihydroxy-tetrahydrofuran-2-yl]methoxy-oxido-phosphoryl]oxy-oxido-phosphoryl] hydrogen phosphate
   46    48     1     0     0
SMALL
USER_CHARGES

@<TRIPOS>ATOM
      1 PG         -5.2331    2.2095    3.6025 P.3       1 GTP         1.5400
      2 O1G        -3.7667    1.8660    3.7408 O.co2     1 GTP        -0.8909
      3 O2G        -5.7429    3.5924    3.9421 O.co2     1 GTP        -0.8909
      4 O3G        -6.1039    1.1146    4.4445 O.3       1 GTP        -0.7980
      5 O3B        -5.7311    1.8167    2.0986 O.3       1 GTP        -0.7612
      6 PB         -5.3155    2.4615    0.6574 P.3       1 GTP         1.5847
      7 O1B        -5.9555    1.6438   -0.4422 O.co2     1 GTP        -0.8859
      8 O2B        -5.4779    3.9637    0.7239 O.co2     1 GTP        -0.8859
      9 O3A        -3.7102    2.1671    0.6920 O.3       1 GTP        -0.7486
     10 PA         -2.5569    2.5166   -0.4115 P.3       1 GTP         1.5001
     11 O1A        -2.8377    1.7309   -1.6741 O.co2     1 GTP        -0.8487
     12 O2A        -2.3626    4.0167   -0.4504 O.co2     1 GTP        -0.8487
     13 O5'        -1.2434    1.9104    0.3515 O.3       1 GTP        -0.5474
     14 C5'        -0.8811    2.4285    1.6206 C.3       1 GTP         0.2547
     15 C4'        -0.1994    1.3333    2.4288 C.3       1 GTP         0.0926
     16 O4'        -1.1285    0.2356    2.5840 O.3       1 GTP        -0.3593
     17 C3'         1.0324    0.7610    1.7344 C.3       1 GTP         0.0907
     18 O3'         1.9175    0.2377    2.7247 O.3       1 GTP        -0.5209
     19 C2'         0.4468   -0.3802    0.9263 C.3       1 GTP         0.0305
     20 O2'         1.3993   -1.3703    0.5961 O.3       1 GTP        -0.5978
     21 C1'        -0.6159   -0.9100    1.8769 C.3       1 GTP         0.2339
     22 N9         -1.7127   -1.6108    1.2130 N.pl3     1 GTP        -0.1765
     23 C8         -2.8692   -1.0463    0.7355 C.ar      1 GTP         0.4947
     24 N7         -3.6707   -1.9381    0.1856 N.2       1 GTP        -0.5802
     25 C5         -3.0027   -3.1275    0.3134 C.ar      1 GTP         0.2279
     26 C6         -3.4659   -4.4142   -0.1355 C.ar      1 GTP         0.6513
     27 O6         -4.5328   -4.6133   -0.6980 O.2       1 GTP        -0.5111
     28 N1         -2.5102   -5.4606    0.1612 N.pl3     1 GTP        -0.4713
     29 C2         -1.2711   -5.2547    0.8113 C.ar      1 GTP         0.5256
     30 N2         -0.4228   -6.3256    1.0482 N.pl3     1 GTP        -0.8665
     31 N3         -0.9033   -3.9563    1.2146 N.pl3     1 GTP        -0.5398
     32 C4         -1.7979   -2.9400    0.9438 C.ar      1 GTP        -0.0275
     33 HOG3       -7.0809    1.2020    4.4530 H         1 GTP         0.4161
     34 H5'        -0.2033    3.2760    1.4769 H         1 GTP         0.0348
     35 H5''       -1.7841    2.7762    2.1323 H         1 GTP         0.0348
     36 H4'         0.0403    1.7078    3.4343 H         1 GTP         0.1215
     37 H3'         1.5907    1.4859    1.1353 H         1 GTP         0.0576
     38 HO3'        2.6839   -0.1150    2.2479 H         1 GTP         0.3842
     39 H2'        -0.0017    0.0018    0.0005 H         1 GTP         0.0252
     40 HO2'        2.0953   -0.9375    0.0709 H         1 GTP         0.4224
     41 H1'        -0.1998   -1.6319    2.6178 H         1 GTP         0.0745
     42 H8         -3.0691    0.0134    0.8177 H         1 GTP         0.1522
     43 HN1        -2.7468   -6.4119   -0.1177 H         1 GTP         0.3518
     44 HN21        0.4233   -6.1297    1.5018 H         1 GTP         0.4761
     45 HN22       -0.7261   -7.2071    0.7466 H         1 GTP         0.4761
     46 H46        -0.0124   -3.8015    1.6821 H         1 GTP         0.5030
@<TRIPOS>BOND
     1    1    2 2
     2    1    3 1
     3    1    4 1
     4    1    5 1
     5    4   33 1
     6    5    6 1
     7    6    7 2
     8    6    8 1
     9    6    9 1
    10    9   10 1
    11   10   11 2
    12   10   12 1
    13   10   13 1
    14   13   14 1
    15   14   15 1
    16   14   34 1
    17   14   35 1
    18   15   16 1
    19   15   17 1
    20   15   36 1
    21   16   21 1
    22   17   18 1
    23   17   19 1
    24   17   37 1
    25   18   38 1
    26   19   20 1
    27   19   21 1
    28   19   39 1
    29   20   40 1
    30   21   22 1
    31   21   41 1
    32   22   23 ar
    33   22   32 ar
    34   23   24 ar
    35   23   42 1
    36   24   25 ar
    37   25   26 ar
    38   25   32 ar
    39   26   27 2
    40   26   28 ar
    41   28   29 ar
    42   28   43 1
    43   29   30 1
    44   29   31 ar
    45   30   44 1
    46   30   45 1
    47   31   32 ar
    48   31   46 1
@<TRIPOS>SUBSTRUCTURE
     1 GTP         1 GROUP 0 A     ****
@<TRIPOS>MOLECULE
[[[5-(2-amino-6-oxo-1,3-dihydropurin-2-ylium-9-yl)-3,4-dihydroxy-tetrahydrofuran-2-yl]methoxy-oxido-phosphoryl]oxy-oxido-phosphoryl] hydrogen phosphate
   46    48     1     0     0
SMALL
USER_CHARGES

@<TRIPOS>ATOM
      1 PG         -5.9703    3.7201   -0.4105 P.3       1 GTP         1.5400
      2 O1G        -5.3006    2.5611    0.2936 O.co2     1 GTP        -0.8909
      3 O2G        -7.1439    4.4381    0.2180 O.co2     1 GTP        -0.8909
      4 O3G        -6.4003    3.2376   -1.9099 O.3       1 GTP        -0.7980
      5 O3B        -4.8360    4.8194   -0.8210 O.3       1 GTP        -0.7612
      6 PB         -3.9082    5.7695    0.1287 P.3       1 GTP         1.5847
      7 O1B        -2.9192    6.5095   -0.7442 O.co2     1 GTP        -0.8859
      8 O2B        -4.7948    6.4983    1.1138 O.co2     1 GTP        -0.8859
      9 O3A        -3.1286    4.6119    0.9755 O.3       1 GTP        -0.7486
     10 PA         -2.0037    4.7528    2.1522 P.3       1 GTP         1.5001
     11 O1A        -0.7615    5.3866    1.5644 O.co2     1 GTP        -0.8487
     12 O2A        -2.6641    5.3249    3.3876 O.co2     1 GTP        -0.8487
     13 O5'        -1.7336    3.1724    2.4750 O.3       1 GTP        -0.5474
     14 C5'        -0.8811    2.4285    1.6206 C.3       1 GTP         0.2547
     15 C4'        -0.1994    1.3333    2.4288 C.3       1 GTP         0.0926
     16 O4'        -1.1285    0.2356    2.5840 O.3       1 GTP        -0.3593
     17 C3'         1.0324    0.7610    1.7344 C.3       1 GTP         0.0907
     18 O3'         1.9175    0.2377    2.7247 O.3       1 GTP        -0.5209
     19 C2'         0.4468   -0.3802    0.9263 C.3       1 GTP         0.0305
     20 O2'         1.3993   -1.3703    0.5961 O.3       1 GTP        -0.5978
     21 C1'        -0.6159   -0.9100    1.8769 C.3       1 GTP         0.2339
     22 N9         -1.7127   -1.6108    1.2130 N.pl3     1 GTP        -0.1765
     23 C8         -3.0389   -1.2578    1.2391 C.ar      1 GTP         0.4947
     24 N7         -3.7909   -2.0880    0.5425 N.2       1 GTP        -0.5802
     25 C5         -2.9127   -3.0150    0.0458 C.ar      1 GTP         0.2279
     26 C6         -3.2467   -4.1411   -0.7860 C.ar      1 GTP         0.6513
     27 O6         -4.3761   -4.4189   -1.1621 O.2       1 GTP        -0.5111
     28 N1         -2.0748   -4.9191   -1.1296 N.pl3     1 GTP        -0.4713
     29 C2         -0.7595   -4.6181   -0.7058 C.ar      1 GTP         0.5256
     30 N2          0.2985   -5.4268   -1.0920 N.pl3     1 GTP        -0.8665
     31 N3         -0.5304   -3.4919    0.1084 N.pl3     1 GTP        -0.5398
     32 C4         -1.6318   -2.7332    0.4512 C.ar      1 GTP        -0.0275
     33 HOG3       -6.8501    3.8823   -2.4968 H         1 GTP         0.4161
     34 H5'        -1.4800    1.9927    0.8146 H         1 GTP         0.0348
     35 H5''       -0.1367    3.1040    1.1872 H         1 GTP         0.0348
     36 H4'         0.0403    1.7078    3.4343 H         1 GTP         0.1215
     37 H3'         1.5907    1.4859    1.1353 H         1 GTP         0.0576
     38 HO3'        2.1521    0.9800    3.3017 H         1 GTP         0.3842
     39 H2'        -0.0017    0.0018    0.0005 H         1 GTP         0.0252
     40 HO2'        1.7495   -1.7243    1.4324 H         1 GTP         0.4224
     41 H1'        -0.1998   -1.6319    2.6178 H         1 GTP         0.0745
     42 H8         -3.3933   -0.3909    1.7800 H         1 GTP         0.1522
     43 HN1        -2.2071   -5.7408   -1.7178 H         1 GTP         0.3518
     44 HN21        0.0848   -6.1964   -1.6597 H         1 GTP         0.4761
     45 HN22        1.1896   -5.1747   -0.7719 H         1 GTP         0.4761
     46 H46         0.4142   -3.2695    0.4160 H         1 GTP         0.5030
@<TRIPOS>BOND
     1    1    2 2
     2    1    3 1
     3    1    4 1
     4    1    5 1
     5    4   33 1
     6    5    6 1
     7    6    7 2
     8    6    8 1
     9    6    9 1
    10    9   10 1
    11   10   11 2
    12   10   12 1
    13   10   13 1
    14   13   14 1
    15   14   15 1
    16   14   34 1
    17   14   35 1
    18   15   16 1
    19   15   17 1
    20   15   36 1
    21   16   21 1
    22   17   18 1
    23   17   19 1
    24   17   37 1
    25   18   38 1
    26   19   20 1
    27   19   21 1
    28   19   39 1
    29   20   40 1
    30   21   22 1
    31   21   41 1
    32   22   23 ar
    33   22   32 ar
    34   23   24 ar
    35   23   42 1
    36   24   25 ar
    37   25   26 ar
    38   25   32 ar
    39   26   27 2
    40   26   28 ar
    41   28   29 ar
    42   28   43 1
    43   29   30 1
    44   29   31 ar
    45   30   44 1
    46   30   45 1
    47   31   32 ar
    48   31   46 1
@<TRIPOS>SUBSTRUCTURE
     1 GTP         1 GROUP 0 A     ****
@<TRIPOS>MOLECULE
[[[5-(2-amino-6-oxo-1,3-dihydropurin-2-ylium-9-yl)-3,4-dihydroxy-tetrahydrofuran-2-yl]methoxy-oxido-phosphoryl]oxy-oxido-phosphoryl] hydrogen phosphate
   46    48     1     0     0
SMALL
USER_CHARGES

@<TRIPOS>ATOM
      1 PG         -1.8330    3.3303   -4.7096 P.3       1 GTP         1.5400
      2 O1G        -1.0479    4.3120   -5.5505 O.co2     1 GTP        -0.8909
      3 O2G        -1.8679    1.8596   -5.0613 O.co2     1 GTP        -0.8909
      4 O3G        -3.3689    3.8692   -4.5815 O.3       1 GTP        -0.7980
      5 O3B        -1.3844    3.4903   -3.1485 O.3       1 GTP        -0.7612
      6 PB         -1.3288    4.8235   -2.2077 P.3       1 GTP         1.5847
      7 O1B        -0.2754    5.7602   -2.7559 O.co2     1 GTP        -0.8859
      8 O2B        -2.7401    5.2929   -1.9334 O.co2     1 GTP        -0.8859
      9 O3A        -0.7889    4.1455   -0.8244 O.3       1 GTP        -0.7486
     10 PA         -0.4665    4.8322    0.6228 P.3       1 GTP         1.5001
     11 O1A         0.6860    5.7988    0.4566 O.co2     1 GTP        -0.8487
     12 O2A        -1.7709    5.2708    1.2521 O.co2     1 GTP        -0.8487
     13 O5'         0.0178    3.5131    1.4595 O.3       1 GTP        -0.5474
     14 C5'        -0.8811    2.4285    1.6206 C.3       1 GTP         0.2547
     15 C4'        -0.1994    1.3333    2.4288 C.3       1 GTP         0.0926
     16 O4'        -1.1285    0.2356    2.5840 O.3       1 GTP        -0.3593
     17 C3'         1.0324    0.7610    1.7344 C.3       1 GTP         0.0907
     18 O3'         1.9175    0.2377    2.7247 O.3       1 GTP        -0.5209
     19 C2'         0.4468   -0.3802    0.9263 C.3       1 GTP         0.0305
     20 O2'         1.3993   -1.3703    0.5961 O.3       1 GTP        -0.5978
     21 C1'        -0.6159   -0.9100    1.8769 C.3       1 GTP         0.2339
     22 N9         -1.7127   -1.6108    1.2130 N.pl3     1 GTP        -0.1765
     23 C8         -1.6311   -2.3341    0.0493 C.ar      1 GTP         0.4947
     24 N7         -2.7933   -2.8506   -0.3007 N.2       1 GTP        -0.5802
     25 C5         -3.6607   -2.4436    0.6786 C.ar      1 GTP         0.2279
     26 C6         -5.0651   -2.7506    0.7505 C.ar      1 GTP         0.6513
     27 O6         -5.6735   -3.4256   -0.0671 O.2       1 GTP        -0.5111
     28 N1         -5.6834   -2.1585    1.9182 N.pl3     1 GTP        -0.4713
     29 C2         -5.0007   -1.3738    2.8765 C.ar      1 GTP         0.5256
     30 N2         -5.6847   -0.8521    3.9640 N.pl3     1 GTP        -0.8665
     31 N3         -3.6227   -1.1271    2.7212 N.pl3     1 GTP        -0.5398
     32 C4         -3.0090   -1.6802    1.6149 C.ar      1 GTP        -0.0275
     33 HOG3       -4.0085    3.3373   -4.0616 H         1 GTP         0.4161
     34 H5'        -1.7771    2.7849    2.1387 H         1 GTP         0.0348
     35 H5''       -1.1654    2.0541    0.6320 H         1 GTP         0.0348
     36 H4'         0.0403    1.7078    3.4343 H         1 GTP         0.1215
     37 H3'         1.5907    1.4859    1.1353 H         1 GTP         0.0576
     38 HO3'        2.6839   -0.1150    2.2479 H         1 GTP         0.3842
     39 H2'        -0.0017    0.0018    0.0005 H         1 GTP         0.0252
     40 HO2'        2.0953   -0.9375    0.0709 H         1 GTP         0.4224
     41 H1'        -0.1998   -1.6319    2.6178 H         1 GTP         0.0745
     42 H8         -0.7029   -2.4474   -0.4941 H         1 GTP         0.1522
     43 HN1        -6.6800   -2.3183    2.0594 H         1 GTP         0.3518
     44 HN21       -5.1660   -0.3153    4.5987 H         1 GTP         0.4761
     45 HN22       -6.6415   -1.0545    4.0252 H         1 GTP         0.4761
     46 H46        -3.1256   -0.5638    3.4080 H         1 GTP         0.5030
@<TRIPOS>BOND
     1    1    2 2
     2    1    3 1
     3    1    4 1
     4    1    5 1
     5    4   33 1
     6    5    6 1
     7    6    7 2
     8    6    8 1
     9    6    9 1
    10    9   10 1
    11   10   11 2
    12   10   12 1
    13   10   13 1
    14   13   14 1
    15   14   15 1
    16   14   34 1
    17   14   35 1
    18   15   16 1
    19   15   17 1
    20   15   36 1
    21   16   21 1
    22   17   18 1
    23   17   19 1
    24   17   37 1
    25   18   38 1
    26   19   20 1
    27   19   21 1
    28   19   39 1
    29   20   40 1
    30   21   22 1
    31   21   41 1
    32   22   23 ar
    33   22   32 ar
    34   23   24 ar
    35   23   42 1
    36   24   25 ar
    37   25   26 ar
    38   25   32 ar
    39   26   27 2
    40   26   28 ar
    41   28   29 ar
    42   28   43 1
    43   29   30 1
    44   29   31 ar
    45   30   44 1
    46   30   45 1
    47   31   32 ar
    48   31   46 1
@<TRIPOS>SUBSTRUCTURE
     1 GTP         1 GROUP 0 A     ****
@<TRIPOS>MOLECULE
[[[5-(2-amino-6-oxo-1,3-dihydropurin-2-ylium-9-yl)-3,4-dihydroxy-tetrahydrofuran-2-yl]methoxy-oxido-phosphoryl]oxy-oxido-phosphoryl] hydrogen phosphate
   46    48     1     0     0
SMALL
USER_CHARGES

@<TRIPOS>ATOM
      1 PG         -0.8955    3.4464   -4.6620 P.3       1 GTP         1.5400
      2 O1G        -2.3310    3.2877   -5.1110 O.co2     1 GTP        -0.8909
      3 O2G         0.0127    4.4686   -5.3086 O.co2     1 GTP        -0.8909
      4 O3G        -0.1660    1.9874   -4.7314 O.3       1 GTP        -0.7980
      5 O3B        -0.8655    3.6604   -3.0443 O.3       1 GTP        -0.7612
      6 PB         -1.4165    4.9058   -2.1436 P.3       1 GTP         1.5847
      7 O1B        -0.5984    6.1363   -2.4657 O.co2     1 GTP        -0.8859
      8 O2B        -2.9279    4.9232   -2.1981 O.co2     1 GTP        -0.8859
      9 O3A        -1.0127    4.3553   -0.6607 O.3       1 GTP        -0.7486
     10 PA          0.4528    3.9705   -0.0493 P.3       1 GTP         1.5001
     11 O1A         1.0046    2.7881   -0.8159 O.co2     1 GTP        -0.8487
     12 O2A         1.2580    5.2411    0.1148 O.co2     1 GTP        -0.8487
     13 O5'         0.0178    3.5131    1.4595 O.3       1 GTP        -0.5474
     14 C5'        -0.8811    2.4285    1.6206 C.3       1 GTP         0.2547
     15 C4'        -0.1994    1.3333    2.4288 C.3       1 GTP         0.0926
     16 O4'        -1.1285    0.2356    2.5840 O.3       1 GTP        -0.3593
     17 C3'         1.0324    0.7610    1.7344 C.3       1 GTP         0.0907
     18 O3'         1.9175    0.2377    2.7247 O.3       1 GTP        -0.5209
     19 C2'         0.4468   -0.3802    0.9263 C.3       1 GTP         0.0305
     20 O2'         1.3993   -1.3703    0.5961 O.3       1 GTP        -0.5978
     21 C1'        -0.6159   -0.9100    1.8769 C.3       1 GTP         0.2339
     22 N9         -1.7127   -1.6108    1.2130 N.pl3     1 GTP        -0.1765
     23 C8         -1.6092   -2.7449    0.4467 C.ar      1 GTP         0.4947
     24 N7         -2.7778   -3.1416   -0.0191 N.2       1 GTP        -0.5802
     25 C5         -3.6725   -2.2253    0.4675 C.ar      1 GTP         0.2279
     26 C6         -5.0932   -2.2202    0.2371 C.ar      1 GTP         0.6513
     27 O6         -5.6933   -3.0474   -0.4337 O.2       1 GTP        -0.5111
     28 N1         -5.7390   -1.1061    0.8992 N.pl3     1 GTP        -0.4713
     29 C2         -5.0661   -0.1368    1.6789 C.ar      1 GTP         0.5256
     30 N2         -5.7774    0.8934    2.2749 N.pl3     1 GTP        -0.8665
     31 N3         -3.6705   -0.2251    1.8481 N.pl3     1 GTP        -0.5398
     32 C4         -3.0303   -1.2785    1.2262 C.ar      1 GTP        -0.0275
     33 HOG3        0.7771    1.9239   -4.4688 H         1 GTP         0.4161
     34 H5'        -1.7771    2.7849    2.1387 H         1 GTP         0.0348
     35 H5''       -1.1654    2.0541    0.6320 H         1 GTP         0.0348
     36 H4'         0.0403    1.7078    3.4343 H         1 GTP         0.1215
     37 H3'         1.5907    1.4859    1.1353 H         1 GTP         0.0576
     38 HO3'        2.6839   -0.1150    2.2479 H         1 GTP         0.3842
     39 H2'        -0.0017    0.0018    0.0005 H         1 GTP         0.0252
     40 HO2'        2.0953   -0.9375    0.0709 H         1 GTP         0.4224
     41 H1'        -0.1998   -1.6319    2.6178 H         1 GTP         0.0745
     42 H8         -0.6610   -3.2324    0.2653 H         1 GTP         0.1522
     43 HN1        -6.7487   -1.0139    0.7961 H         1 GTP         0.3518
     44 HN21       -5.2644    1.5388    2.8044 H         1 GTP         0.4761
     45 HN22       -6.7459    0.9078    2.1265 H         1 GTP         0.4761
     46 H46        -3.1807    0.4690    2.4089 H         1 GTP         0.5030
@<TRIPOS>BOND
     1    1    2 2
     2    1    3 1
     3    1    4 1
     4    1    5 1
     5    4   33 1
     6    5    6 1
     7    6    7 2
     8    6    8 1
     9    6    9 1
    10    9   10 1
    11   10   11 2
    12   10   12 1
    13   10   13 1
    14   13   14 1
    15   14   15 1
    16   14   34 1
    17   14   35 1
    18   15   16 1
    19   15   17 1
    20   15   36 1
    21   16   21 1
    22   17   18 1
    23   17   19 1
    24   17   37 1
    25   18   38 1
    26   19   20 1
    27   19   21 1
    28   19   39 1
    29   20   40 1
    30   21   22 1
    31   21   41 1
    32   22   23 ar
    33   22   32 ar
    34   23   24 ar
    35   23   42 1
    36   24   25 ar
    37   25   26 ar
    38   25   32 ar
    39   26   27 2
    40   26   28 ar
    41   28   29 ar
    42   28   43 1
    43   29   30 1
    44   29   31 ar
    45   30   44 1
    46   30   45 1
    47   31   32 ar
    48   31   46 1
@<TRIPOS>SUBSTRUCTURE
     1 GTP         1 GROUP 0 A     ****
@<TRIPOS>MOLECULE
[[[5-(2-amino-6-oxo-1,3-dihydropurin-2-ylium-9-yl)-3,4-dihydroxy-tetrahydrofuran-2-yl]methoxy-oxido-phosphoryl]oxy-oxido-phosphoryl] hydrogen phosphate
   46    48     1     0     0
SMALL
USER_CHARGES

@<TRIPOS>ATOM
      1 PG         -0.9296    9.6196    1.1082 P.3       1 GTP         1.5400
      2 O1G        -1.7034    9.9304   -0.1536 O.co2     1 GTP        -0.8909
      3 O2G        -1.2626   10.3076    2.4134 O.co2     1 GTP        -0.8909
      4 O3G         0.6614    9.8254    0.8048 O.3       1 GTP        -0.7980
      5 O3B        -0.9284    8.0050    1.3465 O.3       1 GTP        -0.7612
      6 PB         -2.1636    7.0000    1.7070 P.3       1 GTP         1.5847
      7 O1B        -2.6854    7.3474    3.0834 O.co2     1 GTP        -0.8859
      8 O2B        -3.0856    6.9032    0.5119 O.co2     1 GTP        -0.8859
      9 O3A        -1.3431    5.5904    1.7745 O.3       1 GTP        -0.7486
     10 PA         -0.4665    4.8322    0.6228 P.3       1 GTP         1.5001
     11 O1A        -1.3914    4.4265   -0.5043 O.co2     1 GTP        -0.8487
     12 O2A         0.7845    5.6405    0.3557 O.co2     1 GTP        -0.8487
     13 O5'         0.0178    3.5131    1.4595 O.3       1 GTP        -0.5474
     14 C5'        -0.8811    2.4285    1.6206 C.3       1 GTP         0.2547
     15 C4'        -0.1994    1.3333    2.4288 C.3       1 GTP         0.0926
     16 O4'        -1.1285    0.2356    2.5840 O.3       1 GTP        -0.3593
     17 C3'         1.0324    0.7610    1.7344 C.3       1 GTP         0.0907
     18 O3'         1.9175    0.2377    2.7247 O.3       1 GTP        -0.5209
     19 C2'         0.4468   -0.3802    0.9263 C.3       1 GTP         0.0305
     20 O2'         1.3993   -1.3703    0.5961 O.3       1 GTP        -0.5978
     21 C1'        -0.6159   -0.9100    1.8769 C.3       1 GTP         0.2339
     22 N9         -1.7127   -1.6108    1.2130 N.pl3     1 GTP        -0.1765
     23 C8         -1.6311   -2.3341    0.0493 C.ar      1 GTP         0.4947
     24 N7         -2.7933   -2.8506   -0.3007 N.2       1 GTP        -0.5802
     25 C5         -3.6607   -2.4436    0.6786 C.ar      1 GTP         0.2279
     26 C6         -5.0651   -2.7506    0.7505 C.ar      1 GTP         0.6513
     27 O6         -5.6735   -3.4256   -0.0671 O.2       1 GTP        -0.5111
     28 N1         -5.6834   -2.1585    1.9182 N.pl3     1 GTP        -0.4713
     29 C2         -5.0007   -1.3738    2.8765 C.ar      1 GTP         0.5256
     30 N2         -5.6847   -0.8521    3.9640 N.pl3     1 GTP        -0.8665
     31 N3         -3.6227   -1.1271    2.7212 N.pl3     1 GTP        -0.5398
     32 C4         -3.0090   -1.6802    1.6149 C.ar      1 GTP        -0.0275
     33 HOG3        1.3003    9.6609    1.5308 H         1 GTP         0.4161
     34 H5'        -1.7771    2.7849    2.1387 H         1 GTP         0.0348
     35 H5''       -1.1654    2.0541    0.6320 H         1 GTP         0.0348
     36 H4'         0.0403    1.7078    3.4343 H         1 GTP         0.1215
     37 H3'         1.5907    1.4859    1.1353 H         1 GTP         0.0576
     38 HO3'        2.1521    0.9800    3.3017 H         1 GTP         0.3842
     39 H2'        -0.0017    0.0018    0.0005 H         1 GTP         0.0252
     40 HO2'        2.0953   -0.9375    0.0709 H         1 GTP         0.4224
     41 H1'        -0.1998   -1.6319    2.6178 H         1 GTP         0.0745
     42 H8         -0.7029   -2.4474   -0.4941 H         1 GTP         0.1522
     43 HN1        -6.6800   -2.3183    2.0594 H         1 GTP         0.3518
     44 HN21       -5.1660   -0.3153    4.5987 H         1 GTP         0.4761
     45 HN22       -6.6415   -1.0545    4.0252 H         1 GTP         0.4761
     46 H46        -3.1256   -0.5638    3.4080 H         1 GTP         0.5030
@<TRIPOS>BOND
     1    1    2 2
     2    1    3 1
     3    1    4 1
     4    1    5 1
     5    4   33 1
     6    5    6 1
     7    6    7 2
     8    6    8 1
     9    6    9 1
    10    9   10 1
    11   10   11 2
    12   10   12 1
    13   10   13 1
    14   13   14 1
    15   14   15 1
    16   14   34 1
    17   14   35 1
    18   15   16 1
    19   15   17 1
    20   15   36 1
    21   16   21 1
    22   17   18 1
    23   17   19 1
    24   17   37 1
    25   18   38 1
    26   19   20 1
    27   19   21 1
    28   19   39 1
    29   20   40 1
    30   21   22 1
    31   21   41 1
    32   22   23 ar
    33   22   32 ar
    34   23   24 ar
    35   23   42 1
    36   24   25 ar
    37   25   26 ar
    38   25   32 ar
    39   26   27 2
    40   26   28 ar
    41   28   29 ar
    42   28   43 1
    43   29   30 1
    44   29   31 ar
    45   30   44 1
    46   30   45 1
    47   31   32 ar
    48   31   46 1
@<TRIPOS>SUBSTRUCTURE
     1 GTP         1 GROUP 0 A     ****
@<TRIPOS>MOLECULE
[[[5-(2-amino-6-oxo-1,3-dihydropurin-2-ylium-9-yl)-3,4-dihydroxy-tetrahydrofuran-2-yl]methoxy-oxido-phosphoryl]oxy-oxido-phosphoryl] hydrogen phosphate
   46    48     1     0     0
SMALL
USER_CHARGES

@<TRIPOS>ATOM
      1 PG         -4.1788    5.5291   -2.9948 P.3       1 GTP         1.5400
      2 O1G        -4.0526    4.7308   -4.2731 O.co2     1 GTP        -0.8909
      3 O2G        -5.5010    5.6269   -2.2668 O.co2     1 GTP        -0.8909
      4 O3G        -3.6257    7.0404   -3.2704 O.3       1 GTP        -0.7980
      5 O3B        -3.0318    5.0346   -1.9443 O.3       1 GTP        -0.7612
      6 PB         -1.4165    4.9058   -2.1436 P.3       1 GTP         1.5847
      7 O1B        -1.1390    3.8334   -3.1734 O.co2     1 GTP        -0.8859
      8 O2B        -0.8222    6.2914   -2.2635 O.co2     1 GTP        -0.8859
      9 O3A        -1.0127    4.3553   -0.6607 O.3       1 GTP        -0.7486
     10 PA          0.4528    3.9705   -0.0493 P.3       1 GTP         1.5001
     11 O1A         1.0046    2.7881   -0.8159 O.co2     1 GTP        -0.8487
     12 O2A         1.2580    5.2411    0.1148 O.co2     1 GTP        -0.8487
     13 O5'         0.0178    3.5131    1.4595 O.3       1 GTP        -0.5474
     14 C5'        -0.8811    2.4285    1.6206 C.3       1 GTP         0.2547
     15 C4'        -0.1994    1.3333    2.4288 C.3       1 GTP         0.0926
     16 O4'        -1.1285    0.2356    2.5840 O.3       1 GTP        -0.3593
     17 C3'         1.0324    0.7610    1.7344 C.3       1 GTP         0.0907
     18 O3'         1.9175    0.2377    2.7247 O.3       1 GTP        -0.5209
     19 C2'         0.4468   -0.3802    0.9263 C.3       1 GTP         0.0305
     20 O2'         1.3993   -1.3703    0.5961 O.3       1 GTP        -0.5978
     21 C1'        -0.6159   -0.9100    1.8769 C.3       1 GTP         0.2339
     22 N9         -1.7127   -1.6108    1.2130 N.pl3     1 GTP        -0.1765
     23 C8         -1.7789   -2.9564    0.9503 C.ar      1 GTP         0.4947
     24 N7         -2.8980   -3.2916    0.3377 N.2       1 GTP        -0.5802
     25 C5         -3.5824   -2.1127    0.2000 C.ar      1 GTP         0.2279
     26 C6         -4.8740   -1.9471   -0.4133 C.ar      1 GTP         0.6513
     27 O6         -5.5366   -2.8529   -0.8978 O.2       1 GTP        -0.5111
     28 N1         -5.3036   -0.5645   -0.3916 N.pl3     1 GTP        -0.4713
     29 C2         -4.5545    0.4997    0.1619 C.ar      1 GTP         0.5256
     30 N2         -5.0561    1.7921    0.1348 N.pl3     1 GTP        -0.8665
     31 N3         -3.2977    0.2393    0.7420 N.pl3     1 GTP        -0.5398
     32 C4         -2.8643   -1.0716    0.7336 C.ar      1 GTP        -0.0275
     33 HOG3       -3.6414    7.6854   -2.5314 H         1 GTP         0.4161
     34 H5'        -1.7771    2.7849    2.1387 H         1 GTP         0.0348
     35 H5''       -1.1654    2.0541    0.6320 H         1 GTP         0.0348
     36 H4'         0.0403    1.7078    3.4343 H         1 GTP         0.1215
     37 H3'         1.5907    1.4859    1.1353 H         1 GTP         0.0576
     38 HO3'        2.6839   -0.1150    2.2479 H         1 GTP         0.3842
     39 H2'        -0.0017    0.0018    0.0005 H         1 GTP         0.0252
     40 HO2'        2.0953   -0.9375    0.0709 H         1 GTP         0.4224
     41 H1'        -0.1998   -1.6319    2.6178 H         1 GTP         0.0745
     42 H8         -0.9852   -3.6367    1.2276 H         1 GTP         0.1522
     43 HN1        -6.2089   -0.3428   -0.8039 H         1 GTP         0.3518
     44 HN21       -4.4981    2.4933    0.5311 H         1 GTP         0.4761
     45 HN22       -5.9352    1.9183   -0.2793 H         1 GTP         0.4761
     46 H46        -2.7541    1.0010    1.1428 H         1 GTP         0.5030
@<TRIPOS>BOND
     1    1    2 2
     2    1    3 1
     3    1    4 1
     4    1    5 1
     5    4   33 1
     6    5    6 1
     7    6    7 2
     8    6    8 1
     9    6    9 1
    10    9   10 1
    11   10   11 2
    12   10   12 1
    13   10   13 1
    14   13   14 1
    15   14   15 1
    16   14   34 1
    17   14   35 1
    18   15   16 1
    19   15   17 1
    20   15   36 1
    21   16   21 1
    22   17   18 1
    23   17   19 1
    24   17   37 1
    25   18   38 1
    26   19   20 1
    27   19   21 1
    28   19   39 1
    29   20   40 1
    30   21   22 1
    31   21   41 1
    32   22   23 ar
    33   22   32 ar
    34   23   24 ar
    35   23   42 1
    36   24   25 ar
    37   25   26 ar
    38   25   32 ar
    39   26   27 2
    40   26   28 ar
    41   28   29 ar
    42   28   43 1
    43   29   30 1
    44   29   31 ar
    45   30   44 1
    46   30   45 1
    47   31   32 ar
    48   31   46 1
@<TRIPOS>SUBSTRUCTURE
     1 GTP         1 GROUP 0 A     ****
@<TRIPOS>MOLECULE
[[[5-(2-amino-6-oxo-1,3-dihydropurin-2-ylium-9-yl)-3,4-dihydroxy-tetrahydrofuran-2-yl]methoxy-oxido-phosphoryl]oxy-oxido-phosphoryl] hydrogen phosphate
   46    48     1     0     0
SMALL
USER_CHARGES

@<TRIPOS>ATOM
      1 PG         -2.6209    9.2508    1.7150 P.3       1 GTP         1.5400
      2 O1G        -1.3730   10.1050    1.7347 O.co2     1 GTP        -0.8909
      3 O2G        -3.6946    9.4671    0.6719 O.co2     1 GTP        -0.8909
      4 O3G        -3.3138    9.3106    3.1923 O.3       1 GTP        -0.7980
      5 O3B        -2.1874    7.6773    1.7095 O.3       1 GTP        -0.7612
      6 PB         -1.4223    6.8072    0.5592 P.3       1 GTP         1.5847
      7 O1B        -2.3200    6.7124   -0.6543 O.co2     1 GTP        -0.8859
      8 O2B         0.0088    7.2842    0.4501 O.co2     1 GTP        -0.8859
      9 O3A        -1.3723    5.3610    1.3148 O.3       1 GTP        -0.7486
     10 PA         -2.5926    4.4187    1.8556 P.3       1 GTP         1.5001
     11 O1A        -3.3211    5.1526    2.9606 O.co2     1 GTP        -0.8487
     12 O2A        -3.3385    3.8605    0.6632 O.co2     1 GTP        -0.8487
     13 O5'        -1.7336    3.1724    2.4750 O.3       1 GTP        -0.5474
     14 C5'        -0.8811    2.4285    1.6206 C.3       1 GTP         0.2547
     15 C4'        -0.1994    1.3333    2.4288 C.3       1 GTP         0.0926
     16 O4'        -1.1285    0.2356    2.5840 O.3       1 GTP        -0.3593
     17 C3'         1.0324    0.7610    1.7344 C.3       1 GTP         0.0907
     18 O3'         1.9175    0.2377    2.7247 O.3       1 GTP        -0.5209
     19 C2'         0.4468   -0.3802    0.9263 C.3       1 GTP         0.0305
     20 O2'         1.3993   -1.3703    0.5961 O.3       1 GTP        -0.5978
     21 C1'        -0.6159   -0.9100    1.8769 C.3       1 GTP         0.2339
     22 N9         -1.7127   -1.6108    1.2130 N.pl3     1 GTP        -0.1765
     23 C8         -1.6311   -2.3341    0.0493 C.ar      1 GTP         0.4947
     24 N7         -2.7933   -2.8506   -0.3007 N.2       1 GTP        -0.5802
     25 C5         -3.6607   -2.4436    0.6786 C.ar      1 GTP         0.2279
     26 C6         -5.0651   -2.7506    0.7505 C.ar      1 GTP         0.6513
     27 O6         -5.6735   -3.4256   -0.0671 O.2       1 GTP        -0.5111
     28 N1         -5.6834   -2.1585    1.9182 N.pl3     1 GTP        -0.4713
     29 C2         -5.0007   -1.3738    2.8765 C.ar      1 GTP         0.5256
     30 N2         -5.6847   -0.8521    3.9640 N.pl3     1 GTP        -0.8665
     31 N3         -3.6227   -1.1271    2.7212 N.pl3     1 GTP        -0.5398
     32 C4         -3.0090   -1.6802    1.6149 C.ar      1 GTP        -0.0275
     33 HOG3       -4.1400    8.8032    3.3413 H         1 GTP         0.4161
     34 H5'        -1.4800    1.9927    0.8146 H         1 GTP         0.0348
     35 H5''       -0.1367    3.1040    1.1872 H         1 GTP         0.0348
     36 H4'         0.0403    1.7078    3.4343 H         1 GTP         0.1215
     37 H3'         1.5907    1.4859    1.1353 H         1 GTP         0.0576
     38 HO3'        2.1521    0.9800    3.3017 H         1 GTP         0.3842
     39 H2'        -0.0017    0.0018    0.0005 H         1 GTP         0.0252
     40 HO2'        1.7495   -1.7243    1.4324 H         1 GTP         0.4224
     41 H1'        -0.1998   -1.6319    2.6178 H         1 GTP         0.0745
     42 H8         -0.7029   -2.4474   -0.4941 H         1 GTP         0.1522
     43 HN1        -6.6800   -2.3183    2.0594 H         1 GTP         0.3518
     44 HN21       -6.6414   -1.0549    4.0256 H         1 GTP         0.4761
     45 HN22       -5.1658   -0.3157    4.5989 H         1 GTP         0.4761
     46 H46        -3.1256   -0.5638    3.4080 H         1 GTP         0.5030
@<TRIPOS>BOND
     1    1    2 2
     2    1    3 1
     3    1    4 1
     4    1    5 1
     5    4   33 1
     6    5    6 1
     7    6    7 2
     8    6    8 1
     9    6    9 1
    10    9   10 1
    11   10   11 2
    12   10   12 1
    13   10   13 1
    14   13   14 1
    15   14   15 1
    16   14   34 1
    17   14   35 1
    18   15   16 1
    19   15   17 1
    20   15   36 1
    21   16   21 1
    22   17   18 1
    23   17   19 1
    24   17   37 1
    25   18   38 1
    26   19   20 1
    27   19   21 1
    28   19   39 1
    29   20   40 1
    30   21   22 1
    31   21   41 1
    32   22   23 ar
    33   22   32 ar
    34   23   24 ar
    35   23   42 1
    36   24   25 ar
    37   25   26 ar
    38   25   32 ar
    39   26   27 2
    40   26   28 ar
    41   28   29 ar
    42   28   43 1
    43   29   30 1
    44   29   31 ar
    45   30   44 1
    46   30   45 1
    47   31   32 ar
    48   31   46 1
@<TRIPOS>SUBSTRUCTURE
     1 GTP         1 GROUP 0 A     ****
@<TRIPOS>MOLECULE
[[[5-(2-amino-6-oxo-1,3-dihydropurin-2-ylium-9-yl)-3,4-dihydroxy-tetrahydrofuran-2-yl]methoxy-oxido-phosphoryl]oxy-oxido-phosphoryl] hydrogen phosphate
   46    48     1     0     0
SMALL
USER_CHARGES

@<TRIPOS>ATOM
      1 PG         -4.1788    5.5291   -2.9948 P.3       1 GTP         1.5400
      2 O1G        -3.9803    7.0004   -3.2836 O.co2     1 GTP        -0.8909
      3 O2G        -4.2800    4.5229   -4.1195 O.co2     1 GTP        -0.8909
      4 O3G        -5.4855    5.3617   -2.0302 O.3       1 GTP        -0.7980
      5 O3B        -3.0318    5.0346   -1.9443 O.3       1 GTP        -0.7612
      6 PB         -1.4165    4.9058   -2.1436 P.3       1 GTP         1.5847
      7 O1B        -1.1390    3.8334   -3.1734 O.co2     1 GTP        -0.8859
      8 O2B        -0.8222    6.2914   -2.2635 O.co2     1 GTP        -0.8859
      9 O3A        -1.0127    4.3553   -0.6607 O.3       1 GTP        -0.7486
     10 PA          0.4528    3.9705   -0.0493 P.3       1 GTP         1.5001
     11 O1A         1.0046    2.7881   -0.8159 O.co2     1 GTP        -0.8487
     12 O2A         1.2580    5.2411    0.1148 O.co2     1 GTP        -0.8487
     13 O5'         0.0178    3.5131    1.4595 O.3       1 GTP        -0.5474
     14 C5'        -0.8811    2.4285    1.6206 C.3       1 GTP         0.2547
     15 C4'        -0.1994    1.3333    2.4288 C.3       1 GTP         0.0926
     16 O4'        -1.1285    0.2356    2.5840 O.3       1 GTP        -0.3593
     17 C3'         1.0324    0.7610    1.7344 C.3       1 GTP         0.0907
     18 O3'         1.9175    0.2377    2.7247 O.3       1 GTP        -0.5209
     19 C2'         0.4468   -0.3802    0.9263 C.3       1 GTP         0.0305
     20 O2'         1.3993   -1.3703    0.5961 O.3       1 GTP        -0.5978
     21 C1'        -0.6159   -0.9100    1.8769 C.3       1 GTP         0.2339
     22 N9         -1.7127   -1.6108    1.2130 N.pl3     1 GTP        -0.1765
     23 C8         -1.6092   -2.7449    0.4467 C.ar      1 GTP         0.4947
     24 N7         -2.7778   -3.1416   -0.0191 N.2       1 GTP        -0.5802
     25 C5         -3.6725   -2.2253    0.4675 C.ar      1 GTP         0.2279
     26 C6         -5.0932   -2.2202    0.2371 C.ar      1 GTP         0.6513
     27 O6         -5.6933   -3.0474   -0.4337 O.2       1 GTP        -0.5111
     28 N1         -5.7390   -1.1061    0.8992 N.pl3     1 GTP        -0.4713
     29 C2         -5.0661   -0.1368    1.6789 C.ar      1 GTP         0.5256
     30 N2         -5.7774    0.8934    2.2749 N.pl3     1 GTP        -0.8665
     31 N3         -3.6705   -0.2251    1.8481 N.pl3     1 GTP        -0.5398
     32 C4         -3.0303   -1.2785    1.2262 C.ar      1 GTP        -0.0275
     33 HOG3       -5.7473    4.4583   -1.7514 H         1 GTP         0.4161
     34 H5'        -1.7771    2.7849    2.1387 H         1 GTP         0.0348
     35 H5''       -1.1654    2.0541    0.6320 H         1 GTP         0.0348
     36 H4'         0.0403    1.7078    3.4343 H         1 GTP         0.1215
     37 H3'         1.5907    1.4859    1.1353 H         1 GTP         0.0576
     38 HO3'        2.6839   -0.1150    2.2479 H         1 GTP         0.3842
     39 H2'        -0.0017    0.0018    0.0005 H         1 GTP         0.0252
     40 HO2'        2.0953   -0.9375    0.0709 H         1 GTP         0.4224
     41 H1'        -0.1998   -1.6319    2.6178 H         1 GTP         0.0745
     42 H8         -0.6610   -3.2324    0.2653 H         1 GTP         0.1522
     43 HN1        -6.7487   -1.0139    0.7961 H         1 GTP         0.3518
     44 HN21       -5.2644    1.5388    2.8044 H         1 GTP         0.4761
     45 HN22       -6.7459    0.9078    2.1265 H         1 GTP         0.4761
     46 H46        -3.1807    0.4690    2.4089 H         1 GTP         0.5030
@<TRIPOS>BOND
     1    1    2 2
     2    1    3 1
     3    1    4 1
     4    1    5 1
     5    4   33 1
     6    5    6 1
     7    6    7 2
     8    6    8 1
     9    6    9 1
    10    9   10 1
    11   10   11 2
    12   10   12 1
    13   10   13 1
    14   13   14 1
    15   14   15 1
    16   14   34 1
    17   14   35 1
    18   15   16 1
    19   15   17 1
    20   15   36 1
    21   16   21 1
    22   17   18 1
    23   17   19 1
    24   17   37 1
    25   18   38 1
    26   19   20 1
    27   19   21 1
    28   19   39 1
    29   20   40 1
    30   21   22 1
    31   21   41 1
    32   22   23 ar
    33   22   32 ar
    34   23   24 ar
    35   23   42 1
    36   24   25 ar
    37   25   26 ar
    38   25   32 ar
    39   26   27 2
    40   26   28 ar
    41   28   29 ar
    42   28   43 1
    43   29   30 1
    44   29   31 ar
    45   30   44 1
    46   30   45 1
    47   31   32 ar
    48   31   46 1
@<TRIPOS>SUBSTRUCTURE
     1 GTP         1 GROUP 0 A     ****
@<TRIPOS>MOLECULE
[[[5-(2-amino-6-oxo-1,3-dihydropurin-2-ylium-9-yl)-3,4-dihydroxy-tetrahydrofuran-2-yl]methoxy-oxido-phosphoryl]oxy-oxido-phosphoryl] hydrogen phosphate
   46    48     1     0     0
SMALL
USER_CHARGES

@<TRIPOS>ATOM
      1 PG          9.5373    1.8453   -3.0698 P.3       1 GTP         1.5400
      2 O1G        10.4222    3.0642   -3.2058 O.co2     1 GTP        -0.8909
      3 O2G        10.1329    0.4743   -2.8384 O.co2     1 GTP        -0.8909
      4 O3G         8.5540    1.7704   -4.3711 O.3       1 GTP        -0.7980
      5 O3B         8.4100    2.1323   -1.9250 O.3       1 GTP        -0.7612
      6 PB          8.5837    2.3407   -0.3150 P.3       1 GTP         1.5847
      7 O1B         9.0764    1.0456    0.2911 O.co2     1 GTP        -0.8859
      8 O2B         9.2909    3.6533   -0.0610 O.co2     1 GTP        -0.8859
      9 O3A         7.0191    2.5716    0.0895 O.3       1 GTP        -0.7486
     10 PA          5.9684    3.7219   -0.4031 P.3       1 GTP         1.5001
     11 O1A         6.4603    5.0691    0.0799 O.co2     1 GTP        -0.8487
     12 O2A         5.6403    3.4858   -1.8613 O.co2     1 GTP        -0.8487
     13 O5'         4.6405    3.2699    0.4378 O.3       1 GTP        -0.5474
     14 C5'         4.0922    1.9801    0.2227 C.3       1 GTP         0.2547
     15 C4'         2.5944    2.0310    0.4653 C.3       1 GTP         0.0926
     16 O4'         1.9327    2.5740   -0.6889 O.3       1 GTP        -0.3593
     17 C3'         1.9685    0.6634    0.6767 C.3       1 GTP         0.0907
     18 O3'         2.1425    0.1975    1.9977 O.3       1 GTP        -0.5209
     19 C2'         0.5176    0.9128    0.3099 C.3       1 GTP         0.0305
     20 O2'        -0.2103    1.4454    1.4152 O.3       1 GTP        -0.5978
     21 C1'         0.6219    1.9765   -0.7844 C.3       1 GTP         0.2339
     22 N9          0.4237    1.4496   -2.1357 N.pl3     1 GTP        -0.1765
     23 C8          1.3988    0.9691   -2.9736 C.ar      1 GTP         0.4947
     24 N7          0.9092    0.5634   -4.1293 N.2       1 GTP        -0.5802
     25 C5         -0.4383    0.7914   -4.0325 C.ar      1 GTP         0.2279
     26 C6         -1.4217    0.5138   -5.0461 C.ar      1 GTP         0.6513
     27 O6         -1.1759    0.0306   -6.1417 O.2       1 GTP        -0.5111
     28 N1         -2.7543    0.8794   -4.6134 N.pl3     1 GTP        -0.4713
     29 C2         -3.0626    1.4402   -3.3523 C.ar      1 GTP         0.5256
     30 N2         -4.3747    1.7544   -3.0321 N.pl3     1 GTP        -0.8665
     31 N3         -2.0304    1.6759   -2.4233 N.pl3     1 GTP        -0.5398
     32 C4         -0.7497    1.3366   -2.8118 C.ar      1 GTP        -0.0275
     33 HOG3        7.9145    1.0290   -4.4310 H         1 GTP         0.4161
     34 H5'         4.3028    1.6728   -0.8066 H         1 GTP         0.0348
     35 H5''        4.5677    1.2738    0.9106 H         1 GTP         0.0348
     36 H4'         2.3752    2.7029    1.3156 H         1 GTP         0.1215
     37 H3'         2.4336   -0.1217   -0.0015 H         1 GTP         0.0576
     38 HO3'        3.0987    0.1465    2.1461 H         1 GTP         0.3842
     39 H2'         0.0316    0.0155   -0.0339 H         1 GTP         0.0252
     40 HO2'       -0.1608    0.7921    2.1351 H         1 GTP         0.4224
     41 H1'        -0.1474    2.7798   -0.6651 H         1 GTP         0.0745
     42 H8          2.4413    0.9409   -2.6872 H         1 GTP         0.1522
     43 HN1        -3.5236    0.7214   -5.2629 H         1 GTP         0.3518
     44 HN21       -4.5350    2.1409   -2.1461 H         1 GTP         0.4761
     45 HN22       -5.0542    1.5695   -3.7134 H         1 GTP         0.4761
     46 H46        -2.2462    2.0786   -1.5136 H         1 GTP         0.5030
@<TRIPOS>BOND
     1    1    2 2
     2    1    3 1
     3    1    4 1
     4    1    5 1
     5    4   33 1
     6    5    6 1
     7    6    7 2
     8    6    8 1
     9    6    9 1
    10    9   10 1
    11   10   11 2
    12   10   12 1
    13   10   13 1
    14   13   14 1
    15   14   15 1
    16   14   34 1
    17   14   35 1
    18   15   16 1
    19   15   17 1
    20   15   36 1
    21   16   21 1
    22   17   18 1
    23   17   19 1
    24   17   37 1
    25   18   38 1
    26   19   20 1
    27   19   21 1
    28   19   39 1
    29   20   40 1
    30   21   22 1
    31   21   41 1
    32   22   23 ar
    33   22   32 ar
    34   23   24 ar
    35   23   42 1
    36   24   25 ar
    37   25   26 ar
    38   25   32 ar
    39   26   27 2
    40   26   28 ar
    41   28   29 ar
    42   28   43 1
    43   29   30 1
    44   29   31 ar
    45   30   44 1
    46   30   45 1
    47   31   32 ar
    48   31   46 1
@<TRIPOS>SUBSTRUCTURE
     1 GTP         1 GROUP 0 A     ****
@<TRIPOS>MOLECULE
[[[5-(2-amino-6-oxo-1,3-dihydropurin-2-ylium-9-yl)-3,4-dihydroxy-tetrahydrofuran-2-yl]methoxy-oxido-phosphoryl]oxy-oxido-phosphoryl] hydrogen phosphate
   46    48     1     0     0
SMALL
USER_CHARGES

@<TRIPOS>ATOM
      1 PG          8.3858   -0.0846    0.8159 P.3       1 GTP         1.5400
      2 O1G         7.7287    0.2362    2.1398 O.co2     1 GTP        -0.8909
      3 O2G         7.7444   -1.0493   -0.1566 O.co2     1 GTP        -0.8909
      4 O3G         9.9158   -0.5776    1.1022 O.3       1 GTP        -0.7980
      5 O3B         8.7180    1.3101    0.0360 O.3       1 GTP        -0.7612
      6 PB          7.7035    2.4230   -0.5946 P.3       1 GTP         1.5847
      7 O1B         8.5185    3.5983   -1.0867 O.co2     1 GTP        -0.8859
      8 O2B         6.7000    1.7266   -1.4865 O.co2     1 GTP        -0.8859
      9 O3A         6.9017    2.8457    0.7631 O.3       1 GTP        -0.7486
     10 PA          5.6979    3.9301    0.9743 P.3       1 GTP         1.5001
     11 O1A         5.2283    3.8619    2.4113 O.co2     1 GTP        -0.8487
     12 O2A         6.1140    5.2436    0.3487 O.co2     1 GTP        -0.8487
     13 O5'         4.5670    3.2937   -0.0211 O.3       1 GTP        -0.5474
     14 C5'         4.0922    1.9801    0.2227 C.3       1 GTP         0.2547
     15 C4'         2.5944    2.0310    0.4653 C.3       1 GTP         0.0926
     16 O4'         1.9327    2.5740   -0.6889 O.3       1 GTP        -0.3593
     17 C3'         1.9685    0.6634    0.6767 C.3       1 GTP         0.0907
     18 O3'         2.1425    0.1975    1.9977 O.3       1 GTP        -0.5209
     19 C2'         0.5176    0.9128    0.3099 C.3       1 GTP         0.0305
     20 O2'        -0.2103    1.4454    1.4152 O.3       1 GTP        -0.5978
     21 C1'         0.6219    1.9765   -0.7844 C.3       1 GTP         0.2339
     22 N9          0.4237    1.4496   -2.1357 N.pl3     1 GTP        -0.1765
     23 C8          1.3988    0.9691   -2.9736 C.ar      1 GTP         0.4947
     24 N7          0.9092    0.5634   -4.1293 N.2       1 GTP        -0.5802
     25 C5         -0.4383    0.7914   -4.0325 C.ar      1 GTP         0.2279
     26 C6         -1.4217    0.5138   -5.0461 C.ar      1 GTP         0.6513
     27 O6         -1.1759    0.0306   -6.1417 O.2       1 GTP        -0.5111
     28 N1         -2.7543    0.8794   -4.6134 N.pl3     1 GTP        -0.4713
     29 C2         -3.0626    1.4402   -3.3523 C.ar      1 GTP         0.5256
     30 N2         -4.3747    1.7544   -3.0321 N.pl3     1 GTP        -0.8665
     31 N3         -2.0304    1.6759   -2.4233 N.pl3     1 GTP        -0.5398
     32 C4         -0.7497    1.3366   -2.8118 C.ar      1 GTP        -0.0275
     33 HOG3       10.4777   -0.8244    0.3370 H         1 GTP         0.4161
     34 H5'         4.3179    1.3548   -0.6470 H         1 GTP         0.0348
     35 H5''        4.6083    1.5737    1.0983 H         1 GTP         0.0348
     36 H4'         2.3752    2.7029    1.3156 H         1 GTP         0.1215
     37 H3'         2.4336   -0.1217   -0.0015 H         1 GTP         0.0576
     38 HO3'        1.7160   -0.6716    2.0397 H         1 GTP         0.3842
     39 H2'         0.0316    0.0155   -0.0339 H         1 GTP         0.0252
     40 HO2'       -0.1608    0.7921    2.1351 H         1 GTP         0.4224
     41 H1'        -0.1474    2.7798   -0.6651 H         1 GTP         0.0745
     42 H8          2.4413    0.9409   -2.6872 H         1 GTP         0.1522
     43 HN1        -3.5236    0.7214   -5.2629 H         1 GTP         0.3518
     44 HN21       -4.5350    2.1409   -2.1461 H         1 GTP         0.4761
     45 HN22       -5.0542    1.5695   -3.7134 H         1 GTP         0.4761
     46 H46        -2.2462    2.0786   -1.5136 H         1 GTP         0.5030
@<TRIPOS>BOND
     1    1    2 2
     2    1    3 1
     3    1    4 1
     4    1    5 1
     5    4   33 1
     6    5    6 1
     7    6    7 2
     8    6    8 1
     9    6    9 1
    10    9   10 1
    11   10   11 2
    12   10   12 1
    13   10   13 1
    14   13   14 1
    15   14   15 1
    16   14   34 1
    17   14   35 1
    18   15   16 1
    19   15   17 1
    20   15   36 1
    21   16   21 1
    22   17   18 1
    23   17   19 1
    24   17   37 1
    25   18   38 1
    26   19   20 1
    27   19   21 1
    28   19   39 1
    29   20   40 1
    30   21   22 1
    31   21   41 1
    32   22   23 ar
    33   22   32 ar
    34   23   24 ar
    35   23   42 1
    36   24   25 ar
    37   25   26 ar
    38   25   32 ar
    39   26   27 2
    40   26   28 ar
    41   28   29 ar
    42   28   43 1
    43   29   30 1
    44   29   31 ar
    45   30   44 1
    46   30   45 1
    47   31   32 ar
    48   31   46 1
@<TRIPOS>SUBSTRUCTURE
     1 GTP         1 GROUP 0 A     ****
@<TRIPOS>MOLECULE
[[[5-(2-amino-6-oxo-1,3-dihydropurin-2-ylium-9-yl)-3,4-dihydroxy-tetrahydrofuran-2-yl]methoxy-oxido-phosphoryl]oxy-oxido-phosphoryl] hydrogen phosphate
   46    48     1     0     0
SMALL
USER_CHARGES

@<TRIPOS>ATOM
      1 PG          9.6707    2.2543    0.9298 P.3       1 GTP         1.5400
      2 O1G         8.6816    2.2207   -0.2139 O.co2     1 GTP        -0.8909
      3 O2G        10.5963    3.4348    1.1225 O.co2     1 GTP        -0.8909
      4 O3G        10.5707    0.8930    0.8773 O.3       1 GTP        -0.7980
      5 O3B         8.8765    1.9711    2.3272 O.3       1 GTP        -0.7612
      6 PB          7.7618    2.8802    3.0995 P.3       1 GTP         1.5847
      7 O1B         7.2368    2.1005    4.2845 O.co2     1 GTP        -0.8859
      8 O2B         8.2924    4.2884    3.2506 O.co2     1 GTP        -0.8859
      9 O3A         6.6189    2.9381    1.9353 O.3       1 GTP        -0.7486
     10 PA          5.1608    3.6754    1.9343 P.3       1 GTP         1.5001
     11 O1A         4.2869    3.0266    2.9858 O.co2     1 GTP        -0.8487
     12 O2A         5.3753    5.1731    1.9109 O.co2     1 GTP        -0.8487
     13 O5'         4.6405    3.2699    0.4378 O.3       1 GTP        -0.5474
     14 C5'         4.0922    1.9801    0.2227 C.3       1 GTP         0.2547
     15 C4'         2.5944    2.0310    0.4653 C.3       1 GTP         0.0926
     16 O4'         1.9327    2.5740   -0.6889 O.3       1 GTP        -0.3593
     17 C3'         1.9685    0.6634    0.6767 C.3       1 GTP         0.0907
     18 O3'         2.1425    0.1975    1.9977 O.3       1 GTP        -0.5209
     19 C2'         0.5176    0.9128    0.3099 C.3       1 GTP         0.0305
     20 O2'        -0.2103    1.4454    1.4152 O.3       1 GTP        -0.5978
     21 C1'         0.6219    1.9765   -0.7844 C.3       1 GTP         0.2339
     22 N9          0.4237    1.4496   -2.1357 N.pl3     1 GTP        -0.1765
     23 C8          1.3988    0.9691   -2.9736 C.ar      1 GTP         0.4947
     24 N7          0.9092    0.5634   -4.1293 N.2       1 GTP        -0.5802
     25 C5         -0.4383    0.7914   -4.0325 C.ar      1 GTP         0.2279
     26 C6         -1.4217    0.5138   -5.0461 C.ar      1 GTP         0.6513
     27 O6         -1.1759    0.0306   -6.1417 O.2       1 GTP        -0.5111
     28 N1         -2.7543    0.8794   -4.6134 N.pl3     1 GTP        -0.4713
     29 C2         -3.0626    1.4402   -3.3523 C.ar      1 GTP         0.5256
     30 N2         -4.3747    1.7544   -3.0321 N.pl3     1 GTP        -0.8665
     31 N3         -2.0304    1.6759   -2.4233 N.pl3     1 GTP        -0.5398
     32 C4         -0.7497    1.3366   -2.8118 C.ar      1 GTP        -0.0275
     33 HOG3       11.2638    0.7649    1.5596 H         1 GTP         0.4161
     34 H5'         4.3028    1.6728   -0.8066 H         1 GTP         0.0348
     35 H5''        4.5677    1.2738    0.9106 H         1 GTP         0.0348
     36 H4'         2.3752    2.7029    1.3156 H         1 GTP         0.1215
     37 H3'         2.4336   -0.1217   -0.0015 H         1 GTP         0.0576
     38 HO3'        1.7160   -0.6716    2.0397 H         1 GTP         0.3842
     39 H2'         0.0316    0.0155   -0.0339 H         1 GTP         0.0252
     40 HO2'       -0.1608    0.7921    2.1351 H         1 GTP         0.4224
     41 H1'        -0.1474    2.7798   -0.6651 H         1 GTP         0.0745
     42 H8          2.4413    0.9409   -2.6872 H         1 GTP         0.1522
     43 HN1        -3.5236    0.7214   -5.2629 H         1 GTP         0.3518
     44 HN21       -4.5350    2.1409   -2.1461 H         1 GTP         0.4761
     45 HN22       -5.0542    1.5695   -3.7134 H         1 GTP         0.4761
     46 H46        -2.2462    2.0786   -1.5136 H         1 GTP         0.5030
@<TRIPOS>BOND
     1    1    2 2
     2    1    3 1
     3    1    4 1
     4    1    5 1
     5    4   33 1
     6    5    6 1
     7    6    7 2
     8    6    8 1
     9    6    9 1
    10    9   10 1
    11   10   11 2
    12   10   12 1
    13   10   13 1
    14   13   14 1
    15   14   15 1
    16   14   34 1
    17   14   35 1
    18   15   16 1
    19   15   17 1
    20   15   36 1
    21   16   21 1
    22   17   18 1
    23   17   19 1
    24   17   37 1
    25   18   38 1
    26   19   20 1
    27   19   21 1
    28   19   39 1
    29   20   40 1
    30   21   22 1
    31   21   41 1
    32   22   23 ar
    33   22   32 ar
    34   23   24 ar
    35   23   42 1
    36   24   25 ar
    37   25   26 ar
    38   25   32 ar
    39   26   27 2
    40   26   28 ar
    41   28   29 ar
    42   28   43 1
    43   29   30 1
    44   29   31 ar
    45   30   44 1
    46   30   45 1
    47   31   32 ar
    48   31   46 1
@<TRIPOS>SUBSTRUCTURE
     1 GTP         1 GROUP 0 A     ****
@<TRIPOS>MOLECULE
[[[5-(2-amino-6-oxo-1,3-dihydropurin-2-ylium-9-yl)-3,4-dihydroxy-tetrahydrofuran-2-yl]methoxy-oxido-phosphoryl]oxy-oxido-phosphoryl] hydrogen phosphate
   46    48     1     0     0
SMALL
USER_CHARGES

@<TRIPOS>ATOM
      1 PG          2.6218    7.5190    3.1453 P.3       1 GTP         1.5400
      2 O1G         2.0821    8.7428    3.8512 O.co2     1 GTP        -0.8909
      3 O2G         3.7240    6.6879    3.7634 O.co2     1 GTP        -0.8909
      4 O3G         3.0800    7.9493    1.6384 O.3       1 GTP        -0.7980
      5 O3B         1.3765    6.5391    2.7540 O.3       1 GTP        -0.7612
      6 PB          0.0055    6.8681    1.9308 P.3       1 GTP         1.5847
      7 O1B        -0.8252    7.8385    2.7406 O.co2     1 GTP        -0.8859
      8 O2B         0.3518    7.1383    0.4836 O.co2     1 GTP        -0.8859
      9 O3A        -0.6866    5.3902    1.9734 O.3       1 GTP        -0.7486
     10 PA         -1.1369    4.4808    3.2540 P.3       1 GTP         1.5001
     11 O1A         0.0993    4.1026    4.0409 O.co2     1 GTP        -0.8487
     12 O2A        -2.3199    5.1428    3.9262 O.co2     1 GTP        -0.8487
     13 O5'        -1.7336    3.1724    2.4750 O.3       1 GTP        -0.5474
     14 C5'        -0.8811    2.4285    1.6206 C.3       1 GTP         0.2547
     15 C4'        -0.1994    1.3333    2.4288 C.3       1 GTP         0.0926
     16 O4'        -1.1285    0.2356    2.5840 O.3       1 GTP        -0.3593
     17 C3'         1.0324    0.7610    1.7344 C.3       1 GTP         0.0907
     18 O3'         1.9175    0.2377    2.7247 O.3       1 GTP        -0.5209
     19 C2'         0.4468   -0.3802    0.9263 C.3       1 GTP         0.0305
     20 O2'         1.3993   -1.3703    0.5961 O.3       1 GTP        -0.5978
     21 C1'        -0.6159   -0.9100    1.8769 C.3       1 GTP         0.2339
     22 N9         -1.7127   -1.6108    1.2130 N.pl3     1 GTP        -0.1765
     23 C8         -1.6092   -2.7449    0.4467 C.ar      1 GTP         0.4947
     24 N7         -2.7778   -3.1416   -0.0191 N.2       1 GTP        -0.5802
     25 C5         -3.6725   -2.2253    0.4675 C.ar      1 GTP         0.2279
     26 C6         -5.0932   -2.2202    0.2371 C.ar      1 GTP         0.6513
     27 O6         -5.6933   -3.0474   -0.4337 O.2       1 GTP        -0.5111
     28 N1         -5.7390   -1.1061    0.8992 N.pl3     1 GTP        -0.4713
     29 C2         -5.0661   -0.1368    1.6789 C.ar      1 GTP         0.5256
     30 N2         -5.7774    0.8934    2.2749 N.pl3     1 GTP        -0.8665
     31 N3         -3.6705   -0.2251    1.8481 N.pl3     1 GTP        -0.5398
     32 C4         -3.0303   -1.2785    1.2262 C.ar      1 GTP        -0.0275
     33 HOG3        3.4546    7.2600    1.0495 H         1 GTP         0.4161
     34 H5'        -1.4800    1.9927    0.8146 H         1 GTP         0.0348
     35 H5''       -0.1367    3.1040    1.1872 H         1 GTP         0.0348
     36 H4'         0.0403    1.7078    3.4343 H         1 GTP         0.1215
     37 H3'         1.5907    1.4859    1.1353 H         1 GTP         0.0576
     38 HO3'        2.6839   -0.1150    2.2479 H         1 GTP         0.3842
     39 H2'        -0.0017    0.0018    0.0005 H         1 GTP         0.0252
     40 HO2'        2.0953   -0.9375    0.0709 H         1 GTP         0.4224
     41 H1'        -0.1998   -1.6319    2.6178 H         1 GTP         0.0745
     42 H8         -0.6610   -3.2324    0.2653 H         1 GTP         0.1522
     43 HN1        -6.7487   -1.0139    0.7961 H         1 GTP         0.3518
     44 HN21       -5.2644    1.5388    2.8044 H         1 GTP         0.4761
     45 HN22       -6.7459    0.9078    2.1265 H         1 GTP         0.4761
     46 H46        -3.1807    0.4690    2.4089 H         1 GTP         0.5030
@<TRIPOS>BOND
     1    1    2 2
     2    1    3 1
     3    1    4 1
     4    1    5 1
     5    4   33 1
     6    5    6 1
     7    6    7 2
     8    6    8 1
     9    6    9 1
    10    9   10 1
    11   10   11 2
    12   10   12 1
    13   10   13 1
    14   13   14 1
    15   14   15 1
    16   14   34 1
    17   14   35 1
    18   15   16 1
    19   15   17 1
    20   15   36 1
    21   16   21 1
    22   17   18 1
    23   17   19 1
    24   17   37 1
    25   18   38 1
    26   19   20 1
    27   19   21 1
    28   19   39 1
    29   20   40 1
    30   21   22 1
    31   21   41 1
    32   22   23 ar
    33   22   32 ar
    34   23   24 ar
    35   23   42 1
    36   24   25 ar
    37   25   26 ar
    38   25   32 ar
    39   26   27 2
    40   26   28 ar
    41   28   29 ar
    42   28   43 1
    43   29   30 1
    44   29   31 ar
    45   30   44 1
    46   30   45 1
    47   31   32 ar
    48   31   46 1
@<TRIPOS>SUBSTRUCTURE
     1 GTP         1 GROUP 0 A     ****
@<TRIPOS>MOLECULE
[[[5-(2-amino-6-oxo-1,3-dihydropurin-2-ylium-9-yl)-3,4-dihydroxy-tetrahydrofuran-2-yl]methoxy-oxido-phosphoryl]oxy-oxido-phosphoryl] hydrogen phosphate
   46    48     1     0     0
SMALL
USER_CHARGES

@<TRIPOS>ATOM
      1 PG          7.3357    1.7496    5.7984 P.3       1 GTP         1.5400
      2 O1G         8.3665    0.6453    5.7263 O.co2     1 GTP        -0.8909
      3 O2G         7.6000    3.0088    6.5935 O.co2     1 GTP        -0.8909
      4 O3G         5.9212    1.1069    6.3004 O.3       1 GTP        -0.7980
      5 O3B         6.8942    2.1640    4.2828 O.3       1 GTP        -0.7612
      6 PB          7.7618    2.8802    3.0995 P.3       1 GTP         1.5847
      7 O1B         8.1097    4.2857    3.5364 O.co2     1 GTP        -0.8859
      8 O2B         8.8216    1.9170    2.6131 O.co2     1 GTP        -0.8859
      9 O3A         6.6189    2.9381    1.9353 O.3       1 GTP        -0.7486
     10 PA          5.1608    3.6754    1.9343 P.3       1 GTP         1.5001
     11 O1A         4.2869    3.0266    2.9858 O.co2     1 GTP        -0.8487
     12 O2A         5.3753    5.1731    1.9109 O.co2     1 GTP        -0.8487
     13 O5'         4.6405    3.2699    0.4378 O.3       1 GTP        -0.5474
     14 C5'         4.0922    1.9801    0.2227 C.3       1 GTP         0.2547
     15 C4'         2.5944    2.0310    0.4653 C.3       1 GTP         0.0926
     16 O4'         1.9327    2.5740   -0.6889 O.3       1 GTP        -0.3593
     17 C3'         1.9685    0.6634    0.6767 C.3       1 GTP         0.0907
     18 O3'         2.1425    0.1975    1.9977 O.3       1 GTP        -0.5209
     19 C2'         0.5176    0.9128    0.3099 C.3       1 GTP         0.0305
     20 O2'        -0.2103    1.4454    1.4152 O.3       1 GTP        -0.5978
     21 C1'         0.6219    1.9765   -0.7844 C.3       1 GTP         0.2339
     22 N9          0.4237    1.4496   -2.1357 N.pl3     1 GTP        -0.1765
     23 C8          1.3988    0.9691   -2.9736 C.ar      1 GTP         0.4947
     24 N7          0.9092    0.5634   -4.1293 N.2       1 GTP        -0.5802
     25 C5         -0.4383    0.7914   -4.0325 C.ar      1 GTP         0.2279
     26 C6         -1.4217    0.5138   -5.0461 C.ar      1 GTP         0.6513
     27 O6         -1.1759    0.0306   -6.1417 O.2       1 GTP        -0.5111
     28 N1         -2.7543    0.8794   -4.6134 N.pl3     1 GTP        -0.4713
     29 C2         -3.0626    1.4402   -3.3523 C.ar      1 GTP         0.5256
     30 N2         -4.3747    1.7544   -3.0321 N.pl3     1 GTP        -0.8665
     31 N3         -2.0304    1.6759   -2.4233 N.pl3     1 GTP        -0.5398
     32 C4         -0.7497    1.3366   -2.8118 C.ar      1 GTP        -0.0275
     33 HOG3        5.1470    1.7012    6.3984 H         1 GTP         0.4161
     34 H5'         4.3028    1.6728   -0.8066 H         1 GTP         0.0348
     35 H5''        4.5677    1.2738    0.9106 H         1 GTP         0.0348
     36 H4'         2.3752    2.7029    1.3156 H         1 GTP         0.1215
     37 H3'         2.4336   -0.1217   -0.0015 H         1 GTP         0.0576
     38 HO3'        1.7160   -0.6716    2.0397 H         1 GTP         0.3842
     39 H2'         0.0316    0.0155   -0.0339 H         1 GTP         0.0252
     40 HO2'       -0.1608    0.7921    2.1351 H         1 GTP         0.4224
     41 H1'        -0.1474    2.7798   -0.6651 H         1 GTP         0.0745
     42 H8          2.4413    0.9409   -2.6872 H         1 GTP         0.1522
     43 HN1        -3.5236    0.7214   -5.2629 H         1 GTP         0.3518
     44 HN21       -4.5350    2.1409   -2.1461 H         1 GTP         0.4761
     45 HN22       -5.0542    1.5695   -3.7134 H         1 GTP         0.4761
     46 H46        -2.2462    2.0786   -1.5136 H         1 GTP         0.5030
@<TRIPOS>BOND
     1    1    2 2
     2    1    3 1
     3    1    4 1
     4    1    5 1
     5    4   33 1
     6    5    6 1
     7    6    7 2
     8    6    8 1
     9    6    9 1
    10    9   10 1
    11   10   11 2
    12   10   12 1
    13   10   13 1
    14   13   14 1
    15   14   15 1
    16   14   34 1
    17   14   35 1
    18   15   16 1
    19   15   17 1
    20   15   36 1
    21   16   21 1
    22   17   18 1
    23   17   19 1
    24   17   37 1
    25   18   38 1
    26   19   20 1
    27   19   21 1
    28   19   39 1
    29   20   40 1
    30   21   22 1
    31   21   41 1
    32   22   23 ar
    33   22   32 ar
    34   23   24 ar
    35   23   42 1
    36   24   25 ar
    37   25   26 ar
    38   25   32 ar
    39   26   27 2
    40   26   28 ar
    41   28   29 ar
    42   28   43 1
    43   29   30 1
    44   29   31 ar
    45   30   44 1
    46   30   45 1
    47   31   32 ar
    48   31   46 1
@<TRIPOS>SUBSTRUCTURE
     1 GTP         1 GROUP 0 A     ****
@<TRIPOS>MOLECULE
[[[5-(2-amino-6-oxo-1,3-dihydropurin-2-ylium-9-yl)-3,4-dihydroxy-tetrahydrofuran-2-yl]methoxy-oxido-phosphoryl]oxy-oxido-phosphoryl] hydrogen phosphate
   46    48     1     0     0
SMALL
USER_CHARGES

@<TRIPOS>ATOM
      1 PG         -0.8955    3.4464   -4.6620 P.3       1 GTP         1.5400
      2 O1G        -0.1060    2.2039   -5.0089 O.co2     1 GTP        -0.8909
      3 O2G        -2.3139    3.6288   -5.1544 O.co2     1 GTP        -0.8909
      4 O3G        -0.0224    4.7548   -5.1001 O.3       1 GTP        -0.7980
      5 O3B        -0.8655    3.6604   -3.0443 O.3       1 GTP        -0.7612
      6 PB         -1.4165    4.9058   -2.1436 P.3       1 GTP         1.5847
      7 O1B        -0.5984    6.1363   -2.4657 O.co2     1 GTP        -0.8859
      8 O2B        -2.9279    4.9232   -2.1981 O.co2     1 GTP        -0.8859
      9 O3A        -1.0127    4.3553   -0.6607 O.3       1 GTP        -0.7486
     10 PA          0.4528    3.9705   -0.0493 P.3       1 GTP         1.5001
     11 O1A         1.0046    2.7881   -0.8159 O.co2     1 GTP        -0.8487
     12 O2A         1.2580    5.2411    0.1148 O.co2     1 GTP        -0.8487
     13 O5'         0.0178    3.5131    1.4595 O.3       1 GTP        -0.5474
     14 C5'        -0.8811    2.4285    1.6206 C.3       1 GTP         0.2547
     15 C4'        -0.1994    1.3333    2.4288 C.3       1 GTP         0.0926
     16 O4'        -1.1285    0.2356    2.5840 O.3       1 GTP        -0.3593
     17 C3'         1.0324    0.7610    1.7344 C.3       1 GTP         0.0907
     18 O3'         1.9175    0.2377    2.7247 O.3       1 GTP        -0.5209
     19 C2'         0.4468   -0.3802    0.9263 C.3       1 GTP         0.0305
     20 O2'         1.3993   -1.3703    0.5961 O.3       1 GTP        -0.5978
     21 C1'        -0.6159   -0.9100    1.8769 C.3       1 GTP         0.2339
     22 N9         -1.7127   -1.6108    1.2130 N.pl3     1 GTP        -0.1765
     23 C8         -1.7789   -2.9564    0.9503 C.ar      1 GTP         0.4947
     24 N7         -2.8980   -3.2916    0.3377 N.2       1 GTP        -0.5802
     25 C5         -3.5824   -2.1127    0.2000 C.ar      1 GTP         0.2279
     26 C6         -4.8740   -1.9471   -0.4133 C.ar      1 GTP         0.6513
     27 O6         -5.5366   -2.8529   -0.8978 O.2       1 GTP        -0.5111
     28 N1         -5.3036   -0.5645   -0.3916 N.pl3     1 GTP        -0.4713
     29 C2         -4.5545    0.4997    0.1619 C.ar      1 GTP         0.5256
     30 N2         -5.0561    1.7921    0.1348 N.pl3     1 GTP        -0.8665
     31 N3         -3.2977    0.2393    0.7420 N.pl3     1 GTP        -0.5398
     32 C4         -2.8643   -1.0716    0.7336 C.ar      1 GTP        -0.0275
     33 HOG3       -0.4022    5.6448   -4.9392 H         1 GTP         0.4161
     34 H5'        -1.7771    2.7849    2.1387 H         1 GTP         0.0348
     35 H5''       -1.1654    2.0541    0.6320 H         1 GTP         0.0348
     36 H4'         0.0403    1.7078    3.4343 H         1 GTP         0.1215
     37 H3'         1.5907    1.4859    1.1353 H         1 GTP         0.0576
     38 HO3'        2.6839   -0.1150    2.2479 H         1 GTP         0.3842
     39 H2'        -0.0017    0.0018    0.0005 H         1 GTP         0.0252
     40 HO2'        2.0953   -0.9375    0.0709 H         1 GTP         0.4224
     41 H1'        -0.1998   -1.6319    2.6178 H         1 GTP         0.0745
     42 H8         -0.9852   -3.6367    1.2276 H         1 GTP         0.1522
     43 HN1        -6.2089   -0.3428   -0.8039 H         1 GTP         0.3518
     44 HN21       -4.4981    2.4933    0.5311 H         1 GTP         0.4761
     45 HN22       -5.9352    1.9183   -0.2793 H         1 GTP         0.4761
     46 H46        -2.7541    1.0010    1.1428 H         1 GTP         0.5030
@<TRIPOS>BOND
     1    1    2 2
     2    1    3 1
     3    1    4 1
     4    1    5 1
     5    4   33 1
     6    5    6 1
     7    6    7 2
     8    6    8 1
     9    6    9 1
    10    9   10 1
    11   10   11 2
    12   10   12 1
    13   10   13 1
    14   13   14 1
    15   14   15 1
    16   14   34 1
    17   14   35 1
    18   15   16 1
    19   15   17 1
    20   15   36 1
    21   16   21 1
    22   17   18 1
    23   17   19 1
    24   17   37 1
    25   18   38 1
    26   19   20 1
    27   19   21 1
    28   19   39 1
    29   20   40 1
    30   21   22 1
    31   21   41 1
    32   22   23 ar
    33   22   32 ar
    34   23   24 ar
    35   23   42 1
    36   24   25 ar
    37   25   26 ar
    38   25   32 ar
    39   26   27 2
    40   26   28 ar
    41   28   29 ar
    42   28   43 1
    43   29   30 1
    44   29   31 ar
    45   30   44 1
    46   30   45 1
    47   31   32 ar
    48   31   46 1
@<TRIPOS>SUBSTRUCTURE
     1 GTP         1 GROUP 0 A     ****
@<TRIPOS>MOLECULE
[[[5-(2-amino-6-oxo-1,3-dihydropurin-2-ylium-9-yl)-3,4-dihydroxy-tetrahydrofuran-2-yl]methoxy-oxido-phosphoryl]oxy-oxido-phosphoryl] hydrogen phosphate
   46    48     1     0     0
SMALL
USER_CHARGES

@<TRIPOS>ATOM
      1 PG         -0.2956    8.2281   -2.3292 P.3       1 GTP         1.5400
      2 O1G         0.7772    7.9764   -3.3651 O.co2     1 GTP        -0.8909
      3 O2G        -1.6676    8.7190   -2.7346 O.co2     1 GTP        -0.8909
      4 O3G         0.3037    9.2408   -1.1973 O.3       1 GTP        -0.7980
      5 O3B        -0.4632    6.8946   -1.4032 O.3       1 GTP        -0.7612
      6 PB         -1.0164    5.4101   -1.7976 P.3       1 GTP         1.5847
      7 O1B        -2.4812    5.5186   -2.1584 O.co2     1 GTP        -0.8859
      8 O2B        -0.0213    4.7418   -2.7199 O.co2     1 GTP        -0.8859
      9 O3A        -0.8651    4.6798   -0.3455 O.3       1 GTP        -0.7486
     10 PA          0.4655    4.4361    0.5710 P.3       1 GTP         1.5001
     11 O1A         1.4060    3.5127   -0.1725 O.co2     1 GTP        -0.8487
     12 O2A         0.9384    5.7714    1.1030 O.co2     1 GTP        -0.8487
     13 O5'        -0.2062    3.6557    1.8417 O.3       1 GTP        -0.5474
     14 C5'        -0.8811    2.4285    1.6206 C.3       1 GTP         0.2547
     15 C4'        -0.1994    1.3333    2.4288 C.3       1 GTP         0.0926
     16 O4'        -1.1285    0.2356    2.5840 O.3       1 GTP        -0.3593
     17 C3'         1.0324    0.7610    1.7344 C.3       1 GTP         0.0907
     18 O3'         1.9175    0.2377    2.7247 O.3       1 GTP        -0.5209
     19 C2'         0.4468   -0.3802    0.9263 C.3       1 GTP         0.0305
     20 O2'         1.3993   -1.3703    0.5961 O.3       1 GTP        -0.5978
     21 C1'        -0.6159   -0.9100    1.8769 C.3       1 GTP         0.2339
     22 N9         -1.7127   -1.6108    1.2130 N.pl3     1 GTP        -0.1765
     23 C8         -2.5534   -1.0907    0.2607 C.ar      1 GTP         0.4947
     24 N7         -3.4469   -1.9695   -0.1508 N.2       1 GTP        -0.5802
     25 C5         -3.1705   -3.1041    0.5657 C.ar      1 GTP         0.2279
     26 C6         -3.8738   -4.3568    0.4777 C.ar      1 GTP         0.6513
     27 O6         -4.8240   -4.5720   -0.2607 O.2       1 GTP        -0.5111
     28 N1         -3.3198   -5.3462    1.3780 N.pl3     1 GTP        -0.4713
     29 C2         -2.2226   -5.1203    2.2413 C.ar      1 GTP         0.5256
     30 N2         -1.7649   -6.1367    3.0659 N.pl3     1 GTP        -0.8665
     31 N3         -1.5969   -3.8585    2.2574 N.pl3     1 GTP        -0.5398
     32 C4         -2.1068   -2.8965    1.4082 C.ar      1 GTP        -0.0275
     33 HOG3       -0.2764    9.5025   -0.4508 H         1 GTP         0.4161
     34 H5'        -1.9256    2.5380    1.9293 H         1 GTP         0.0348
     35 H5''       -0.8474    2.1930    0.5521 H         1 GTP         0.0348
     36 H4'         0.0403    1.7078    3.4343 H         1 GTP         0.1215
     37 H3'         1.5907    1.4859    1.1353 H         1 GTP         0.0576
     38 HO3'        2.6839   -0.1150    2.2479 H         1 GTP         0.3842
     39 H2'        -0.0017    0.0018    0.0005 H         1 GTP         0.0252
     40 HO2'        2.0953   -0.9375    0.0709 H         1 GTP         0.4224
     41 H1'        -0.1998   -1.6319    2.6178 H         1 GTP         0.0745
     42 H8         -2.4657   -0.0713   -0.0897 H         1 GTP         0.1522
     43 HN1        -3.7505   -6.2699    1.3904 H         1 GTP         0.3518
     44 HN21       -1.0023   -5.9289    3.6451 H         1 GTP         0.4761
     45 HN22       -2.2347   -6.9951    3.0150 H         1 GTP         0.4761
     46 H46        -0.8062   -3.6900    2.8760 H         1 GTP         0.5030
@<TRIPOS>BOND
     1    1    2 2
     2    1    3 1
     3    1    4 1
     4    1    5 1
     5    4   33 1
     6    5    6 1
     7    6    7 2
     8    6    8 1
     9    6    9 1
    10    9   10 1
    11   10   11 2
    12   10   12 1
    13   10   13 1
    14   13   14 1
    15   14   15 1
    16   14   34 1
    17   14   35 1
    18   15   16 1
    19   15   17 1
    20   15   36 1
    21   16   21 1
    22   17   18 1
    23   17   19 1
    24   17   37 1
    25   18   38 1
    26   19   20 1
    27   19   21 1
    28   19   39 1
    29   20   40 1
    30   21   22 1
    31   21   41 1
    32   22   23 ar
    33   22   32 ar
    34   23   24 ar
    35   23   42 1
    36   24   25 ar
    37   25   26 ar
    38   25   32 ar
    39   26   27 2
    40   26   28 ar
    41   28   29 ar
    42   28   43 1
    43   29   30 1
    44   29   31 ar
    45   30   44 1
    46   30   45 1
    47   31   32 ar
    48   31   46 1
@<TRIPOS>SUBSTRUCTURE
     1 GTP         1 GROUP 0 A     ****
@<TRIPOS>MOLECULE
[[[5-(2-amino-6-oxo-1,3-dihydropurin-2-ylium-9-yl)-3,4-dihydroxy-tetrahydrofuran-2-yl]methoxy-oxido-phosphoryl]oxy-oxido-phosphoryl] hydrogen phosphate
   46    48     1     0     0
SMALL
USER_CHARGES

@<TRIPOS>ATOM
      1 PG          1.9239    6.1385    2.8112 P.3       1 GTP         1.5400
      2 O1G         2.8396    4.9801    3.1384 O.co2     1 GTP        -0.8909
      3 O2G         1.3378    6.2987    1.4261 O.co2     1 GTP        -0.8909
      4 O3G         2.6790    7.5277    3.2185 O.3       1 GTP        -0.7980
      5 O3B         0.7144    6.1852    3.9061 O.3       1 GTP        -0.7612
      6 PB         -0.5052    5.1306    4.1628 P.3       1 GTP         1.5847
      7 O1B         0.0818    3.7533    4.3773 O.co2     1 GTP        -0.8859
      8 O2B        -1.4826    5.7364    5.1453 O.co2     1 GTP        -0.8859
      9 O3A        -1.2210    5.1961    2.6972 O.3       1 GTP        -0.7486
     10 PA         -2.5400    4.4095    2.1393 P.3       1 GTP         1.5001
     11 O1A        -3.7027    4.6909    3.0663 O.co2     1 GTP        -0.8487
     12 O2A        -2.6521    4.6480    0.6493 O.co2     1 GTP        -0.8487
     13 O5'        -2.0401    2.8620    2.3128 O.3       1 GTP        -0.5474
     14 C5'        -0.8811    2.4285    1.6206 C.3       1 GTP         0.2547
     15 C4'        -0.1994    1.3333    2.4288 C.3       1 GTP         0.0926
     16 O4'        -1.1285    0.2356    2.5840 O.3       1 GTP        -0.3593
     17 C3'         1.0324    0.7610    1.7344 C.3       1 GTP         0.0907
     18 O3'         1.9175    0.2377    2.7247 O.3       1 GTP        -0.5209
     19 C2'         0.4468   -0.3802    0.9263 C.3       1 GTP         0.0305
     20 O2'         1.3993   -1.3703    0.5961 O.3       1 GTP        -0.5978
     21 C1'        -0.6159   -0.9100    1.8769 C.3       1 GTP         0.2339
     22 N9         -1.7127   -1.6108    1.2130 N.pl3     1 GTP        -0.1765
     23 C8         -2.5534   -1.0907    0.2607 C.ar      1 GTP         0.4947
     24 N7         -3.4469   -1.9695   -0.1508 N.2       1 GTP        -0.5802
     25 C5         -3.1705   -3.1041    0.5657 C.ar      1 GTP         0.2279
     26 C6         -3.8738   -4.3568    0.4777 C.ar      1 GTP         0.6513
     27 O6         -4.8240   -4.5720   -0.2607 O.2       1 GTP        -0.5111
     28 N1         -3.3198   -5.3462    1.3780 N.pl3     1 GTP        -0.4713
     29 C2         -2.2226   -5.1203    2.2413 C.ar      1 GTP         0.5256
     30 N2         -1.7649   -6.1367    3.0659 N.pl3     1 GTP        -0.8665
     31 N3         -1.5969   -3.8585    2.2574 N.pl3     1 GTP        -0.5398
     32 C4         -2.1068   -2.8965    1.4082 C.ar      1 GTP        -0.0275
     33 HOG3        2.2104    8.3759    3.0660 H         1 GTP         0.4161
     34 H5'        -1.1767    2.0502    0.6368 H         1 GTP         0.0348
     35 H5''       -0.2080    3.2814    1.4876 H         1 GTP         0.0348
     36 H4'         0.0403    1.7078    3.4343 H         1 GTP         0.1215
     37 H3'         1.5907    1.4859    1.1353 H         1 GTP         0.0576
     38 HO3'        2.6839   -0.1150    2.2479 H         1 GTP         0.3842
     39 H2'        -0.0017    0.0018    0.0005 H         1 GTP         0.0252
     40 HO2'        2.0953   -0.9375    0.0709 H         1 GTP         0.4224
     41 H1'        -0.1998   -1.6319    2.6178 H         1 GTP         0.0745
     42 H8         -2.4657   -0.0713   -0.0897 H         1 GTP         0.1522
     43 HN1        -3.7505   -6.2699    1.3904 H         1 GTP         0.3518
     44 HN21       -1.0023   -5.9289    3.6451 H         1 GTP         0.4761
     45 HN22       -2.2347   -6.9951    3.0150 H         1 GTP         0.4761
     46 H46        -0.8062   -3.6900    2.8760 H         1 GTP         0.5030
@<TRIPOS>BOND
     1    1    2 2
     2    1    3 1
     3    1    4 1
     4    1    5 1
     5    4   33 1
     6    5    6 1
     7    6    7 2
     8    6    8 1
     9    6    9 1
    10    9   10 1
    11   10   11 2
    12   10   12 1
    13   10   13 1
    14   13   14 1
    15   14   15 1
    16   14   34 1
    17   14   35 1
    18   15   16 1
    19   15   17 1
    20   15   36 1
    21   16   21 1
    22   17   18 1
    23   17   19 1
    24   17   37 1
    25   18   38 1
    26   19   20 1
    27   19   21 1
    28   19   39 1
    29   20   40 1
    30   21   22 1
    31   21   41 1
    32   22   23 ar
    33   22   32 ar
    34   23   24 ar
    35   23   42 1
    36   24   25 ar
    37   25   26 ar
    38   25   32 ar
    39   26   27 2
    40   26   28 ar
    41   28   29 ar
    42   28   43 1
    43   29   30 1
    44   29   31 ar
    45   30   44 1
    46   30   45 1
    47   31   32 ar
    48   31   46 1
@<TRIPOS>SUBSTRUCTURE
     1 GTP         1 GROUP 0 A     ****
@<TRIPOS>MOLECULE
[[[5-(2-amino-6-oxo-1,3-dihydropurin-2-ylium-9-yl)-3,4-dihydroxy-tetrahydrofuran-2-yl]methoxy-oxido-phosphoryl]oxy-oxido-phosphoryl] hydrogen phosphate
   46    48     1     0     0
SMALL
USER_CHARGES

@<TRIPOS>ATOM
      1 PG          7.5557   -0.4966    2.4104 P.3       1 GTP         1.5400
      2 O1G         7.0178   -1.2192    3.6253 O.co2     1 GTP        -0.8909
      3 O2G         6.7135   -0.3384    1.1640 O.co2     1 GTP        -0.8909
      4 O3G         8.9798   -1.1763    1.9910 O.3       1 GTP        -0.7980
      5 O3B         8.1072    0.9704    2.8658 O.3       1 GTP        -0.7612
      6 PB          7.2898    2.2662    3.4300 P.3       1 GTP         1.5847
      7 O1B         6.4658    1.8377    4.6237 O.co2     1 GTP        -0.8859
      8 O2B         8.2289    3.4497    3.4999 O.co2     1 GTP        -0.8859
      9 O3A         6.3056    2.5306    2.1547 O.3       1 GTP        -0.7486
     10 PA          5.1608    3.6754    1.9343 P.3       1 GTP         1.5001
     11 O1A         4.0574    3.4615    2.9478 O.co2     1 GTP        -0.8487
     12 O2A         5.8411    5.0193    1.7906 O.co2     1 GTP        -0.8487
     13 O5'         4.6405    3.2699    0.4378 O.3       1 GTP        -0.5474
     14 C5'         4.0922    1.9801    0.2227 C.3       1 GTP         0.2547
     15 C4'         2.5944    2.0310    0.4653 C.3       1 GTP         0.0926
     16 O4'         1.9327    2.5740   -0.6889 O.3       1 GTP        -0.3593
     17 C3'         1.9685    0.6634    0.6767 C.3       1 GTP         0.0907
     18 O3'         2.1425    0.1975    1.9977 O.3       1 GTP        -0.5209
     19 C2'         0.5176    0.9128    0.3099 C.3       1 GTP         0.0305
     20 O2'        -0.2103    1.4454    1.4152 O.3       1 GTP        -0.5978
     21 C1'         0.6219    1.9765   -0.7844 C.3       1 GTP         0.2339
     22 N9          0.4237    1.4496   -2.1357 N.pl3     1 GTP        -0.1765
     23 C8          1.3988    0.9691   -2.9736 C.ar      1 GTP         0.4947
     24 N7          0.9092    0.5634   -4.1293 N.2       1 GTP        -0.5802
     25 C5         -0.4383    0.7914   -4.0325 C.ar      1 GTP         0.2279
     26 C6         -1.4217    0.5138   -5.0461 C.ar      1 GTP         0.6513
     27 O6         -1.1759    0.0306   -6.1417 O.2       1 GTP        -0.5111
     28 N1         -2.7543    0.8794   -4.6134 N.pl3     1 GTP        -0.4713
     29 C2         -3.0626    1.4402   -3.3523 C.ar      1 GTP         0.5256
     30 N2         -4.3747    1.7544   -3.0321 N.pl3     1 GTP        -0.8665
     31 N3         -2.0304    1.6759   -2.4233 N.pl3     1 GTP        -0.5398
     32 C4         -0.7497    1.3366   -2.8118 C.ar      1 GTP        -0.0275
     33 HOG3        9.4585   -0.8156    1.2145 H         1 GTP         0.4161
     34 H5'         4.3028    1.6728   -0.8066 H         1 GTP         0.0348
     35 H5''        4.5677    1.2738    0.9106 H         1 GTP         0.0348
     36 H4'         2.3752    2.7029    1.3156 H         1 GTP         0.1215
     37 H3'         2.4336   -0.1217   -0.0015 H         1 GTP         0.0576
     38 HO3'        1.7160   -0.6716    2.0397 H         1 GTP         0.3842
     39 H2'         0.0316    0.0155   -0.0339 H         1 GTP         0.0252
     40 HO2'       -0.1608    0.7921    2.1351 H         1 GTP         0.4224
     41 H1'        -0.1474    2.7798   -0.6651 H         1 GTP         0.0745
     42 H8          2.4413    0.9409   -2.6872 H         1 GTP         0.1522
     43 HN1        -3.5236    0.7214   -5.2629 H         1 GTP         0.3518
     44 HN21       -4.5350    2.1409   -2.1461 H         1 GTP         0.4761
     45 HN22       -5.0542    1.5695   -3.7134 H         1 GTP         0.4761
     46 H46        -2.2462    2.0786   -1.5136 H         1 GTP         0.5030
@<TRIPOS>BOND
     1    1    2 2
     2    1    3 1
     3    1    4 1
     4    1    5 1
     5    4   33 1
     6    5    6 1
     7    6    7 2
     8    6    8 1
     9    6    9 1
    10    9   10 1
    11   10   11 2
    12   10   12 1
    13   10   13 1
    14   13   14 1
    15   14   15 1
    16   14   34 1
    17   14   35 1
    18   15   16 1
    19   15   17 1
    20   15   36 1
    21   16   21 1
    22   17   18 1
    23   17   19 1
    24   17   37 1
    25   18   38 1
    26   19   20 1
    27   19   21 1
    28   19   39 1
    29   20   40 1
    30   21   22 1
    31   21   41 1
    32   22   23 ar
    33   22   32 ar
    34   23   24 ar
    35   23   42 1
    36   24   25 ar
    37   25   26 ar
    38   25   32 ar
    39   26   27 2
    40   26   28 ar
    41   28   29 ar
    42   28   43 1
    43   29   30 1
    44   29   31 ar
    45   30   44 1
    46   30   45 1
    47   31   32 ar
    48   31   46 1
@<TRIPOS>SUBSTRUCTURE
     1 GTP         1 GROUP 0 A     ****
@<TRIPOS>MOLECULE
[[[5-(2-amino-6-oxo-1,3-dihydropurin-2-ylium-9-yl)-3,4-dihydroxy-tetrahydrofuran-2-yl]methoxy-oxido-phosphoryl]oxy-oxido-phosphoryl] hydrogen phosphate
   46    48     1     0     0
SMALL
USER_CHARGES

@<TRIPOS>ATOM
      1 PG         -4.7887    5.0528    2.5656 P.3       1 GTP         1.5400
      2 O1G        -5.3316    4.1135    1.5118 O.co2     1 GTP        -0.8909
      3 O2G        -4.1513    4.5186    3.8289 O.co2     1 GTP        -0.8909
      4 O3G        -5.9687    6.1011    2.9835 O.3       1 GTP        -0.7980
      5 O3B        -3.7615    6.1064    1.8596 O.3       1 GTP        -0.7612
      6 PB         -2.3073    5.8438    1.1654 P.3       1 GTP         1.5847
      7 O1B        -2.4611    4.7732    0.1082 O.co2     1 GTP        -0.8859
      8 O2B        -1.6609    7.1755    0.8555 O.co2     1 GTP        -0.8859
      9 O3A        -1.5104    5.2300    2.4511 O.3       1 GTP        -0.7486
     10 PA          0.0330    4.7083    2.5757 P.3       1 GTP         1.5001
     11 O1A         0.9597    5.8217    2.1376 O.co2     1 GTP        -0.8487
     12 O2A         0.2074    4.0270    3.9155 O.co2     1 GTP        -0.8487
     13 O5'         0.0178    3.5131    1.4595 O.3       1 GTP        -0.5474
     14 C5'        -0.8811    2.4285    1.6206 C.3       1 GTP         0.2547
     15 C4'        -0.1994    1.3333    2.4288 C.3       1 GTP         0.0926
     16 O4'        -1.1285    0.2356    2.5840 O.3       1 GTP        -0.3593
     17 C3'         1.0324    0.7610    1.7344 C.3       1 GTP         0.0907
     18 O3'         1.9175    0.2377    2.7247 O.3       1 GTP        -0.5209
     19 C2'         0.4468   -0.3802    0.9263 C.3       1 GTP         0.0305
     20 O2'         1.3993   -1.3703    0.5961 O.3       1 GTP        -0.5978
     21 C1'        -0.6159   -0.9100    1.8769 C.3       1 GTP         0.2339
     22 N9         -1.7127   -1.6108    1.2130 N.pl3     1 GTP        -0.1765
     23 C8         -2.5534   -1.0907    0.2607 C.ar      1 GTP         0.4947
     24 N7         -3.4469   -1.9695   -0.1508 N.2       1 GTP        -0.5802
     25 C5         -3.1705   -3.1041    0.5657 C.ar      1 GTP         0.2279
     26 C6         -3.8738   -4.3568    0.4777 C.ar      1 GTP         0.6513
     27 O6         -4.8240   -4.5720   -0.2607 O.2       1 GTP        -0.5111
     28 N1         -3.3198   -5.3462    1.3780 N.pl3     1 GTP        -0.4713
     29 C2         -2.2226   -5.1203    2.2413 C.ar      1 GTP         0.5256
     30 N2         -1.7649   -6.1367    3.0659 N.pl3     1 GTP        -0.8665
     31 N3         -1.5969   -3.8585    2.2574 N.pl3     1 GTP        -0.5398
     32 C4         -2.1068   -2.8965    1.4082 C.ar      1 GTP        -0.0275
     33 HOG3       -5.7707    6.7803    3.6630 H         1 GTP         0.4161
     34 H5'        -1.7771    2.7849    2.1387 H         1 GTP         0.0348
     35 H5''       -1.1654    2.0541    0.6320 H         1 GTP         0.0348
     36 H4'         0.0403    1.7078    3.4343 H         1 GTP         0.1215
     37 H3'         1.5907    1.4859    1.1353 H         1 GTP         0.0576
     38 HO3'        2.1521    0.9800    3.3017 H         1 GTP         0.3842
     39 H2'        -0.0017    0.0018    0.0005 H         1 GTP         0.0252
     40 HO2'        2.0953   -0.9375    0.0709 H         1 GTP         0.4224
     41 H1'        -0.1998   -1.6319    2.6178 H         1 GTP         0.0745
     42 H8         -2.4657   -0.0713   -0.0897 H         1 GTP         0.1522
     43 HN1        -3.7505   -6.2699    1.3904 H         1 GTP         0.3518
     44 HN21       -1.0023   -5.9289    3.6451 H         1 GTP         0.4761
     45 HN22       -2.2347   -6.9951    3.0150 H         1 GTP         0.4761
     46 H46        -0.8062   -3.6900    2.8760 H         1 GTP         0.5030
@<TRIPOS>BOND
     1    1    2 2
     2    1    3 1
     3    1    4 1
     4    1    5 1
     5    4   33 1
     6    5    6 1
     7    6    7 2
     8    6    8 1
     9    6    9 1
    10    9   10 1
    11   10   11 2
    12   10   12 1
    13   10   13 1
    14   13   14 1
    15   14   15 1
    16   14   34 1
    17   14   35 1
    18   15   16 1
    19   15   17 1
    20   15   36 1
    21   16   21 1
    22   17   18 1
    23   17   19 1
    24   17   37 1
    25   18   38 1
    26   19   20 1
    27   19   21 1
    28   19   39 1
    29   20   40 1
    30   21   22 1
    31   21   41 1
    32   22   23 ar
    33   22   32 ar
    34   23   24 ar
    35   23   42 1
    36   24   25 ar
    37   25   26 ar
    38   25   32 ar
    39   26   27 2
    40   26   28 ar
    41   28   29 ar
    42   28   43 1
    43   29   30 1
    44   29   31 ar
    45   30   44 1
    46   30   45 1
    47   31   32 ar
    48   31   46 1
@<TRIPOS>SUBSTRUCTURE
     1 GTP         1 GROUP 0 A     ****
@<TRIPOS>MOLECULE
[[[5-(2-amino-6-oxo-1,3-dihydropurin-2-ylium-9-yl)-3,4-dihydroxy-tetrahydrofuran-2-yl]methoxy-oxido-phosphoryl]oxy-oxido-phosphoryl] hydrogen phosphate
   46    48     1     0     0
SMALL
USER_CHARGES

@<TRIPOS>ATOM
      1 PG         -4.7893    5.0412    2.5237 P.3       1 GTP         1.5400
      2 O1G        -4.1805    3.9269    1.7020 O.co2     1 GTP        -0.8909
      3 O2G        -5.2997    4.7846    3.9242 O.co2     1 GTP        -0.8909
      4 O3G        -5.9861    5.7324    1.6543 O.3       1 GTP        -0.7980
      5 O3B        -3.7524    6.3010    2.5612 O.3       1 GTP        -0.7612
      6 PB         -2.2801    6.4236    3.2561 P.3       1 GTP         1.5847
      7 O1B        -1.6759    7.7580    2.8797 O.co2     1 GTP        -0.8859
      8 O2B        -2.3762    5.9764    4.6977 O.co2     1 GTP        -0.8859
      9 O3A        -1.5104    5.2300    2.4511 O.3       1 GTP        -0.7486
     10 PA          0.0330    4.7083    2.5757 P.3       1 GTP         1.5001
     11 O1A         0.9597    5.8217    2.1376 O.co2     1 GTP        -0.8487
     12 O2A         0.2074    4.0270    3.9155 O.co2     1 GTP        -0.8487
     13 O5'         0.0178    3.5131    1.4595 O.3       1 GTP        -0.5474
     14 C5'        -0.8811    2.4285    1.6206 C.3       1 GTP         0.2547
     15 C4'        -0.1994    1.3333    2.4288 C.3       1 GTP         0.0926
     16 O4'        -1.1285    0.2356    2.5840 O.3       1 GTP        -0.3593
     17 C3'         1.0324    0.7610    1.7344 C.3       1 GTP         0.0907
     18 O3'         1.9175    0.2377    2.7247 O.3       1 GTP        -0.5209
     19 C2'         0.4468   -0.3802    0.9263 C.3       1 GTP         0.0305
     20 O2'         1.3993   -1.3703    0.5961 O.3       1 GTP        -0.5978
     21 C1'        -0.6159   -0.9100    1.8769 C.3       1 GTP         0.2339
     22 N9         -1.7127   -1.6108    1.2130 N.pl3     1 GTP        -0.1765
     23 C8         -2.5534   -1.0907    0.2607 C.ar      1 GTP         0.4947
     24 N7         -3.4469   -1.9695   -0.1508 N.2       1 GTP        -0.5802
     25 C5         -3.1705   -3.1041    0.5657 C.ar      1 GTP         0.2279
     26 C6         -3.8738   -4.3568    0.4777 C.ar      1 GTP         0.6513
     27 O6         -4.8240   -4.5720   -0.2607 O.2       1 GTP        -0.5111
     28 N1         -3.3198   -5.3462    1.3780 N.pl3     1 GTP        -0.4713
     29 C2         -2.2226   -5.1203    2.2413 C.ar      1 GTP         0.5256
     30 N2         -1.7649   -6.1367    3.0659 N.pl3     1 GTP        -0.8665
     31 N3         -1.5969   -3.8585    2.2574 N.pl3     1 GTP        -0.5398
     32 C4         -2.1068   -2.8965    1.4082 C.ar      1 GTP        -0.0275
     33 HOG3       -6.4827    6.4781    2.0540 H         1 GTP         0.4161
     34 H5'        -1.7771    2.7849    2.1387 H         1 GTP         0.0348
     35 H5''       -1.1654    2.0541    0.6320 H         1 GTP         0.0348
     36 H4'         0.0403    1.7078    3.4343 H         1 GTP         0.1215
     37 H3'         1.5907    1.4859    1.1353 H         1 GTP         0.0576
     38 HO3'        2.1521    0.9800    3.3017 H         1 GTP         0.3842
     39 H2'        -0.0017    0.0018    0.0005 H         1 GTP         0.0252
     40 HO2'        0.9369   -2.0558    0.0825 H         1 GTP         0.4224
     41 H1'        -0.1998   -1.6319    2.6178 H         1 GTP         0.0745
     42 H8         -2.4657   -0.0713   -0.0897 H         1 GTP         0.1522
     43 HN1        -3.7505   -6.2699    1.3904 H         1 GTP         0.3518
     44 HN21       -1.0023   -5.9289    3.6451 H         1 GTP         0.4761
     45 HN22       -2.2347   -6.9951    3.0150 H         1 GTP         0.4761
     46 H46        -0.8062   -3.6900    2.8760 H         1 GTP         0.5030
@<TRIPOS>BOND
     1    1    2 2
     2    1    3 1
     3    1    4 1
     4    1    5 1
     5    4   33 1
     6    5    6 1
     7    6    7 2
     8    6    8 1
     9    6    9 1
    10    9   10 1
    11   10   11 2
    12   10   12 1
    13   10   13 1
    14   13   14 1
    15   14   15 1
    16   14   34 1
    17   14   35 1
    18   15   16 1
    19   15   17 1
    20   15   36 1
    21   16   21 1
    22   17   18 1
    23   17   19 1
    24   17   37 1
    25   18   38 1
    26   19   20 1
    27   19   21 1
    28   19   39 1
    29   20   40 1
    30   21   22 1
    31   21   41 1
    32   22   23 ar
    33   22   32 ar
    34   23   24 ar
    35   23   42 1
    36   24   25 ar
    37   25   26 ar
    38   25   32 ar
    39   26   27 2
    40   26   28 ar
    41   28   29 ar
    42   28   43 1
    43   29   30 1
    44   29   31 ar
    45   30   44 1
    46   30   45 1
    47   31   32 ar
    48   31   46 1
@<TRIPOS>SUBSTRUCTURE
     1 GTP         1 GROUP 0 A     ****
@<TRIPOS>MOLECULE
[[[5-(2-amino-6-oxo-1,3-dihydropurin-2-ylium-9-yl)-3,4-dihydroxy-tetrahydrofuran-2-yl]methoxy-oxido-phosphoryl]oxy-oxido-phosphoryl] hydrogen phosphate
   46    48     1     0     0
SMALL
USER_CHARGES

@<TRIPOS>ATOM
      1 PG          7.2825   -0.4513    2.8354 P.3       1 GTP         1.5400
      2 O1G         5.8192   -0.1925    2.5541 O.co2     1 GTP        -0.8909
      3 O2G         8.0857   -1.3946    1.9677 O.co2     1 GTP        -0.8909
      4 O3G         7.4365   -0.9205    4.3917 O.3       1 GTP        -0.7980
      5 O3B         8.0661    0.9772    2.9298 O.3       1 GTP        -0.7612
      6 PB          8.3566    2.0894    1.7704 P.3       1 GTP         1.5847
      7 O1B         9.0012    3.2991    2.4097 O.co2     1 GTP        -0.8859
      8 O2B         8.9745    1.4034    0.5725 O.co2     1 GTP        -0.8859
      9 O3A         6.8179    2.4457    1.3577 O.3       1 GTP        -0.7486
     10 PA          6.2486    3.4952    0.2423 P.3       1 GTP         1.5001
     11 O1A         6.6342    4.8994    0.6541 O.co2     1 GTP        -0.8487
     12 O2A         6.5806    2.9650   -1.1355 O.co2     1 GTP        -0.8487
     13 O5'         4.6405    3.2699    0.4378 O.3       1 GTP        -0.5474
     14 C5'         4.0922    1.9801    0.2227 C.3       1 GTP         0.2547
     15 C4'         2.5944    2.0310    0.4653 C.3       1 GTP         0.0926
     16 O4'         1.9327    2.5740   -0.6889 O.3       1 GTP        -0.3593
     17 C3'         1.9685    0.6634    0.6767 C.3       1 GTP         0.0907
     18 O3'         2.1425    0.1975    1.9977 O.3       1 GTP        -0.5209
     19 C2'         0.5176    0.9128    0.3099 C.3       1 GTP         0.0305
     20 O2'        -0.2103    1.4454    1.4152 O.3       1 GTP        -0.5978
     21 C1'         0.6219    1.9765   -0.7844 C.3       1 GTP         0.2339
     22 N9          0.4237    1.4496   -2.1357 N.pl3     1 GTP        -0.1765
     23 C8          1.1824    0.4874   -2.7540 C.ar      1 GTP         0.4947
     24 N7          0.7559    0.2220   -3.9737 N.2       1 GTP        -0.5802
     25 C5         -0.3234    1.0475   -4.1492 C.ar      1 GTP         0.2279
     26 C6         -1.1420    1.1360   -5.3297 C.ar      1 GTP         0.6513
     27 O6         -0.9760    0.4743   -6.3440 O.2       1 GTP        -0.5111
     28 N1         -2.1989    2.1138   -5.1762 N.pl3     1 GTP        -0.4713
     29 C2         -2.4100    2.8911   -4.0137 C.ar      1 GTP         0.5256
     30 N2         -3.4547    3.8016   -3.9653 N.pl3     1 GTP        -0.8665
     31 N3         -1.5548    2.7339   -2.9056 N.pl3     1 GTP        -0.5398
     32 C4         -0.5379    1.8078   -3.0266 C.ar      1 GTP        -0.0275
     33 HOG3        8.3335   -1.1274    4.7304 H         1 GTP         0.4161
     34 H5'         4.3028    1.6728   -0.8066 H         1 GTP         0.0348
     35 H5''        4.5677    1.2738    0.9106 H         1 GTP         0.0348
     36 H4'         2.3752    2.7029    1.3156 H         1 GTP         0.1215
     37 H3'         2.4336   -0.1217   -0.0015 H         1 GTP         0.0576
     38 HO3'        1.7160   -0.6716    2.0397 H         1 GTP         0.3842
     39 H2'         0.0316    0.0155   -0.0339 H         1 GTP         0.0252
     40 HO2'       -0.1608    0.7921    2.1351 H         1 GTP         0.4224
     41 H1'        -0.1474    2.7798   -0.6651 H         1 GTP         0.0745
     42 H8          2.0279    0.0203   -2.2675 H         1 GTP         0.1522
     43 HN1        -2.8350    2.2514   -5.9606 H         1 GTP         0.3518
     44 HN21       -3.5576    4.3154   -3.1374 H         1 GTP         0.4761
     45 HN22       -4.0202    3.8709   -4.7625 H         1 GTP         0.4761
     46 H46        -1.7022    3.2899   -2.0658 H         1 GTP         0.5030
@<TRIPOS>BOND
     1    1    2 2
     2    1    3 1
     3    1    4 1
     4    1    5 1
     5    4   33 1
     6    5    6 1
     7    6    7 2
     8    6    8 1
     9    6    9 1
    10    9   10 1
    11   10   11 2
    12   10   12 1
    13   10   13 1
    14   13   14 1
    15   14   15 1
    16   14   34 1
    17   14   35 1
    18   15   16 1
    19   15   17 1
    20   15   36 1
    21   16   21 1
    22   17   18 1
    23   17   19 1
    24   17   37 1
    25   18   38 1
    26   19   20 1
    27   19   21 1
    28   19   39 1
    29   20   40 1
    30   21   22 1
    31   21   41 1
    32   22   23 ar
    33   22   32 ar
    34   23   24 ar
    35   23   42 1
    36   24   25 ar
    37   25   26 ar
    38   25   32 ar
    39   26   27 2
    40   26   28 ar
    41   28   29 ar
    42   28   43 1
    43   29   30 1
    44   29   31 ar
    45   30   44 1
    46   30   45 1
    47   31   32 ar
    48   31   46 1
@<TRIPOS>SUBSTRUCTURE
     1 GTP         1 GROUP 0 A     ****
@<TRIPOS>MOLECULE
[[[5-(2-amino-6-oxo-1,3-dihydropurin-2-ylium-9-yl)-3,4-dihydroxy-tetrahydrofuran-2-yl]methoxy-oxido-phosphoryl]oxy-oxido-phosphoryl] hydrogen phosphate
   46    48     1     0     0
SMALL
USER_CHARGES

@<TRIPOS>ATOM
      1 PG          3.0451    3.0475    7.1283 P.3       1 GTP         1.5400
      2 O1G         4.2291    3.9874    7.1764 O.co2     1 GTP        -0.8909
      3 O2G         2.0432    3.0009    8.2604 O.co2     1 GTP        -0.8909
      4 O3G         3.5951    1.5338    6.8601 O.3       1 GTP        -0.7980
      5 O3B         2.2456    3.2719    5.7232 O.3       1 GTP        -0.7612
      6 PB          1.3998    4.5651    5.1961 P.3       1 GTP         1.5847
      7 O1B         0.1866    4.7446    6.0811 O.co2     1 GTP        -0.8859
      8 O2B         2.3577    5.7039    4.9251 O.co2     1 GTP        -0.8859
      9 O3A         0.9326    3.9962    3.7391 O.3       1 GTP        -0.7486
     10 PA          0.0330    4.7083    2.5757 P.3       1 GTP         1.5001
     11 O1A        -1.3626    4.9400    3.1133 O.co2     1 GTP        -0.8487
     12 O2A         0.8346    5.8384    1.9673 O.co2     1 GTP        -0.8487
     13 O5'         0.0178    3.5131    1.4595 O.3       1 GTP        -0.5474
     14 C5'        -0.8811    2.4285    1.6206 C.3       1 GTP         0.2547
     15 C4'        -0.1994    1.3333    2.4288 C.3       1 GTP         0.0926
     16 O4'        -1.1285    0.2356    2.5840 O.3       1 GTP        -0.3593
     17 C3'         1.0324    0.7610    1.7344 C.3       1 GTP         0.0907
     18 O3'         1.9175    0.2377    2.7247 O.3       1 GTP        -0.5209
     19 C2'         0.4468   -0.3802    0.9263 C.3       1 GTP         0.0305
     20 O2'         1.3993   -1.3703    0.5961 O.3       1 GTP        -0.5978
     21 C1'        -0.6159   -0.9100    1.8769 C.3       1 GTP         0.2339
     22 N9         -1.7127   -1.6108    1.2130 N.pl3     1 GTP        -0.1765
     23 C8         -1.6092   -2.7449    0.4467 C.ar      1 GTP         0.4947
     24 N7         -2.7778   -3.1416   -0.0191 N.2       1 GTP        -0.5802
     25 C5         -3.6725   -2.2253    0.4675 C.ar      1 GTP         0.2279
     26 C6         -5.0932   -2.2202    0.2371 C.ar      1 GTP         0.6513
     27 O6         -5.6933   -3.0474   -0.4337 O.2       1 GTP        -0.5111
     28 N1         -5.7390   -1.1061    0.8992 N.pl3     1 GTP        -0.4713
     29 C2         -5.0661   -0.1368    1.6789 C.ar      1 GTP         0.5256
     30 N2         -5.7774    0.8934    2.2749 N.pl3     1 GTP        -0.8665
     31 N3         -3.6705   -0.2251    1.8481 N.pl3     1 GTP        -0.5398
     32 C4         -3.0303   -1.2785    1.2262 C.ar      1 GTP        -0.0275
     33 HOG3        2.9428    0.8035    6.8019 H         1 GTP         0.4161
     34 H5'        -1.7771    2.7849    2.1387 H         1 GTP         0.0348
     35 H5''       -1.1654    2.0541    0.6320 H         1 GTP         0.0348
     36 H4'         0.0403    1.7078    3.4343 H         1 GTP         0.1215
     37 H3'         1.5907    1.4859    1.1353 H         1 GTP         0.0576
     38 HO3'        2.1521    0.9800    3.3017 H         1 GTP         0.3842
     39 H2'        -0.0017    0.0018    0.0005 H         1 GTP         0.0252
     40 HO2'        2.0953   -0.9375    0.0709 H         1 GTP         0.4224
     41 H1'        -0.1998   -1.6319    2.6178 H         1 GTP         0.0745
     42 H8         -0.6610   -3.2324    0.2653 H         1 GTP         0.1522
     43 HN1        -6.7487   -1.0139    0.7961 H         1 GTP         0.3518
     44 HN21       -5.2644    1.5388    2.8044 H         1 GTP         0.4761
     45 HN22       -6.7459    0.9078    2.1265 H         1 GTP         0.4761
     46 H46        -3.1807    0.4690    2.4089 H         1 GTP         0.5030
@<TRIPOS>BOND
     1    1    2 2
     2    1    3 1
     3    1    4 1
     4    1    5 1
     5    4   33 1
     6    5    6 1
     7    6    7 2
     8    6    8 1
     9    6    9 1
    10    9   10 1
    11   10   11 2
    12   10   12 1
    13   10   13 1
    14   13   14 1
    15   14   15 1
    16   14   34 1
    17   14   35 1
    18   15   16 1
    19   15   17 1
    20   15   36 1
    21   16   21 1
    22   17   18 1
    23   17   19 1
    24   17   37 1
    25   18   38 1
    26   19   20 1
    27   19   21 1
    28   19   39 1
    29   20   40 1
    30   21   22 1
    31   21   41 1
    32   22   23 ar
    33   22   32 ar
    34   23   24 ar
    35   23   42 1
    36   24   25 ar
    37   25   26 ar
    38   25   32 ar
    39   26   27 2
    40   26   28 ar
    41   28   29 ar
    42   28   43 1
    43   29   30 1
    44   29   31 ar
    45   30   44 1
    46   30   45 1
    47   31   32 ar
    48   31   46 1
@<TRIPOS>SUBSTRUCTURE
     1 GTP         1 GROUP 0 A     ****
@<TRIPOS>MOLECULE
[[[5-(2-amino-6-oxo-1,3-dihydropurin-2-ylium-9-yl)-3,4-dihydroxy-tetrahydrofuran-2-yl]methoxy-oxido-phosphoryl]oxy-oxido-phosphoryl] hydrogen phosphate
   46    48     1     0     0
SMALL
USER_CHARGES

@<TRIPOS>ATOM
      1 PG          0.7717    3.8655    5.8398 P.3       1 GTP         1.5400
      2 O1G         1.0950    3.2924    7.2016 O.co2     1 GTP        -0.8909
      3 O2G         0.6021    5.3557    5.6440 O.co2     1 GTP        -0.8909
      4 O3G        -0.5567    3.1122    5.2621 O.3       1 GTP        -0.7980
      5 O3B         1.8602    3.3103    4.7579 O.3       1 GTP        -0.7612
      6 PB          3.4618    3.6048    4.6402 P.3       1 GTP         1.5847
      7 O1B         3.6629    5.0665    4.3081 O.co2     1 GTP        -0.8859
      8 O2B         4.1701    2.9533    5.8070 O.co2     1 GTP        -0.8859
      9 O3A         3.7995    2.6957    3.3271 O.3       1 GTP        -0.7486
     10 PA          5.2202    2.4549    2.5568 P.3       1 GTP         1.5001
     11 O1A         5.6822    3.7694    1.9659 O.co2     1 GTP        -0.8487
     12 O2A         6.1255    1.6393    3.4539 O.co2     1 GTP        -0.8487
     13 O5'         4.7294    1.4427    1.3696 O.3       1 GTP        -0.5474
     14 C5'         4.0922    1.9801    0.2227 C.3       1 GTP         0.2547
     15 C4'         2.5944    2.0310    0.4653 C.3       1 GTP         0.0926
     16 O4'         1.9327    2.5740   -0.6889 O.3       1 GTP        -0.3593
     17 C3'         1.9685    0.6634    0.6767 C.3       1 GTP         0.0907
     18 O3'         2.1425    0.1975    1.9977 O.3       1 GTP        -0.5209
     19 C2'         0.5176    0.9128    0.3099 C.3       1 GTP         0.0305
     20 O2'        -0.2103    1.4454    1.4152 O.3       1 GTP        -0.5978
     21 C1'         0.6219    1.9765   -0.7844 C.3       1 GTP         0.2339
     22 N9          0.4237    1.4496   -2.1357 N.pl3     1 GTP        -0.1765
     23 C8          1.3988    0.9691   -2.9736 C.ar      1 GTP         0.4947
     24 N7          0.9092    0.5634   -4.1293 N.2       1 GTP        -0.5802
     25 C5         -0.4383    0.7914   -4.0325 C.ar      1 GTP         0.2279
     26 C6         -1.4217    0.5138   -5.0461 C.ar      1 GTP         0.6513
     27 O6         -1.1759    0.0306   -6.1417 O.2       1 GTP        -0.5111
     28 N1         -2.7543    0.8794   -4.6134 N.pl3     1 GTP        -0.4713
     29 C2         -3.0626    1.4402   -3.3523 C.ar      1 GTP         0.5256
     30 N2         -4.3747    1.7544   -3.0321 N.pl3     1 GTP        -0.8665
     31 N3         -2.0304    1.6759   -2.4233 N.pl3     1 GTP        -0.5398
     32 C4         -0.7497    1.3366   -2.8118 C.ar      1 GTP        -0.0275
     33 HOG3       -0.8959    3.3749    4.3799 H         1 GTP         0.4161
     34 H5'         4.4843    2.9854    0.0380 H         1 GTP         0.0348
     35 H5''        4.3191    1.3446   -0.6392 H         1 GTP         0.0348
     36 H4'         2.3752    2.7029    1.3156 H         1 GTP         0.1215
     37 H3'         2.4336   -0.1217   -0.0015 H         1 GTP         0.0576
     38 HO3'        3.0987    0.1465    2.1461 H         1 GTP         0.3842
     39 H2'         0.0316    0.0155   -0.0339 H         1 GTP         0.0252
     40 HO2'       -0.1608    0.7921    2.1351 H         1 GTP         0.4224
     41 H1'        -0.1474    2.7798   -0.6651 H         1 GTP         0.0745
     42 H8          2.4413    0.9409   -2.6872 H         1 GTP         0.1522
     43 HN1        -3.5236    0.7214   -5.2629 H         1 GTP         0.3518
     44 HN21       -4.5350    2.1409   -2.1461 H         1 GTP         0.4761
     45 HN22       -5.0542    1.5695   -3.7134 H         1 GTP         0.4761
     46 H46        -2.2462    2.0786   -1.5136 H         1 GTP         0.5030
@<TRIPOS>BOND
     1    1    2 2
     2    1    3 1
     3    1    4 1
     4    1    5 1
     5    4   33 1
     6    5    6 1
     7    6    7 2
     8    6    8 1
     9    6    9 1
    10    9   10 1
    11   10   11 2
    12   10   12 1
    13   10   13 1
    14   13   14 1
    15   14   15 1
    16   14   34 1
    17   14   35 1
    18   15   16 1
    19   15   17 1
    20   15   36 1
    21   16   21 1
    22   17   18 1
    23   17   19 1
    24   17   37 1
    25   18   38 1
    26   19   20 1
    27   19   21 1
    28   19   39 1
    29   20   40 1
    30   21   22 1
    31   21   41 1
    32   22   23 ar
    33   22   32 ar
    34   23   24 ar
    35   23   42 1
    36   24   25 ar
    37   25   26 ar
    38   25   32 ar
    39   26   27 2
    40   26   28 ar
    41   28   29 ar
    42   28   43 1
    43   29   30 1
    44   29   31 ar
    45   30   44 1
    46   30   45 1
    47   31   32 ar
    48   31   46 1
@<TRIPOS>SUBSTRUCTURE
     1 GTP         1 GROUP 0 A     ****
@<TRIPOS>MOLECULE
[[[5-(2-amino-6-oxo-1,3-dihydropurin-2-ylium-9-yl)-3,4-dihydroxy-tetrahydrofuran-2-yl]methoxy-oxido-phosphoryl]oxy-oxido-phosphoryl] hydrogen phosphate
   46    48     1     0     0
SMALL
USER_CHARGES

@<TRIPOS>ATOM
      1 PG          9.3990    1.6136    3.8962 P.3       1 GTP         1.5400
      2 O1G        10.5817    2.5370    3.7063 O.co2     1 GTP        -0.8909
      3 O2G         8.8733    1.2981    5.2788 O.co2     1 GTP        -0.8909
      4 O3G         9.7100    0.2076    3.1265 O.3       1 GTP        -0.7980
      5 O3B         8.1631    2.1354    2.9667 O.3       1 GTP        -0.7612
      6 PB          7.2747    3.5007    3.0780 P.3       1 GTP         1.5847
      7 O1B         6.4787    3.4577    4.3633 O.co2     1 GTP        -0.8859
      8 O2B         8.1454    4.6860    2.7252 O.co2     1 GTP        -0.8859
      9 O3A         6.2746    3.2665    1.8092 O.3       1 GTP        -0.7486
     10 PA          5.0664    4.2077    1.2399 P.3       1 GTP         1.5001
     11 O1A         3.9788    4.2908    2.2890 O.co2     1 GTP        -0.8487
     12 O2A         5.6692    5.4579    0.6372 O.co2     1 GTP        -0.8487
     13 O5'         4.5670    3.2937   -0.0211 O.3       1 GTP        -0.5474
     14 C5'         4.0922    1.9801    0.2227 C.3       1 GTP         0.2547
     15 C4'         2.5944    2.0310    0.4653 C.3       1 GTP         0.0926
     16 O4'         1.9327    2.5740   -0.6889 O.3       1 GTP        -0.3593
     17 C3'         1.9685    0.6634    0.6767 C.3       1 GTP         0.0907
     18 O3'         2.1425    0.1975    1.9977 O.3       1 GTP        -0.5209
     19 C2'         0.5176    0.9128    0.3099 C.3       1 GTP         0.0305
     20 O2'        -0.2103    1.4454    1.4152 O.3       1 GTP        -0.5978
     21 C1'         0.6219    1.9765   -0.7844 C.3       1 GTP         0.2339
     22 N9          0.4237    1.4496   -2.1357 N.pl3     1 GTP        -0.1765
     23 C8          1.3988    0.9691   -2.9736 C.ar      1 GTP         0.4947
     24 N7          0.9092    0.5634   -4.1293 N.2       1 GTP        -0.5802
     25 C5         -0.4383    0.7914   -4.0325 C.ar      1 GTP         0.2279
     26 C6         -1.4217    0.5138   -5.0461 C.ar      1 GTP         0.6513
     27 O6         -1.1759    0.0306   -6.1417 O.2       1 GTP        -0.5111
     28 N1         -2.7543    0.8794   -4.6134 N.pl3     1 GTP        -0.4713
     29 C2         -3.0626    1.4402   -3.3523 C.ar      1 GTP         0.5256
     30 N2         -4.3747    1.7544   -3.0321 N.pl3     1 GTP        -0.8665
     31 N3         -2.0304    1.6759   -2.4233 N.pl3     1 GTP        -0.5398
     32 C4         -0.7497    1.3366   -2.8118 C.ar      1 GTP        -0.0275
     33 HOG3        9.0324   -0.5011    3.1569 H         1 GTP         0.4161
     34 H5'         4.3179    1.3548   -0.6470 H         1 GTP         0.0348
     35 H5''        4.6083    1.5737    1.0983 H         1 GTP         0.0348
     36 H4'         2.3752    2.7029    1.3156 H         1 GTP         0.1215
     37 H3'         2.4336   -0.1217   -0.0015 H         1 GTP         0.0576
     38 HO3'        1.7160   -0.6716    2.0397 H         1 GTP         0.3842
     39 H2'         0.0316    0.0155   -0.0339 H         1 GTP         0.0252
     40 HO2'       -0.1608    0.7921    2.1351 H         1 GTP         0.4224
     41 H1'        -0.1474    2.7798   -0.6651 H         1 GTP         0.0745
     42 H8          2.4413    0.9409   -2.6872 H         1 GTP         0.1522
     43 HN1        -3.5236    0.7214   -5.2629 H         1 GTP         0.3518
     44 HN21       -4.5350    2.1409   -2.1461 H         1 GTP         0.4761
     45 HN22       -5.0542    1.5695   -3.7134 H         1 GTP         0.4761
     46 H46        -2.2462    2.0786   -1.5136 H         1 GTP         0.5030
@<TRIPOS>BOND
     1    1    2 2
     2    1    3 1
     3    1    4 1
     4    1    5 1
     5    4   33 1
     6    5    6 1
     7    6    7 2
     8    6    8 1
     9    6    9 1
    10    9   10 1
    11   10   11 2
    12   10   12 1
    13   10   13 1
    14   13   14 1
    15   14   15 1
    16   14   34 1
    17   14   35 1
    18   15   16 1
    19   15   17 1
    20   15   36 1
    21   16   21 1
    22   17   18 1
    23   17   19 1
    24   17   37 1
    25   18   38 1
    26   19   20 1
    27   19   21 1
    28   19   39 1
    29   20   40 1
    30   21   22 1
    31   21   41 1
    32   22   23 ar
    33   22   32 ar
    34   23   24 ar
    35   23   42 1
    36   24   25 ar
    37   25   26 ar
    38   25   32 ar
    39   26   27 2
    40   26   28 ar
    41   28   29 ar
    42   28   43 1
    43   29   30 1
    44   29   31 ar
    45   30   44 1
    46   30   45 1
    47   31   32 ar
    48   31   46 1
@<TRIPOS>SUBSTRUCTURE
     1 GTP         1 GROUP 0 A     ****
@<TRIPOS>MOLECULE
[[[5-(2-amino-6-oxo-1,3-dihydropurin-2-ylium-9-yl)-3,4-dihydroxy-tetrahydrofuran-2-yl]methoxy-oxido-phosphoryl]oxy-oxido-phosphoryl] hydrogen phosphate
   46    48     1     0     0
SMALL
USER_CHARGES

@<TRIPOS>ATOM
      1 PG         -3.0823    7.2616   -0.2475 P.3       1 GTP         1.5400
      2 O1G        -2.9029    6.5420    1.0706 O.co2     1 GTP        -0.8909
      3 O2G        -2.4573    8.6185   -0.4836 O.co2     1 GTP        -0.8909
      4 O3G        -4.6798    7.3635   -0.5696 O.3       1 GTP        -0.7980
      5 O3B        -2.6493    6.2611   -1.4621 O.3       1 GTP        -0.7612
      6 PB         -1.1818    5.6583   -1.8478 P.3       1 GTP         1.5847
      7 O1B        -1.3463    4.6690   -2.9799 O.co2     1 GTP        -0.8859
      8 O2B        -0.1871    6.7948   -1.9278 O.co2     1 GTP        -0.8859
      9 O3A        -0.8569    4.8548   -0.4644 O.3       1 GTP        -0.7486
     10 PA          0.4528    3.9705   -0.0493 P.3       1 GTP         1.5001
     11 O1A         0.5333    2.7638   -0.9591 O.co2     1 GTP        -0.8487
     12 O2A         1.6327    4.9025    0.1202 O.co2     1 GTP        -0.8487
     13 O5'         0.0178    3.5131    1.4595 O.3       1 GTP        -0.5474
     14 C5'        -0.8811    2.4285    1.6206 C.3       1 GTP         0.2547
     15 C4'        -0.1994    1.3333    2.4288 C.3       1 GTP         0.0926
     16 O4'        -1.1285    0.2356    2.5840 O.3       1 GTP        -0.3593
     17 C3'         1.0324    0.7610    1.7344 C.3       1 GTP         0.0907
     18 O3'         1.9175    0.2377    2.7247 O.3       1 GTP        -0.5209
     19 C2'         0.4468   -0.3802    0.9263 C.3       1 GTP         0.0305
     20 O2'         1.3993   -1.3703    0.5961 O.3       1 GTP        -0.5978
     21 C1'        -0.6159   -0.9100    1.8769 C.3       1 GTP         0.2339
     22 N9         -1.7127   -1.6108    1.2130 N.pl3     1 GTP        -0.1765
     23 C8         -3.0389   -1.2578    1.2391 C.ar      1 GTP         0.4947
     24 N7         -3.7909   -2.0880    0.5425 N.2       1 GTP        -0.5802
     25 C5         -2.9127   -3.0150    0.0458 C.ar      1 GTP         0.2279
     26 C6         -3.2467   -4.1411   -0.7860 C.ar      1 GTP         0.6513
     27 O6         -4.3761   -4.4189   -1.1621 O.2       1 GTP        -0.5111
     28 N1         -2.0748   -4.9191   -1.1296 N.pl3     1 GTP        -0.4713
     29 C2         -0.7595   -4.6181   -0.7058 C.ar      1 GTP         0.5256
     30 N2          0.2985   -5.4268   -1.0920 N.pl3     1 GTP        -0.8665
     31 N3         -0.5304   -3.4919    0.1084 N.pl3     1 GTP        -0.5398
     32 C4         -1.6318   -2.7332    0.4512 C.ar      1 GTP        -0.0275
     33 HOG3       -4.9617    7.8075   -1.3976 H         1 GTP         0.4161
     34 H5'        -1.7771    2.7849    2.1387 H         1 GTP         0.0348
     35 H5''       -1.1654    2.0541    0.6320 H         1 GTP         0.0348
     36 H4'         0.0403    1.7078    3.4343 H         1 GTP         0.1215
     37 H3'         1.5907    1.4859    1.1353 H         1 GTP         0.0576
     38 HO3'        2.1521    0.9800    3.3017 H         1 GTP         0.3842
     39 H2'        -0.0017    0.0018    0.0005 H         1 GTP         0.0252
     40 HO2'        2.0953   -0.9375    0.0709 H         1 GTP         0.4224
     41 H1'        -0.1998   -1.6319    2.6178 H         1 GTP         0.0745
     42 H8         -3.3933   -0.3909    1.7800 H         1 GTP         0.1522
     43 HN1        -2.2071   -5.7408   -1.7178 H         1 GTP         0.3518
     44 HN21        1.1896   -5.1751   -0.7715 H         1 GTP         0.4761
     45 HN22        0.0846   -6.1966   -1.6593 H         1 GTP         0.4761
     46 H46         0.4142   -3.2695    0.4160 H         1 GTP         0.5030
@<TRIPOS>BOND
     1    1    2 2
     2    1    3 1
     3    1    4 1
     4    1    5 1
     5    4   33 1
     6    5    6 1
     7    6    7 2
     8    6    8 1
     9    6    9 1
    10    9   10 1
    11   10   11 2
    12   10   12 1
    13   10   13 1
    14   13   14 1
    15   14   15 1
    16   14   34 1
    17   14   35 1
    18   15   16 1
    19   15   17 1
    20   15   36 1
    21   16   21 1
    22   17   18 1
    23   17   19 1
    24   17   37 1
    25   18   38 1
    26   19   20 1
    27   19   21 1
    28   19   39 1
    29   20   40 1
    30   21   22 1
    31   21   41 1
    32   22   23 ar
    33   22   32 ar
    34   23   24 ar
    35   23   42 1
    36   24   25 ar
    37   25   26 ar
    38   25   32 ar
    39   26   27 2
    40   26   28 ar
    41   28   29 ar
    42   28   43 1
    43   29   30 1
    44   29   31 ar
    45   30   44 1
    46   30   45 1
    47   31   32 ar
    48   31   46 1
@<TRIPOS>SUBSTRUCTURE
     1 GTP         1 GROUP 0 A     ****
@<TRIPOS>MOLECULE
[[[5-(2-amino-6-oxo-1,3-dihydropurin-2-ylium-9-yl)-3,4-dihydroxy-tetrahydrofuran-2-yl]methoxy-oxido-phosphoryl]oxy-oxido-phosphoryl] hydrogen phosphate
   46    48     1     0     0
SMALL
USER_CHARGES

@<TRIPOS>ATOM
      1 PG         -0.8955    3.4464   -4.6620 P.3       1 GTP         1.5400
      2 O1G        -0.2766    4.6541   -5.3298 O.co2     1 GTP        -0.8909
      3 O2G        -0.4122    2.0491   -4.9806 O.co2     1 GTP        -0.8909
      4 O3G        -2.5116    3.5002   -4.8881 O.3       1 GTP        -0.7980
      5 O3B        -0.8655    3.6604   -3.0443 O.3       1 GTP        -0.7612
      6 PB         -1.4165    4.9058   -2.1436 P.3       1 GTP         1.5847
      7 O1B        -0.5984    6.1363   -2.4657 O.co2     1 GTP        -0.8859
      8 O2B        -2.9279    4.9232   -2.1981 O.co2     1 GTP        -0.8859
      9 O3A        -1.0127    4.3553   -0.6607 O.3       1 GTP        -0.7486
     10 PA          0.4528    3.9705   -0.0493 P.3       1 GTP         1.5001
     11 O1A         1.0046    2.7881   -0.8159 O.co2     1 GTP        -0.8487
     12 O2A         1.2580    5.2411    0.1148 O.co2     1 GTP        -0.8487
     13 O5'         0.0178    3.5131    1.4595 O.3       1 GTP        -0.5474
     14 C5'        -0.8811    2.4285    1.6206 C.3       1 GTP         0.2547
     15 C4'        -0.1994    1.3333    2.4288 C.3       1 GTP         0.0926
     16 O4'        -1.1285    0.2356    2.5840 O.3       1 GTP        -0.3593
     17 C3'         1.0324    0.7610    1.7344 C.3       1 GTP         0.0907
     18 O3'         1.9175    0.2377    2.7247 O.3       1 GTP        -0.5209
     19 C2'         0.4468   -0.3802    0.9263 C.3       1 GTP         0.0305
     20 O2'         1.3993   -1.3703    0.5961 O.3       1 GTP        -0.5978
     21 C1'        -0.6159   -0.9100    1.8769 C.3       1 GTP         0.2339
     22 N9         -1.7127   -1.6108    1.2130 N.pl3     1 GTP        -0.1765
     23 C8         -3.0389   -1.2578    1.2391 C.ar      1 GTP         0.4947
     24 N7         -3.7909   -2.0880    0.5425 N.2       1 GTP        -0.5802
     25 C5         -2.9127   -3.0150    0.0458 C.ar      1 GTP         0.2279
     26 C6         -3.2467   -4.1411   -0.7860 C.ar      1 GTP         0.6513
     27 O6         -4.3761   -4.4189   -1.1621 O.2       1 GTP        -0.5111
     28 N1         -2.0748   -4.9191   -1.1296 N.pl3     1 GTP        -0.4713
     29 C2         -0.7595   -4.6181   -0.7058 C.ar      1 GTP         0.5256
     30 N2          0.2985   -5.4268   -1.0920 N.pl3     1 GTP        -0.8665
     31 N3         -0.5304   -3.4919    0.1084 N.pl3     1 GTP        -0.5398
     32 C4         -1.6318   -2.7332    0.4512 C.ar      1 GTP        -0.0275
     33 HOG3       -3.0600    2.7795   -4.5110 H         1 GTP         0.4161
     34 H5'        -1.7771    2.7849    2.1387 H         1 GTP         0.0348
     35 H5''       -1.1654    2.0541    0.6320 H         1 GTP         0.0348
     36 H4'         0.0403    1.7078    3.4343 H         1 GTP         0.1215
     37 H3'         1.5907    1.4859    1.1353 H         1 GTP         0.0576
     38 HO3'        2.6839   -0.1150    2.2479 H         1 GTP         0.3842
     39 H2'        -0.0017    0.0018    0.0005 H         1 GTP         0.0252
     40 HO2'        2.0953   -0.9375    0.0709 H         1 GTP         0.4224
     41 H1'        -0.1998   -1.6319    2.6178 H         1 GTP         0.0745
     42 H8         -3.3933   -0.3909    1.7800 H         1 GTP         0.1522
     43 HN1        -2.2071   -5.7408   -1.7178 H         1 GTP         0.3518
     44 HN21        1.1896   -5.1751   -0.7715 H         1 GTP         0.4761
     45 HN22        0.0846   -6.1966   -1.6593 H         1 GTP         0.4761
     46 H46         0.4142   -3.2695    0.4160 H         1 GTP         0.5030
@<TRIPOS>BOND
     1    1    2 2
     2    1    3 1
     3    1    4 1
     4    1    5 1
     5    4   33 1
     6    5    6 1
     7    6    7 2
     8    6    8 1
     9    6    9 1
    10    9   10 1
    11   10   11 2
    12   10   12 1
    13   10   13 1
    14   13   14 1
    15   14   15 1
    16   14   34 1
    17   14   35 1
    18   15   16 1
    19   15   17 1
    20   15   36 1
    21   16   21 1
    22   17   18 1
    23   17   19 1
    24   17   37 1
    25   18   38 1
    26   19   20 1
    27   19   21 1
    28   19   39 1
    29   20   40 1
    30   21   22 1
    31   21   41 1
    32   22   23 ar
    33   22   32 ar
    34   23   24 ar
    35   23   42 1
    36   24   25 ar
    37   25   26 ar
    38   25   32 ar
    39   26   27 2
    40   26   28 ar
    41   28   29 ar
    42   28   43 1
    43   29   30 1
    44   29   31 ar
    45   30   44 1
    46   30   45 1
    47   31   32 ar
    48   31   46 1
@<TRIPOS>SUBSTRUCTURE
     1 GTP         1 GROUP 0 A     ****
@<TRIPOS>MOLECULE
[[[5-(2-amino-6-oxo-1,3-dihydropurin-2-ylium-9-yl)-3,4-dihydroxy-tetrahydrofuran-2-yl]methoxy-oxido-phosphoryl]oxy-oxido-phosphoryl] hydrogen phosphate
   46    48     1     0     0
SMALL
USER_CHARGES

@<TRIPOS>ATOM
      1 PG         -0.4634    5.4024    7.3340 P.3       1 GTP         1.5400
      2 O1G        -0.0388    4.4001    8.3840 O.co2     1 GTP        -0.8909
      3 O2G        -0.0364    6.8506    7.4242 O.co2     1 GTP        -0.8909
      4 O3G        -2.0892    5.3491    7.1934 O.3       1 GTP        -0.7980
      5 O3B        -0.0693    4.8256    5.8590 O.3       1 GTP        -0.7612
      6 PB          1.3998    4.5651    5.1961 P.3       1 GTP         1.5847
      7 O1B         2.0950    5.8967    5.0193 O.co2     1 GTP        -0.8859
      8 O2B         2.0671    3.4126    5.9130 O.co2     1 GTP        -0.8859
      9 O3A         0.9326    3.9962    3.7391 O.3       1 GTP        -0.7486
     10 PA          0.0330    4.7083    2.5757 P.3       1 GTP         1.5001
     11 O1A        -1.3626    4.9400    3.1133 O.co2     1 GTP        -0.8487
     12 O2A         0.8346    5.8384    1.9673 O.co2     1 GTP        -0.8487
     13 O5'         0.0178    3.5131    1.4595 O.3       1 GTP        -0.5474
     14 C5'        -0.8811    2.4285    1.6206 C.3       1 GTP         0.2547
     15 C4'        -0.1994    1.3333    2.4288 C.3       1 GTP         0.0926
     16 O4'        -1.1285    0.2356    2.5840 O.3       1 GTP        -0.3593
     17 C3'         1.0324    0.7610    1.7344 C.3       1 GTP         0.0907
     18 O3'         1.9175    0.2377    2.7247 O.3       1 GTP        -0.5209
     19 C2'         0.4468   -0.3802    0.9263 C.3       1 GTP         0.0305
     20 O2'         1.3993   -1.3703    0.5961 O.3       1 GTP        -0.5978
     21 C1'        -0.6159   -0.9100    1.8769 C.3       1 GTP         0.2339
     22 N9         -1.7127   -1.6108    1.2130 N.pl3     1 GTP        -0.1765
     23 C8         -1.6092   -2.7449    0.4467 C.ar      1 GTP         0.4947
     24 N7         -2.7778   -3.1416   -0.0191 N.2       1 GTP        -0.5802
     25 C5         -3.6725   -2.2253    0.4675 C.ar      1 GTP         0.2279
     26 C6         -5.0932   -2.2202    0.2371 C.ar      1 GTP         0.6513
     27 O6         -5.6933   -3.0474   -0.4337 O.2       1 GTP        -0.5111
     28 N1         -5.7390   -1.1061    0.8992 N.pl3     1 GTP        -0.4713
     29 C2         -5.0661   -0.1368    1.6789 C.ar      1 GTP         0.5256
     30 N2         -5.7774    0.8934    2.2749 N.pl3     1 GTP        -0.8665
     31 N3         -3.6705   -0.2251    1.8481 N.pl3     1 GTP        -0.5398
     32 C4         -3.0303   -1.2785    1.2262 C.ar      1 GTP        -0.0275
     33 HOG3       -2.5218    5.9463    6.5464 H         1 GTP         0.4161
     34 H5'        -1.7771    2.7849    2.1387 H         1 GTP         0.0348
     35 H5''       -1.1654    2.0541    0.6320 H         1 GTP         0.0348
     36 H4'         0.0403    1.7078    3.4343 H         1 GTP         0.1215
     37 H3'         1.5907    1.4859    1.1353 H         1 GTP         0.0576
     38 HO3'        2.6839   -0.1150    2.2479 H         1 GTP         0.3842
     39 H2'        -0.0017    0.0018    0.0005 H         1 GTP         0.0252
     40 HO2'        2.0953   -0.9375    0.0709 H         1 GTP         0.4224
     41 H1'        -0.1998   -1.6319    2.6178 H         1 GTP         0.0745
     42 H8         -0.6610   -3.2324    0.2653 H         1 GTP         0.1522
     43 HN1        -6.7487   -1.0139    0.7961 H         1 GTP         0.3518
     44 HN21       -5.2644    1.5388    2.8044 H         1 GTP         0.4761
     45 HN22       -6.7459    0.9078    2.1265 H         1 GTP         0.4761
     46 H46        -3.1807    0.4690    2.4089 H         1 GTP         0.5030
@<TRIPOS>BOND
     1    1    2 2
     2    1    3 1
     3    1    4 1
     4    1    5 1
     5    4   33 1
     6    5    6 1
     7    6    7 2
     8    6    8 1
     9    6    9 1
    10    9   10 1
    11   10   11 2
    12   10   12 1
    13   10   13 1
    14   13   14 1
    15   14   15 1
    16   14   34 1
    17   14   35 1
    18   15   16 1
    19   15   17 1
    20   15   36 1
    21   16   21 1
    22   17   18 1
    23   17   19 1
    24   17   37 1
    25   18   38 1
    26   19   20 1
    27   19   21 1
    28   19   39 1
    29   20   40 1
    30   21   22 1
    31   21   41 1
    32   22   23 ar
    33   22   32 ar
    34   23   24 ar
    35   23   42 1
    36   24   25 ar
    37   25   26 ar
    38   25   32 ar
    39   26   27 2
    40   26   28 ar
    41   28   29 ar
    42   28   43 1
    43   29   30 1
    44   29   31 ar
    45   30   44 1
    46   30   45 1
    47   31   32 ar
    48   31   46 1
@<TRIPOS>SUBSTRUCTURE
     1 GTP         1 GROUP 0 A     ****
@<TRIPOS>MOLECULE
[[[5-(2-amino-6-oxo-1,3-dihydropurin-2-ylium-9-yl)-3,4-dihydroxy-tetrahydrofuran-2-yl]methoxy-oxido-phosphoryl]oxy-oxido-phosphoryl] hydrogen phosphate
   46    48     1     0     0
SMALL
USER_CHARGES

@<TRIPOS>ATOM
      1 PG          0.6445    6.7604    0.2705 P.3       1 GTP         1.5400
      2 O1G         1.9782    7.0852    0.9054 O.co2     1 GTP        -0.8909
      3 O2G         0.3124    5.3495   -0.1616 O.co2     1 GTP        -0.8909
      4 O3G         0.4187    7.7589   -1.0015 O.3       1 GTP        -0.7980
      5 O3B        -0.5512    7.3139    1.2337 O.3       1 GTP        -0.7612
      6 PB         -1.0016    6.8281    2.7259 P.3       1 GTP         1.5847
      7 O1B         0.2052    6.8760    3.6363 O.co2     1 GTP        -0.8859
      8 O2B        -2.2999    7.5101    3.0957 O.co2     1 GTP        -0.8859
      9 O3A        -1.3731    5.2735    2.3942 O.3       1 GTP        -0.7486
     10 PA         -1.9156    4.0918    3.3837 P.3       1 GTP         1.5001
     11 O1A        -0.8453    3.7865    4.4092 O.co2     1 GTP        -0.8487
     12 O2A        -3.3304    4.4243    3.8049 O.co2     1 GTP        -0.8487
     13 O5'        -2.0401    2.8620    2.3128 O.3       1 GTP        -0.5474
     14 C5'        -0.8811    2.4285    1.6206 C.3       1 GTP         0.2547
     15 C4'        -0.1994    1.3333    2.4288 C.3       1 GTP         0.0926
     16 O4'        -1.1285    0.2356    2.5840 O.3       1 GTP        -0.3593
     17 C3'         1.0324    0.7610    1.7344 C.3       1 GTP         0.0907
     18 O3'         1.9175    0.2377    2.7247 O.3       1 GTP        -0.5209
     19 C2'         0.4468   -0.3802    0.9263 C.3       1 GTP         0.0305
     20 O2'         1.3993   -1.3703    0.5961 O.3       1 GTP        -0.5978
     21 C1'        -0.6159   -0.9100    1.8769 C.3       1 GTP         0.2339
     22 N9         -1.7127   -1.6108    1.2130 N.pl3     1 GTP        -0.1765
     23 C8         -1.6311   -2.3341    0.0493 C.ar      1 GTP         0.4947
     24 N7         -2.7933   -2.8506   -0.3007 N.2       1 GTP        -0.5802
     25 C5         -3.6607   -2.4436    0.6786 C.ar      1 GTP         0.2279
     26 C6         -5.0651   -2.7506    0.7505 C.ar      1 GTP         0.6513
     27 O6         -5.6735   -3.4256   -0.0671 O.2       1 GTP        -0.5111
     28 N1         -5.6834   -2.1585    1.9182 N.pl3     1 GTP        -0.4713
     29 C2         -5.0007   -1.3738    2.8765 C.ar      1 GTP         0.5256
     30 N2         -5.6847   -0.8521    3.9640 N.pl3     1 GTP        -0.8665
     31 N3         -3.6227   -1.1271    2.7212 N.pl3     1 GTP        -0.5398
     32 C4         -3.0090   -1.6802    1.6149 C.ar      1 GTP        -0.0275
     33 HOG3       -0.4083    7.6722   -1.5220 H         1 GTP         0.4161
     34 H5'        -1.1767    2.0502    0.6368 H         1 GTP         0.0348
     35 H5''       -0.2080    3.2814    1.4876 H         1 GTP         0.0348
     36 H4'         0.0403    1.7078    3.4343 H         1 GTP         0.1215
     37 H3'         1.5907    1.4859    1.1353 H         1 GTP         0.0576
     38 HO3'        2.6839   -0.1150    2.2479 H         1 GTP         0.3842
     39 H2'        -0.0017    0.0018    0.0005 H         1 GTP         0.0252
     40 HO2'        2.0953   -0.9375    0.0709 H         1 GTP         0.4224
     41 H1'        -0.1998   -1.6319    2.6178 H         1 GTP         0.0745
     42 H8         -0.7029   -2.4474   -0.4941 H         1 GTP         0.1522
     43 HN1        -6.6800   -2.3183    2.0594 H         1 GTP         0.3518
     44 HN21       -5.1660   -0.3153    4.5987 H         1 GTP         0.4761
     45 HN22       -6.6415   -1.0545    4.0252 H         1 GTP         0.4761
     46 H46        -3.1256   -0.5638    3.4080 H         1 GTP         0.5030
@<TRIPOS>BOND
     1    1    2 2
     2    1    3 1
     3    1    4 1
     4    1    5 1
     5    4   33 1
     6    5    6 1
     7    6    7 2
     8    6    8 1
     9    6    9 1
    10    9   10 1
    11   10   11 2
    12   10   12 1
    13   10   13 1
    14   13   14 1
    15   14   15 1
    16   14   34 1
    17   14   35 1
    18   15   16 1
    19   15   17 1
    20   15   36 1
    21   16   21 1
    22   17   18 1
    23   17   19 1
    24   17   37 1
    25   18   38 1
    26   19   20 1
    27   19   21 1
    28   19   39 1
    29   20   40 1
    30   21   22 1
    31   21   41 1
    32   22   23 ar
    33   22   32 ar
    34   23   24 ar
    35   23   42 1
    36   24   25 ar
    37   25   26 ar
    38   25   32 ar
    39   26   27 2
    40   26   28 ar
    41   28   29 ar
    42   28   43 1
    43   29   30 1
    44   29   31 ar
    45   30   44 1
    46   30   45 1
    47   31   32 ar
    48   31   46 1
@<TRIPOS>SUBSTRUCTURE
     1 GTP         1 GROUP 0 A     ****
@<TRIPOS>MOLECULE
[[[5-(2-amino-6-oxo-1,3-dihydropurin-2-ylium-9-yl)-3,4-dihydroxy-tetrahydrofuran-2-yl]methoxy-oxido-phosphoryl]oxy-oxido-phosphoryl] hydrogen phosphate
   46    48     1     0     0
SMALL
USER_CHARGES

@<TRIPOS>ATOM
      1 PG          0.6657    6.7786    0.3038 P.3       1 GTP         1.5400
      2 O1G         1.3920    6.2711    1.5295 O.co2     1 GTP        -0.8909
      3 O2G         0.7544    6.0405   -1.0135 O.co2     1 GTP        -0.8909
      4 O3G         1.0920    8.3350    0.0556 O.3       1 GTP        -0.7980
      5 O3B        -0.9065    7.0098    0.6757 O.3       1 GTP        -0.7612
      6 PB         -2.0606    5.9218    1.0631 P.3       1 GTP         1.5847
      7 O1B        -3.3171    6.6667    1.4553 O.co2     1 GTP        -0.8859
      8 O2B        -2.0814    4.8307    0.0160 O.co2     1 GTP        -0.8859
      9 O3A        -1.3731    5.2735    2.3942 O.3       1 GTP        -0.7486
     10 PA         -1.9156    4.0918    3.3837 P.3       1 GTP         1.5001
     11 O1A        -0.8453    3.7865    4.4092 O.co2     1 GTP        -0.8487
     12 O2A        -3.3304    4.4243    3.8049 O.co2     1 GTP        -0.8487
     13 O5'        -2.0401    2.8620    2.3128 O.3       1 GTP        -0.5474
     14 C5'        -0.8811    2.4285    1.6206 C.3       1 GTP         0.2547
     15 C4'        -0.1994    1.3333    2.4288 C.3       1 GTP         0.0926
     16 O4'        -1.1285    0.2356    2.5840 O.3       1 GTP        -0.3593
     17 C3'         1.0324    0.7610    1.7344 C.3       1 GTP         0.0907
     18 O3'         1.9175    0.2377    2.7247 O.3       1 GTP        -0.5209
     19 C2'         0.4468   -0.3802    0.9263 C.3       1 GTP         0.0305
     20 O2'         1.3993   -1.3703    0.5961 O.3       1 GTP        -0.5978
     21 C1'        -0.6159   -0.9100    1.8769 C.3       1 GTP         0.2339
     22 N9         -1.7127   -1.6108    1.2130 N.pl3     1 GTP        -0.1765
     23 C8         -3.0389   -1.2578    1.2391 C.ar      1 GTP         0.4947
     24 N7         -3.7909   -2.0880    0.5425 N.2       1 GTP        -0.5802
     25 C5         -2.9127   -3.0150    0.0458 C.ar      1 GTP         0.2279
     26 C6         -3.2467   -4.1411   -0.7860 C.ar      1 GTP         0.6513
     27 O6         -4.3761   -4.4189   -1.1621 O.2       1 GTP        -0.5111
     28 N1         -2.0748   -4.9191   -1.1296 N.pl3     1 GTP        -0.4713
     29 C2         -0.7595   -4.6181   -0.7058 C.ar      1 GTP         0.5256
     30 N2          0.2985   -5.4268   -1.0920 N.pl3     1 GTP        -0.8665
     31 N3         -0.5304   -3.4919    0.1084 N.pl3     1 GTP        -0.5398
     32 C4         -1.6318   -2.7332    0.4512 C.ar      1 GTP        -0.0275
     33 HOG3        0.7015    8.8099   -0.7088 H         1 GTP         0.4161
     34 H5'        -1.1767    2.0502    0.6368 H         1 GTP         0.0348
     35 H5''       -0.2080    3.2814    1.4876 H         1 GTP         0.0348
     36 H4'         0.0403    1.7078    3.4343 H         1 GTP         0.1215
     37 H3'         1.5907    1.4859    1.1353 H         1 GTP         0.0576
     38 HO3'        2.6839   -0.1150    2.2479 H         1 GTP         0.3842
     39 H2'        -0.0017    0.0018    0.0005 H         1 GTP         0.0252
     40 HO2'        1.7495   -1.7243    1.4324 H         1 GTP         0.4224
     41 H1'        -0.1998   -1.6319    2.6178 H         1 GTP         0.0745
     42 H8         -3.3933   -0.3909    1.7800 H         1 GTP         0.1522
     43 HN1        -2.2071   -5.7408   -1.7178 H         1 GTP         0.3518
     44 HN21        0.0848   -6.1964   -1.6597 H         1 GTP         0.4761
     45 HN22        1.1896   -5.1747   -0.7719 H         1 GTP         0.4761
     46 H46         0.4142   -3.2695    0.4160 H         1 GTP         0.5030
@<TRIPOS>BOND
     1    1    2 2
     2    1    3 1
     3    1    4 1
     4    1    5 1
     5    4   33 1
     6    5    6 1
     7    6    7 2
     8    6    8 1
     9    6    9 1
    10    9   10 1
    11   10   11 2
    12   10   12 1
    13   10   13 1
    14   13   14 1
    15   14   15 1
    16   14   34 1
    17   14   35 1
    18   15   16 1
    19   15   17 1
    20   15   36 1
    21   16   21 1
    22   17   18 1
    23   17   19 1
    24   17   37 1
    25   18   38 1
    26   19   20 1
    27   19   21 1
    28   19   39 1
    29   20   40 1
    30   21   22 1
    31   21   41 1
    32   22   23 ar
    33   22   32 ar
    34   23   24 ar
    35   23   42 1
    36   24   25 ar
    37   25   26 ar
    38   25   32 ar
    39   26   27 2
    40   26   28 ar
    41   28   29 ar
    42   28   43 1
    43   29   30 1
    44   29   31 ar
    45   30   44 1
    46   30   45 1
    47   31   32 ar
    48   31   46 1
@<TRIPOS>SUBSTRUCTURE
     1 GTP         1 GROUP 0 A     ****
@<TRIPOS>MOLECULE
[[[5-(2-amino-6-oxo-1,3-dihydropurin-2-ylium-9-yl)-3,4-dihydroxy-tetrahydrofuran-2-yl]methoxy-oxido-phosphoryl]oxy-oxido-phosphoryl] hydrogen phosphate
   46    48     1     0     0
SMALL
USER_CHARGES

@<TRIPOS>ATOM
      1 PG          7.3863    0.0406    3.1274 P.3       1 GTP         1.5400
      2 O1G         7.8803    1.3220    2.4939 O.co2     1 GTP        -0.8909
      3 O2G         6.1772    0.0385    4.0362 O.co2     1 GTP        -0.8909
      4 O3G         8.6308   -0.6602    3.9186 O.3       1 GTP        -0.7980
      5 O3B         7.1730   -1.0808    1.9608 O.3       1 GTP        -0.7612
      6 PB          6.0948   -1.1235    0.7356 P.3       1 GTP         1.5847
      7 O1B         6.4088   -2.3120   -0.1455 O.co2     1 GTP        -0.8859
      8 O2B         4.7069   -0.8948    1.2917 O.co2     1 GTP        -0.8859
      9 O3A         6.5180    0.2527   -0.0338 O.3       1 GTP        -0.7486
     10 PA          5.8979    0.9309   -1.3848 P.3       1 GTP         1.5001
     11 O1A         6.5752    2.2645   -1.6146 O.co2     1 GTP        -0.8487
     12 O2A         5.8467   -0.1185   -2.4739 O.co2     1 GTP        -0.8487
     13 O5'         4.3516    1.1575   -0.9026 O.3       1 GTP        -0.5474
     14 C5'         4.0922    1.9801    0.2227 C.3       1 GTP         0.2547
     15 C4'         2.5944    2.0310    0.4653 C.3       1 GTP         0.0926
     16 O4'         1.9327    2.5740   -0.6889 O.3       1 GTP        -0.3593
     17 C3'         1.9685    0.6634    0.6767 C.3       1 GTP         0.0907
     18 O3'         2.1425    0.1975    1.9977 O.3       1 GTP        -0.5209
     19 C2'         0.5176    0.9128    0.3099 C.3       1 GTP         0.0305
     20 O2'        -0.2103    1.4454    1.4152 O.3       1 GTP        -0.5978
     21 C1'         0.6219    1.9765   -0.7844 C.3       1 GTP         0.2339
     22 N9          0.4237    1.4496   -2.1357 N.pl3     1 GTP        -0.1765
     23 C8          1.3988    0.9691   -2.9736 C.ar      1 GTP         0.4947
     24 N7          0.9092    0.5634   -4.1293 N.2       1 GTP        -0.5802
     25 C5         -0.4383    0.7914   -4.0325 C.ar      1 GTP         0.2279
     26 C6         -1.4217    0.5138   -5.0461 C.ar      1 GTP         0.6513
     27 O6         -1.1759    0.0306   -6.1417 O.2       1 GTP        -0.5111
     28 N1         -2.7543    0.8794   -4.6134 N.pl3     1 GTP        -0.4713
     29 C2         -3.0626    1.4402   -3.3523 C.ar      1 GTP         0.5256
     30 N2         -4.3747    1.7544   -3.0321 N.pl3     1 GTP        -0.8665
     31 N3         -2.0304    1.6759   -2.4233 N.pl3     1 GTP        -0.5398
     32 C4         -0.7497    1.3366   -2.8118 C.ar      1 GTP        -0.0275
     33 HOG3        8.4692   -1.5075    4.3859 H         1 GTP         0.4161
     34 H5'         4.6069    1.5618    1.0936 H         1 GTP         0.0348
     35 H5''        4.4824    2.9837    0.0254 H         1 GTP         0.0348
     36 H4'         2.3752    2.7029    1.3156 H         1 GTP         0.1215
     37 H3'         2.4336   -0.1217   -0.0015 H         1 GTP         0.0576
     38 HO3'        1.7160   -0.6716    2.0397 H         1 GTP         0.3842
     39 H2'         0.0316    0.0155   -0.0339 H         1 GTP         0.0252
     40 HO2'       -0.1608    0.7921    2.1351 H         1 GTP         0.4224
     41 H1'        -0.1474    2.7798   -0.6651 H         1 GTP         0.0745
     42 H8          2.4413    0.9409   -2.6872 H         1 GTP         0.1522
     43 HN1        -3.5236    0.7214   -5.2629 H         1 GTP         0.3518
     44 HN21       -4.5350    2.1409   -2.1461 H         1 GTP         0.4761
     45 HN22       -5.0542    1.5695   -3.7134 H         1 GTP         0.4761
     46 H46        -2.2462    2.0786   -1.5136 H         1 GTP         0.5030
@<TRIPOS>BOND
     1    1    2 2
     2    1    3 1
     3    1    4 1
     4    1    5 1
     5    4   33 1
     6    5    6 1
     7    6    7 2
     8    6    8 1
     9    6    9 1
    10    9   10 1
    11   10   11 2
    12   10   12 1
    13   10   13 1
    14   13   14 1
    15   14   15 1
    16   14   34 1
    17   14   35 1
    18   15   16 1
    19   15   17 1
    20   15   36 1
    21   16   21 1
    22   17   18 1
    23   17   19 1
    24   17   37 1
    25   18   38 1
    26   19   20 1
    27   19   21 1
    28   19   39 1
    29   20   40 1
    30   21   22 1
    31   21   41 1
    32   22   23 ar
    33   22   32 ar
    34   23   24 ar
    35   23   42 1
    36   24   25 ar
    37   25   26 ar
    38   25   32 ar
    39   26   27 2
    40   26   28 ar
    41   28   29 ar
    42   28   43 1
    43   29   30 1
    44   29   31 ar
    45   30   44 1
    46   30   45 1
    47   31   32 ar
    48   31   46 1
@<TRIPOS>SUBSTRUCTURE
     1 GTP         1 GROUP 0 A     ****
@<TRIPOS>MOLECULE
[[[5-(2-amino-6-oxo-1,3-dihydropurin-2-ylium-9-yl)-3,4-dihydroxy-tetrahydrofuran-2-yl]methoxy-oxido-phosphoryl]oxy-oxido-phosphoryl] hydrogen phosphate
   46    48     1     0     0
SMALL
USER_CHARGES

@<TRIPOS>ATOM
      1 PG         -4.1788    5.5291   -2.9948 P.3       1 GTP         1.5400
      2 O1G        -5.5413    5.3037   -2.3781 O.co2     1 GTP        -0.8909
      3 O2G        -3.7889    6.8831   -3.5446 O.co2     1 GTP        -0.8909
      4 O3G        -3.9453    4.4096   -4.1601 O.3       1 GTP        -0.7980
      5 O3B        -3.0318    5.0346   -1.9443 O.3       1 GTP        -0.7612
      6 PB         -1.4165    4.9058   -2.1436 P.3       1 GTP         1.5847
      7 O1B        -1.1390    3.8334   -3.1734 O.co2     1 GTP        -0.8859
      8 O2B        -0.8222    6.2914   -2.2635 O.co2     1 GTP        -0.8859
      9 O3A        -1.0127    4.3553   -0.6607 O.3       1 GTP        -0.7486
     10 PA          0.4528    3.9705   -0.0493 P.3       1 GTP         1.5001
     11 O1A         1.0046    2.7881   -0.8159 O.co2     1 GTP        -0.8487
     12 O2A         1.2580    5.2411    0.1148 O.co2     1 GTP        -0.8487
     13 O5'         0.0178    3.5131    1.4595 O.3       1 GTP        -0.5474
     14 C5'        -0.8811    2.4285    1.6206 C.3       1 GTP         0.2547
     15 C4'        -0.1994    1.3333    2.4288 C.3       1 GTP         0.0926
     16 O4'        -1.1285    0.2356    2.5840 O.3       1 GTP        -0.3593
     17 C3'         1.0324    0.7610    1.7344 C.3       1 GTP         0.0907
     18 O3'         1.9175    0.2377    2.7247 O.3       1 GTP        -0.5209
     19 C2'         0.4468   -0.3802    0.9263 C.3       1 GTP         0.0305
     20 O2'         1.3993   -1.3703    0.5961 O.3       1 GTP        -0.5978
     21 C1'        -0.6159   -0.9100    1.8769 C.3       1 GTP         0.2339
     22 N9         -1.7127   -1.6108    1.2130 N.pl3     1 GTP        -0.1765
     23 C8         -3.0389   -1.2578    1.2391 C.ar      1 GTP         0.4947
     24 N7         -3.7909   -2.0880    0.5425 N.2       1 GTP        -0.5802
     25 C5         -2.9127   -3.0150    0.0458 C.ar      1 GTP         0.2279
     26 C6         -3.2467   -4.1411   -0.7860 C.ar      1 GTP         0.6513
     27 O6         -4.3761   -4.4189   -1.1621 O.2       1 GTP        -0.5111
     28 N1         -2.0748   -4.9191   -1.1296 N.pl3     1 GTP        -0.4713
     29 C2         -0.7595   -4.6181   -0.7058 C.ar      1 GTP         0.5256
     30 N2          0.2985   -5.4268   -1.0920 N.pl3     1 GTP        -0.8665
     31 N3         -0.5304   -3.4919    0.1084 N.pl3     1 GTP        -0.5398
     32 C4         -1.6318   -2.7332    0.4512 C.ar      1 GTP        -0.0275
     33 HOG3       -3.1002    4.4232   -4.6580 H         1 GTP         0.4161
     34 H5'        -1.7771    2.7849    2.1387 H         1 GTP         0.0348
     35 H5''       -1.1654    2.0541    0.6320 H         1 GTP         0.0348
     36 H4'         0.0403    1.7078    3.4343 H         1 GTP         0.1215
     37 H3'         1.5907    1.4859    1.1353 H         1 GTP         0.0576
     38 HO3'        2.6839   -0.1150    2.2479 H         1 GTP         0.3842
     39 H2'        -0.0017    0.0018    0.0005 H         1 GTP         0.0252
     40 HO2'        2.0953   -0.9375    0.0709 H         1 GTP         0.4224
     41 H1'        -0.1998   -1.6319    2.6178 H         1 GTP         0.0745
     42 H8         -3.3933   -0.3909    1.7800 H         1 GTP         0.1522
     43 HN1        -2.2071   -5.7408   -1.7178 H         1 GTP         0.3518
     44 HN21        1.1896   -5.1751   -0.7715 H         1 GTP         0.4761
     45 HN22        0.0846   -6.1966   -1.6593 H         1 GTP         0.4761
     46 H46         0.4142   -3.2695    0.4160 H         1 GTP         0.5030
@<TRIPOS>BOND
     1    1    2 2
     2    1    3 1
     3    1    4 1
     4    1    5 1
     5    4   33 1
     6    5    6 1
     7    6    7 2
     8    6    8 1
     9    6    9 1
    10    9   10 1
    11   10   11 2
    12   10   12 1
    13   10   13 1
    14   13   14 1
    15   14   15 1
    16   14   34 1
    17   14   35 1
    18   15   16 1
    19   15   17 1
    20   15   36 1
    21   16   21 1
    22   17   18 1
    23   17   19 1
    24   17   37 1
    25   18   38 1
    26   19   20 1
    27   19   21 1
    28   19   39 1
    29   20   40 1
    30   21   22 1
    31   21   41 1
    32   22   23 ar
    33   22   32 ar
    34   23   24 ar
    35   23   42 1
    36   24   25 ar
    37   25   26 ar
    38   25   32 ar
    39   26   27 2
    40   26   28 ar
    41   28   29 ar
    42   28   43 1
    43   29   30 1
    44   29   31 ar
    45   30   44 1
    46   30   45 1
    47   31   32 ar
    48   31   46 1
@<TRIPOS>SUBSTRUCTURE
     1 GTP         1 GROUP 0 A     ****
@<TRIPOS>MOLECULE
[[[5-(2-amino-6-oxo-1,3-dihydropurin-2-ylium-9-yl)-3,4-dihydroxy-tetrahydrofuran-2-yl]methoxy-oxido-phosphoryl]oxy-oxido-phosphoryl] hydrogen phosphate
   46    48     1     0     0
SMALL
USER_CHARGES

@<TRIPOS>ATOM
      1 PG          9.1130    0.1267    3.8486 P.3       1 GTP         1.5400
      2 O1G        10.0672    1.0863    4.5241 O.co2     1 GTP        -0.8909
      3 O2G         8.3411   -0.8963    4.6520 O.co2     1 GTP        -0.8909
      4 O3G         9.9147   -0.6484    2.6559 O.3       1 GTP        -0.7980
      5 O3B         8.0661    0.9772    2.9298 O.3       1 GTP        -0.7612
      6 PB          8.3566    2.0894    1.7704 P.3       1 GTP         1.5847
      7 O1B         9.0012    3.2991    2.4097 O.co2     1 GTP        -0.8859
      8 O2B         8.9745    1.4034    0.5725 O.co2     1 GTP        -0.8859
      9 O3A         6.8179    2.4457    1.3577 O.3       1 GTP        -0.7486
     10 PA          6.2486    3.4952    0.2423 P.3       1 GTP         1.5001
     11 O1A         6.6342    4.8994    0.6541 O.co2     1 GTP        -0.8487
     12 O2A         6.5806    2.9650   -1.1355 O.co2     1 GTP        -0.8487
     13 O5'         4.6405    3.2699    0.4378 O.3       1 GTP        -0.5474
     14 C5'         4.0922    1.9801    0.2227 C.3       1 GTP         0.2547
     15 C4'         2.5944    2.0310    0.4653 C.3       1 GTP         0.0926
     16 O4'         1.9327    2.5740   -0.6889 O.3       1 GTP        -0.3593
     17 C3'         1.9685    0.6634    0.6767 C.3       1 GTP         0.0907
     18 O3'         2.1425    0.1975    1.9977 O.3       1 GTP        -0.5209
     19 C2'         0.5176    0.9128    0.3099 C.3       1 GTP         0.0305
     20 O2'        -0.2103    1.4454    1.4152 O.3       1 GTP        -0.5978
     21 C1'         0.6219    1.9765   -0.7844 C.3       1 GTP         0.2339
     22 N9          0.4237    1.4496   -2.1357 N.pl3     1 GTP        -0.1765
     23 C8          1.1824    0.4874   -2.7540 C.ar      1 GTP         0.4947
     24 N7          0.7559    0.2220   -3.9737 N.2       1 GTP        -0.5802
     25 C5         -0.3234    1.0475   -4.1492 C.ar      1 GTP         0.2279
     26 C6         -1.1420    1.1360   -5.3297 C.ar      1 GTP         0.6513
     27 O6         -0.9760    0.4743   -6.3440 O.2       1 GTP        -0.5111
     28 N1         -2.1989    2.1138   -5.1762 N.pl3     1 GTP        -0.4713
     29 C2         -2.4100    2.8911   -4.0137 C.ar      1 GTP         0.5256
     30 N2         -3.4547    3.8016   -3.9653 N.pl3     1 GTP        -0.8665
     31 N3         -1.5548    2.7339   -2.9056 N.pl3     1 GTP        -0.5398
     32 C4         -0.5379    1.8078   -3.0266 C.ar      1 GTP        -0.0275
     33 HOG3        9.4280   -1.3101    2.1197 H         1 GTP         0.4161
     34 H5'         4.3028    1.6728   -0.8066 H         1 GTP         0.0348
     35 H5''        4.5677    1.2738    0.9106 H         1 GTP         0.0348
     36 H4'         2.3752    2.7029    1.3156 H         1 GTP         0.1215
     37 H3'         2.4336   -0.1217   -0.0015 H         1 GTP         0.0576
     38 HO3'        1.7160   -0.6716    2.0397 H         1 GTP         0.3842
     39 H2'         0.0316    0.0155   -0.0339 H         1 GTP         0.0252
     40 HO2'       -0.1608    0.7921    2.1351 H         1 GTP         0.4224
     41 H1'        -0.1474    2.7798   -0.6651 H         1 GTP         0.0745
     42 H8          2.0279    0.0203   -2.2675 H         1 GTP         0.1522
     43 HN1        -2.8350    2.2514   -5.9606 H         1 GTP         0.3518
     44 HN21       -3.5576    4.3154   -3.1374 H         1 GTP         0.4761
     45 HN22       -4.0202    3.8709   -4.7625 H         1 GTP         0.4761
     46 H46        -1.7022    3.2899   -2.0658 H         1 GTP         0.5030
@<TRIPOS>BOND
     1    1    2 2
     2    1    3 1
     3    1    4 1
     4    1    5 1
     5    4   33 1
     6    5    6 1
     7    6    7 2
     8    6    8 1
     9    6    9 1
    10    9   10 1
    11   10   11 2
    12   10   12 1
    13   10   13 1
    14   13   14 1
    15   14   15 1
    16   14   34 1
    17   14   35 1
    18   15   16 1
    19   15   17 1
    20   15   36 1
    21   16   21 1
    22   17   18 1
    23   17   19 1
    24   17   37 1
    25   18   38 1
    26   19   20 1
    27   19   21 1
    28   19   39 1
    29   20   40 1
    30   21   22 1
    31   21   41 1
    32   22   23 ar
    33   22   32 ar
    34   23   24 ar
    35   23   42 1
    36   24   25 ar
    37   25   26 ar
    38   25   32 ar
    39   26   27 2
    40   26   28 ar
    41   28   29 ar
    42   28   43 1
    43   29   30 1
    44   29   31 ar
    45   30   44 1
    46   30   45 1
    47   31   32 ar
    48   31   46 1
@<TRIPOS>SUBSTRUCTURE
     1 GTP         1 GROUP 0 A     ****
@<TRIPOS>MOLECULE
[[[5-(2-amino-6-oxo-1,3-dihydropurin-2-ylium-9-yl)-3,4-dihydroxy-tetrahydrofuran-2-yl]methoxy-oxido-phosphoryl]oxy-oxido-phosphoryl] hydrogen phosphate
   46    48     1     0     0
SMALL
USER_CHARGES

@<TRIPOS>ATOM
      1 PG         -3.5621   -1.6325    6.3591 P.3       1 GTP         1.5400
      2 O1G        -4.3565   -1.0962    7.5290 O.co2     1 GTP        -0.8909
      3 O2G        -4.0681   -2.8046    5.5479 O.co2     1 GTP        -0.8909
      4 O3G        -2.0491   -1.9711    6.8712 O.3       1 GTP        -0.7980
      5 O3B        -3.2101   -0.4014    5.3470 O.3       1 GTP        -0.7612
      6 PB         -4.2010    0.5060    4.4195 P.3       1 GTP         1.5847
      7 O1B        -4.8177   -0.3789    3.3592 O.co2     1 GTP        -0.8859
      8 O2B        -5.0515    1.3796    5.3145 O.co2     1 GTP        -0.8859
      9 O3A        -3.0915    1.4872    3.7332 O.3       1 GTP        -0.7486
     10 PA         -3.2890    2.7005    2.6567 P.3       1 GTP         1.5001
     11 O1A        -3.8147    2.1209    1.3614 O.co2     1 GTP        -0.8487
     12 O2A        -3.9964    3.8478    3.3444 O.co2     1 GTP        -0.8487
     13 O5'        -1.7336    3.1724    2.4750 O.3       1 GTP        -0.5474
     14 C5'        -0.8811    2.4285    1.6206 C.3       1 GTP         0.2547
     15 C4'        -0.1994    1.3333    2.4288 C.3       1 GTP         0.0926
     16 O4'        -1.1285    0.2356    2.5840 O.3       1 GTP        -0.3593
     17 C3'         1.0324    0.7610    1.7344 C.3       1 GTP         0.0907
     18 O3'         1.9175    0.2377    2.7247 O.3       1 GTP        -0.5209
     19 C2'         0.4468   -0.3802    0.9263 C.3       1 GTP         0.0305
     20 O2'         1.3993   -1.3703    0.5961 O.3       1 GTP        -0.5978
     21 C1'        -0.6159   -0.9100    1.8769 C.3       1 GTP         0.2339
     22 N9         -1.7127   -1.6108    1.2130 N.pl3     1 GTP        -0.1765
     23 C8         -2.8692   -1.0463    0.7355 C.ar      1 GTP         0.4947
     24 N7         -3.6707   -1.9381    0.1856 N.2       1 GTP        -0.5802
     25 C5         -3.0027   -3.1275    0.3134 C.ar      1 GTP         0.2279
     26 C6         -3.4659   -4.4142   -0.1355 C.ar      1 GTP         0.6513
     27 O6         -4.5328   -4.6133   -0.6980 O.2       1 GTP        -0.5111
     28 N1         -2.5102   -5.4606    0.1612 N.pl3     1 GTP        -0.4713
     29 C2         -1.2711   -5.2547    0.8113 C.ar      1 GTP         0.5256
     30 N2         -0.4228   -6.3256    1.0482 N.pl3     1 GTP        -0.8665
     31 N3         -0.9033   -3.9563    1.2146 N.pl3     1 GTP        -0.5398
     32 C4         -1.7979   -2.9400    0.9438 C.ar      1 GTP        -0.0275
     33 HOG3       -1.5075   -1.2420    7.2418 H         1 GTP         0.4161
     34 H5'        -1.4800    1.9927    0.8146 H         1 GTP         0.0348
     35 H5''       -0.1367    3.1040    1.1872 H         1 GTP         0.0348
     36 H4'         0.0403    1.7078    3.4343 H         1 GTP         0.1215
     37 H3'         1.5907    1.4859    1.1353 H         1 GTP         0.0576
     38 HO3'        2.6839   -0.1150    2.2479 H         1 GTP         0.3842
     39 H2'        -0.0017    0.0018    0.0005 H         1 GTP         0.0252
     40 HO2'        0.9369   -2.0558    0.0825 H         1 GTP         0.4224
     41 H1'        -0.1998   -1.6319    2.6178 H         1 GTP         0.0745
     42 H8         -3.0691    0.0134    0.8177 H         1 GTP         0.1522
     43 HN1        -2.7468   -6.4119   -0.1177 H         1 GTP         0.3518
     44 HN21        0.4233   -6.1297    1.5018 H         1 GTP         0.4761
     45 HN22       -0.7261   -7.2071    0.7466 H         1 GTP         0.4761
     46 H46        -0.0124   -3.8015    1.6821 H         1 GTP         0.5030
@<TRIPOS>BOND
     1    1    2 2
     2    1    3 1
     3    1    4 1
     4    1    5 1
     5    4   33 1
     6    5    6 1
     7    6    7 2
     8    6    8 1
     9    6    9 1
    10    9   10 1
    11   10   11 2
    12   10   12 1
    13   10   13 1
    14   13   14 1
    15   14   15 1
    16   14   34 1
    17   14   35 1
    18   15   16 1
    19   15   17 1
    20   15   36 1
    21   16   21 1
    22   17   18 1
    23   17   19 1
    24   17   37 1
    25   18   38 1
    26   19   20 1
    27   19   21 1
    28   19   39 1
    29   20   40 1
    30   21   22 1
    31   21   41 1
    32   22   23 ar
    33   22   32 ar
    34   23   24 ar
    35   23   42 1
    36   24   25 ar
    37   25   26 ar
    38   25   32 ar
    39   26   27 2
    40   26   28 ar
    41   28   29 ar
    42   28   43 1
    43   29   30 1
    44   29   31 ar
    45   30   44 1
    46   30   45 1
    47   31   32 ar
    48   31   46 1
@<TRIPOS>SUBSTRUCTURE
     1 GTP         1 GROUP 0 A     ****
@<TRIPOS>MOLECULE
[[[5-(2-amino-6-oxo-1,3-dihydropurin-2-ylium-9-yl)-3,4-dihydroxy-tetrahydrofuran-2-yl]methoxy-oxido-phosphoryl]oxy-oxido-phosphoryl] hydrogen phosphate
   46    48     1     0     0
SMALL
USER_CHARGES

@<TRIPOS>ATOM
      1 PG         -5.6000    1.4151   -0.4471 P.3       1 GTP         1.5400
      2 O1G        -4.5753    0.7771    0.4642 O.co2     1 GTP        -0.8909
      3 O2G        -7.0073    1.6872    0.0359 O.co2     1 GTP        -0.8909
      4 O3G        -5.6842    0.5422   -1.8243 O.3       1 GTP        -0.7980
      5 O3B        -4.9775    2.7914   -1.0651 O.3       1 GTP        -0.7612
      6 PB         -4.5863    4.1899   -0.3189 P.3       1 GTP         1.5847
      7 O1B        -3.9166    5.1034   -1.3211 O.co2     1 GTP        -0.8859
      8 O2B        -5.7632    4.6523    0.5109 O.co2     1 GTP        -0.8859
      9 O3A        -3.4727    3.6234    0.7318 O.3       1 GTP        -0.7486
     10 PA         -2.5926    4.4187    1.8556 P.3       1 GTP         1.5001
     11 O1A        -1.6707    5.3914    1.1526 O.co2     1 GTP        -0.8487
     12 O2A        -3.5190    4.8780    2.9603 O.co2     1 GTP        -0.8487
     13 O5'        -1.7336    3.1724    2.4750 O.3       1 GTP        -0.5474
     14 C5'        -0.8811    2.4285    1.6206 C.3       1 GTP         0.2547
     15 C4'        -0.1994    1.3333    2.4288 C.3       1 GTP         0.0926
     16 O4'        -1.1285    0.2356    2.5840 O.3       1 GTP        -0.3593
     17 C3'         1.0324    0.7610    1.7344 C.3       1 GTP         0.0907
     18 O3'         1.9175    0.2377    2.7247 O.3       1 GTP        -0.5209
     19 C2'         0.4468   -0.3802    0.9263 C.3       1 GTP         0.0305
     20 O2'         1.3993   -1.3703    0.5961 O.3       1 GTP        -0.5978
     21 C1'        -0.6159   -0.9100    1.8769 C.3       1 GTP         0.2339
     22 N9         -1.7127   -1.6108    1.2130 N.pl3     1 GTP        -0.1765
     23 C8         -2.5534   -1.0907    0.2607 C.ar      1 GTP         0.4947
     24 N7         -3.4469   -1.9695   -0.1508 N.2       1 GTP        -0.5802
     25 C5         -3.1705   -3.1041    0.5657 C.ar      1 GTP         0.2279
     26 C6         -3.8738   -4.3568    0.4777 C.ar      1 GTP         0.6513
     27 O6         -4.8240   -4.5720   -0.2607 O.2       1 GTP        -0.5111
     28 N1         -3.3198   -5.3462    1.3780 N.pl3     1 GTP        -0.4713
     29 C2         -2.2226   -5.1203    2.2413 C.ar      1 GTP         0.5256
     30 N2         -1.7649   -6.1367    3.0659 N.pl3     1 GTP        -0.8665
     31 N3         -1.5969   -3.8585    2.2574 N.pl3     1 GTP        -0.5398
     32 C4         -2.1068   -2.8965    1.4082 C.ar      1 GTP        -0.0275
     33 HOG3       -6.3099    0.8309   -2.5225 H         1 GTP         0.4161
     34 H5'        -1.4800    1.9927    0.8146 H         1 GTP         0.0348
     35 H5''       -0.1367    3.1040    1.1872 H         1 GTP         0.0348
     36 H4'         0.0403    1.7078    3.4343 H         1 GTP         0.1215
     37 H3'         1.5907    1.4859    1.1353 H         1 GTP         0.0576
     38 HO3'        2.6839   -0.1150    2.2479 H         1 GTP         0.3842
     39 H2'        -0.0017    0.0018    0.0005 H         1 GTP         0.0252
     40 HO2'        0.9369   -2.0558    0.0825 H         1 GTP         0.4224
     41 H1'        -0.1998   -1.6319    2.6178 H         1 GTP         0.0745
     42 H8         -2.4657   -0.0713   -0.0897 H         1 GTP         0.1522
     43 HN1        -3.7505   -6.2699    1.3904 H         1 GTP         0.3518
     44 HN21       -1.0023   -5.9289    3.6451 H         1 GTP         0.4761
     45 HN22       -2.2347   -6.9951    3.0150 H         1 GTP         0.4761
     46 H46        -0.8062   -3.6900    2.8760 H         1 GTP         0.5030
@<TRIPOS>BOND
     1    1    2 2
     2    1    3 1
     3    1    4 1
     4    1    5 1
     5    4   33 1
     6    5    6 1
     7    6    7 2
     8    6    8 1
     9    6    9 1
    10    9   10 1
    11   10   11 2
    12   10   12 1
    13   10   13 1
    14   13   14 1
    15   14   15 1
    16   14   34 1
    17   14   35 1
    18   15   16 1
    19   15   17 1
    20   15   36 1
    21   16   21 1
    22   17   18 1
    23   17   19 1
    24   17   37 1
    25   18   38 1
    26   19   20 1
    27   19   21 1
    28   19   39 1
    29   20   40 1
    30   21   22 1
    31   21   41 1
    32   22   23 ar
    33   22   32 ar
    34   23   24 ar
    35   23   42 1
    36   24   25 ar
    37   25   26 ar
    38   25   32 ar
    39   26   27 2
    40   26   28 ar
    41   28   29 ar
    42   28   43 1
    43   29   30 1
    44   29   31 ar
    45   30   44 1
    46   30   45 1
    47   31   32 ar
    48   31   46 1
@<TRIPOS>SUBSTRUCTURE
     1 GTP         1 GROUP 0 A     ****
@<TRIPOS>MOLECULE
[[[5-(2-amino-6-oxo-1,3-dihydropurin-2-ylium-9-yl)-3,4-dihydroxy-tetrahydrofuran-2-yl]methoxy-oxido-phosphoryl]oxy-oxido-phosphoryl] hydrogen phosphate
   46    48     1     0     0
SMALL
USER_CHARGES

@<TRIPOS>ATOM
      1 PG          1.7489    2.6735    7.5209 P.3       1 GTP         1.5400
      2 O1G         0.9686    2.9703    8.7820 O.co2     1 GTP        -0.8909
      3 O2G         2.5398    1.3919    7.3798 O.co2     1 GTP        -0.8909
      4 O3G         2.7435    3.9324    7.2180 O.3       1 GTP        -0.7980
      5 O3B         0.7572    2.8275    6.2339 O.3       1 GTP        -0.7612
      6 PB         -0.1989    4.0755    5.7937 P.3       1 GTP         1.5847
      7 O1B        -1.2854    4.2439    6.8323 O.co2     1 GTP        -0.8859
      8 O2B         0.6710    5.2353    5.3628 O.co2     1 GTP        -0.8859
      9 O3A        -0.8402    3.4461    4.4308 O.3       1 GTP        -0.7486
     10 PA         -1.9156    4.0918    3.3837 P.3       1 GTP         1.5001
     11 O1A        -3.2320    4.2955    4.1021 O.co2     1 GTP        -0.8487
     12 O2A        -1.2462    5.2272    2.6405 O.co2     1 GTP        -0.8487
     13 O5'        -2.0401    2.8620    2.3128 O.3       1 GTP        -0.5474
     14 C5'        -0.8811    2.4285    1.6206 C.3       1 GTP         0.2547
     15 C4'        -0.1994    1.3333    2.4288 C.3       1 GTP         0.0926
     16 O4'        -1.1285    0.2356    2.5840 O.3       1 GTP        -0.3593
     17 C3'         1.0324    0.7610    1.7344 C.3       1 GTP         0.0907
     18 O3'         1.9175    0.2377    2.7247 O.3       1 GTP        -0.5209
     19 C2'         0.4468   -0.3802    0.9263 C.3       1 GTP         0.0305
     20 O2'         1.3993   -1.3703    0.5961 O.3       1 GTP        -0.5978
     21 C1'        -0.6159   -0.9100    1.8769 C.3       1 GTP         0.2339
     22 N9         -1.7127   -1.6108    1.2130 N.pl3     1 GTP        -0.1765
     23 C8         -2.8692   -1.0463    0.7355 C.ar      1 GTP         0.4947
     24 N7         -3.6707   -1.9381    0.1856 N.2       1 GTP        -0.5802
     25 C5         -3.0027   -3.1275    0.3134 C.ar      1 GTP         0.2279
     26 C6         -3.4659   -4.4142   -0.1355 C.ar      1 GTP         0.6513
     27 O6         -4.5328   -4.6133   -0.6980 O.2       1 GTP        -0.5111
     28 N1         -2.5102   -5.4606    0.1612 N.pl3     1 GTP        -0.4713
     29 C2         -1.2711   -5.2547    0.8113 C.ar      1 GTP         0.5256
     30 N2         -0.4228   -6.3256    1.0482 N.pl3     1 GTP        -0.8665
     31 N3         -0.9033   -3.9563    1.2146 N.pl3     1 GTP        -0.5398
     32 C4         -1.7979   -2.9400    0.9438 C.ar      1 GTP        -0.0275
     33 HOG3        3.3213    3.8910    6.4264 H         1 GTP         0.4161
     34 H5'        -1.1767    2.0502    0.6368 H         1 GTP         0.0348
     35 H5''       -0.2080    3.2814    1.4876 H         1 GTP         0.0348
     36 H4'         0.0403    1.7078    3.4343 H         1 GTP         0.1215
     37 H3'         1.5907    1.4859    1.1353 H         1 GTP         0.0576
     38 HO3'        2.6839   -0.1150    2.2479 H         1 GTP         0.3842
     39 H2'        -0.0017    0.0018    0.0005 H         1 GTP         0.0252
     40 HO2'        0.9369   -2.0558    0.0825 H         1 GTP         0.4224
     41 H1'        -0.1998   -1.6319    2.6178 H         1 GTP         0.0745
     42 H8         -3.0691    0.0134    0.8177 H         1 GTP         0.1522
     43 HN1        -2.7468   -6.4119   -0.1177 H         1 GTP         0.3518
     44 HN21        0.4233   -6.1297    1.5018 H         1 GTP         0.4761
     45 HN22       -0.7261   -7.2071    0.7466 H         1 GTP         0.4761
     46 H46        -0.0124   -3.8015    1.6821 H         1 GTP         0.5030
@<TRIPOS>BOND
     1    1    2 2
     2    1    3 1
     3    1    4 1
     4    1    5 1
     5    4   33 1
     6    5    6 1
     7    6    7 2
     8    6    8 1
     9    6    9 1
    10    9   10 1
    11   10   11 2
    12   10   12 1
    13   10   13 1
    14   13   14 1
    15   14   15 1
    16   14   34 1
    17   14   35 1
    18   15   16 1
    19   15   17 1
    20   15   36 1
    21   16   21 1
    22   17   18 1
    23   17   19 1
    24   17   37 1
    25   18   38 1
    26   19   20 1
    27   19   21 1
    28   19   39 1
    29   20   40 1
    30   21   22 1
    31   21   41 1
    32   22   23 ar
    33   22   32 ar
    34   23   24 ar
    35   23   42 1
    36   24   25 ar
    37   25   26 ar
    38   25   32 ar
    39   26   27 2
    40   26   28 ar
    41   28   29 ar
    42   28   43 1
    43   29   30 1
    44   29   31 ar
    45   30   44 1
    46   30   45 1
    47   31   32 ar
    48   31   46 1
@<TRIPOS>SUBSTRUCTURE
     1 GTP         1 GROUP 0 A     ****
@<TRIPOS>MOLECULE
[[[5-(2-amino-6-oxo-1,3-dihydropurin-2-ylium-9-yl)-3,4-dihydroxy-tetrahydrofuran-2-yl]methoxy-oxido-phosphoryl]oxy-oxido-phosphoryl] hydrogen phosphate
   46    48     1     0     0
SMALL
USER_CHARGES

@<TRIPOS>ATOM
      1 PG         -5.1102    7.1661    2.8289 P.3       1 GTP         1.5400
      2 O1G        -6.1540    6.7726    1.8076 O.co2     1 GTP        -0.8909
      3 O2G        -5.4228    7.1424    4.3086 O.co2     1 GTP        -0.8909
      4 O3G        -4.5395    8.6465    2.4433 O.3       1 GTP        -0.7980
      5 O3B        -3.7524    6.3010    2.5612 O.3       1 GTP        -0.7612
      6 PB         -2.2801    6.4236    3.2561 P.3       1 GTP         1.5847
      7 O1B        -1.6759    7.7580    2.8797 O.co2     1 GTP        -0.8859
      8 O2B        -2.3762    5.9764    4.6977 O.co2     1 GTP        -0.8859
      9 O3A        -1.5104    5.2300    2.4511 O.3       1 GTP        -0.7486
     10 PA          0.0330    4.7083    2.5757 P.3       1 GTP         1.5001
     11 O1A         0.9597    5.8217    2.1376 O.co2     1 GTP        -0.8487
     12 O2A         0.2074    4.0270    3.9155 O.co2     1 GTP        -0.8487
     13 O5'         0.0178    3.5131    1.4595 O.3       1 GTP        -0.5474
     14 C5'        -0.8811    2.4285    1.6206 C.3       1 GTP         0.2547
     15 C4'        -0.1994    1.3333    2.4288 C.3       1 GTP         0.0926
     16 O4'        -1.1285    0.2356    2.5840 O.3       1 GTP        -0.3593
     17 C3'         1.0324    0.7610    1.7344 C.3       1 GTP         0.0907
     18 O3'         1.9175    0.2377    2.7247 O.3       1 GTP        -0.5209
     19 C2'         0.4468   -0.3802    0.9263 C.3       1 GTP         0.0305
     20 O2'         1.3993   -1.3703    0.5961 O.3       1 GTP        -0.5978
     21 C1'        -0.6159   -0.9100    1.8769 C.3       1 GTP         0.2339
     22 N9         -1.7127   -1.6108    1.2130 N.pl3     1 GTP        -0.1765
     23 C8         -2.5534   -1.0907    0.2607 C.ar      1 GTP         0.4947
     24 N7         -3.4469   -1.9695   -0.1508 N.2       1 GTP        -0.5802
     25 C5         -3.1705   -3.1041    0.5657 C.ar      1 GTP         0.2279
     26 C6         -3.8738   -4.3568    0.4777 C.ar      1 GTP         0.6513
     27 O6         -4.8240   -4.5720   -0.2607 O.2       1 GTP        -0.5111
     28 N1         -3.3198   -5.3462    1.3780 N.pl3     1 GTP        -0.4713
     29 C2         -2.2226   -5.1203    2.2413 C.ar      1 GTP         0.5256
     30 N2         -1.7649   -6.1367    3.0659 N.pl3     1 GTP        -0.8665
     31 N3         -1.5969   -3.8585    2.2574 N.pl3     1 GTP        -0.5398
     32 C4         -2.1068   -2.8965    1.4082 C.ar      1 GTP        -0.0275
     33 HOG3       -3.8494    9.0446    3.0157 H         1 GTP         0.4161
     34 H5'        -1.7771    2.7849    2.1387 H         1 GTP         0.0348
     35 H5''       -1.1654    2.0541    0.6320 H         1 GTP         0.0348
     36 H4'         0.0403    1.7078    3.4343 H         1 GTP         0.1215
     37 H3'         1.5907    1.4859    1.1353 H         1 GTP         0.0576
     38 HO3'        2.6839   -0.1150    2.2479 H         1 GTP         0.3842
     39 H2'        -0.0017    0.0018    0.0005 H         1 GTP         0.0252
     40 HO2'        0.9369   -2.0558    0.0825 H         1 GTP         0.4224
     41 H1'        -0.1998   -1.6319    2.6178 H         1 GTP         0.0745
     42 H8         -2.4657   -0.0713   -0.0897 H         1 GTP         0.1522
     43 HN1        -3.7505   -6.2699    1.3904 H         1 GTP         0.3518
     44 HN21       -1.0023   -5.9289    3.6451 H         1 GTP         0.4761
     45 HN22       -2.2347   -6.9951    3.0150 H         1 GTP         0.4761
     46 H46        -0.8062   -3.6900    2.8760 H         1 GTP         0.5030
@<TRIPOS>BOND
     1    1    2 2
     2    1    3 1
     3    1    4 1
     4    1    5 1
     5    4   33 1
     6    5    6 1
     7    6    7 2
     8    6    8 1
     9    6    9 1
    10    9   10 1
    11   10   11 2
    12   10   12 1
    13   10   13 1
    14   13   14 1
    15   14   15 1
    16   14   34 1
    17   14   35 1
    18   15   16 1
    19   15   17 1
    20   15   36 1
    21   16   21 1
    22   17   18 1
    23   17   19 1
    24   17   37 1
    25   18   38 1
    26   19   20 1
    27   19   21 1
    28   19   39 1
    29   20   40 1
    30   21   22 1
    31   21   41 1
    32   22   23 ar
    33   22   32 ar
    34   23   24 ar
    35   23   42 1
    36   24   25 ar
    37   25   26 ar
    38   25   32 ar
    39   26   27 2
    40   26   28 ar
    41   28   29 ar
    42   28   43 1
    43   29   30 1
    44   29   31 ar
    45   30   44 1
    46   30   45 1
    47   31   32 ar
    48   31   46 1
@<TRIPOS>SUBSTRUCTURE
     1 GTP         1 GROUP 0 A     ****
@<TRIPOS>MOLECULE
[[[5-(2-amino-6-oxo-1,3-dihydropurin-2-ylium-9-yl)-3,4-dihydroxy-tetrahydrofuran-2-yl]methoxy-oxido-phosphoryl]oxy-oxido-phosphoryl] hydrogen phosphate
   46    48     1     0     0
SMALL
USER_CHARGES

@<TRIPOS>ATOM
      1 PG          3.8928    6.5257    4.8008 P.3       1 GTP         1.5400
      2 O1G         2.4550    6.9357    5.0291 O.co2     1 GTP        -0.8909
      3 O2G         4.8906    6.5248    5.9375 O.co2     1 GTP        -0.8909
      4 O3G         4.4999    7.4223    3.5787 O.3       1 GTP        -0.7980
      5 O3B         3.9194    5.0655    4.0723 O.3       1 GTP        -0.7612
      6 PB          3.4618    3.6048    4.6402 P.3       1 GTP         1.5847
      7 O1B         4.3830    3.2154    5.7748 O.co2     1 GTP        -0.8859
      8 O2B         1.9579    3.5866    4.7997 O.co2     1 GTP        -0.8859
      9 O3A         3.7995    2.6957    3.3271 O.3       1 GTP        -0.7486
     10 PA          5.2202    2.4549    2.5568 P.3       1 GTP         1.5001
     11 O1A         5.6822    3.7694    1.9659 O.co2     1 GTP        -0.8487
     12 O2A         6.1255    1.6393    3.4539 O.co2     1 GTP        -0.8487
     13 O5'         4.7294    1.4427    1.3696 O.3       1 GTP        -0.5474
     14 C5'         4.0922    1.9801    0.2227 C.3       1 GTP         0.2547
     15 C4'         2.5944    2.0310    0.4653 C.3       1 GTP         0.0926
     16 O4'         1.9327    2.5740   -0.6889 O.3       1 GTP        -0.3593
     17 C3'         1.9685    0.6634    0.6767 C.3       1 GTP         0.0907
     18 O3'         2.1425    0.1975    1.9977 O.3       1 GTP        -0.5209
     19 C2'         0.5176    0.9128    0.3099 C.3       1 GTP         0.0305
     20 O2'        -0.2103    1.4454    1.4152 O.3       1 GTP        -0.5978
     21 C1'         0.6219    1.9765   -0.7844 C.3       1 GTP         0.2339
     22 N9          0.4237    1.4496   -2.1357 N.pl3     1 GTP        -0.1765
     23 C8          1.3988    0.9691   -2.9736 C.ar      1 GTP         0.4947
     24 N7          0.9092    0.5634   -4.1293 N.2       1 GTP        -0.5802
     25 C5         -0.4383    0.7914   -4.0325 C.ar      1 GTP         0.2279
     26 C6         -1.4217    0.5138   -5.0461 C.ar      1 GTP         0.6513
     27 O6         -1.1759    0.0306   -6.1417 O.2       1 GTP        -0.5111
     28 N1         -2.7543    0.8794   -4.6134 N.pl3     1 GTP        -0.4713
     29 C2         -3.0626    1.4402   -3.3523 C.ar      1 GTP         0.5256
     30 N2         -4.3747    1.7544   -3.0321 N.pl3     1 GTP        -0.8665
     31 N3         -2.0304    1.6759   -2.4233 N.pl3     1 GTP        -0.5398
     32 C4         -0.7497    1.3366   -2.8118 C.ar      1 GTP        -0.0275
     33 HOG3        5.4310    7.2733    3.3082 H         1 GTP         0.4161
     34 H5'         4.4843    2.9854    0.0380 H         1 GTP         0.0348
     35 H5''        4.3191    1.3446   -0.6392 H         1 GTP         0.0348
     36 H4'         2.3752    2.7029    1.3156 H         1 GTP         0.1215
     37 H3'         2.4336   -0.1217   -0.0015 H         1 GTP         0.0576
     38 HO3'        3.0987    0.1465    2.1461 H         1 GTP         0.3842
     39 H2'         0.0316    0.0155   -0.0339 H         1 GTP         0.0252
     40 HO2'       -0.1608    0.7921    2.1351 H         1 GTP         0.4224
     41 H1'        -0.1474    2.7798   -0.6651 H         1 GTP         0.0745
     42 H8          2.4413    0.9409   -2.6872 H         1 GTP         0.1522
     43 HN1        -3.5236    0.7214   -5.2629 H         1 GTP         0.3518
     44 HN21       -4.5350    2.1409   -2.1461 H         1 GTP         0.4761
     45 HN22       -5.0542    1.5695   -3.7134 H         1 GTP         0.4761
     46 H46        -2.2462    2.0786   -1.5136 H         1 GTP         0.5030
@<TRIPOS>BOND
     1    1    2 2
     2    1    3 1
     3    1    4 1
     4    1    5 1
     5    4   33 1
     6    5    6 1
     7    6    7 2
     8    6    8 1
     9    6    9 1
    10    9   10 1
    11   10   11 2
    12   10   12 1
    13   10   13 1
    14   13   14 1
    15   14   15 1
    16   14   34 1
    17   14   35 1
    18   15   16 1
    19   15   17 1
    20   15   36 1
    21   16   21 1
    22   17   18 1
    23   17   19 1
    24   17   37 1
    25   18   38 1
    26   19   20 1
    27   19   21 1
    28   19   39 1
    29   20   40 1
    30   21   22 1
    31   21   41 1
    32   22   23 ar
    33   22   32 ar
    34   23   24 ar
    35   23   42 1
    36   24   25 ar
    37   25   26 ar
    38   25   32 ar
    39   26   27 2
    40   26   28 ar
    41   28   29 ar
    42   28   43 1
    43   29   30 1
    44   29   31 ar
    45   30   44 1
    46   30   45 1
    47   31   32 ar
    48   31   46 1
@<TRIPOS>SUBSTRUCTURE
     1 GTP         1 GROUP 0 A     ****
@<TRIPOS>MOLECULE
[[[5-(2-amino-6-oxo-1,3-dihydropurin-2-ylium-9-yl)-3,4-dihydroxy-tetrahydrofuran-2-yl]methoxy-oxido-phosphoryl]oxy-oxido-phosphoryl] hydrogen phosphate
   46    48     1     0     0
SMALL
USER_CHARGES

@<TRIPOS>ATOM
      1 PG          6.3721    3.8069    5.8771 P.3       1 GTP         1.5400
      2 O1G         5.0176    3.9743    6.5289 O.co2     1 GTP        -0.8909
      3 O2G         7.3614    2.7852    6.3919 O.co2     1 GTP        -0.8909
      4 O3G         7.1084    5.2635    5.8298 O.3       1 GTP        -0.7980
      5 O3B         6.1660    3.5826    4.2737 O.3       1 GTP        -0.7612
      6 PB          7.2747    3.5007    3.0780 P.3       1 GTP         1.5847
      7 O1B         7.9483    4.8486    2.9483 O.co2     1 GTP        -0.8859
      8 O2B         8.0754    2.2271    3.2341 O.co2     1 GTP        -0.8859
      9 O3A         6.2746    3.2665    1.8092 O.3       1 GTP        -0.7486
     10 PA          5.0664    4.2077    1.2399 P.3       1 GTP         1.5001
     11 O1A         3.9788    4.2908    2.2890 O.co2     1 GTP        -0.8487
     12 O2A         5.6692    5.4579    0.6372 O.co2     1 GTP        -0.8487
     13 O5'         4.5670    3.2937   -0.0211 O.3       1 GTP        -0.5474
     14 C5'         4.0922    1.9801    0.2227 C.3       1 GTP         0.2547
     15 C4'         2.5944    2.0310    0.4653 C.3       1 GTP         0.0926
     16 O4'         1.9327    2.5740   -0.6889 O.3       1 GTP        -0.3593
     17 C3'         1.9685    0.6634    0.6767 C.3       1 GTP         0.0907
     18 O3'         2.1425    0.1975    1.9977 O.3       1 GTP        -0.5209
     19 C2'         0.5176    0.9128    0.3099 C.3       1 GTP         0.0305
     20 O2'        -0.2103    1.4454    1.4152 O.3       1 GTP        -0.5978
     21 C1'         0.6219    1.9765   -0.7844 C.3       1 GTP         0.2339
     22 N9          0.4237    1.4496   -2.1357 N.pl3     1 GTP        -0.1765
     23 C8          1.3988    0.9691   -2.9736 C.ar      1 GTP         0.4947
     24 N7          0.9092    0.5634   -4.1293 N.2       1 GTP        -0.5802
     25 C5         -0.4383    0.7914   -4.0325 C.ar      1 GTP         0.2279
     26 C6         -1.4217    0.5138   -5.0461 C.ar      1 GTP         0.6513
     27 O6         -1.1759    0.0306   -6.1417 O.2       1 GTP        -0.5111
     28 N1         -2.7543    0.8794   -4.6134 N.pl3     1 GTP        -0.4713
     29 C2         -3.0626    1.4402   -3.3523 C.ar      1 GTP         0.5256
     30 N2         -4.3747    1.7544   -3.0321 N.pl3     1 GTP        -0.8665
     31 N3         -2.0304    1.6759   -2.4233 N.pl3     1 GTP        -0.5398
     32 C4         -0.7497    1.3366   -2.8118 C.ar      1 GTP        -0.0275
     33 HOG3        8.0035    5.3215    5.4325 H         1 GTP         0.4161
     34 H5'         4.3179    1.3548   -0.6470 H         1 GTP         0.0348
     35 H5''        4.6083    1.5737    1.0983 H         1 GTP         0.0348
     36 H4'         2.3752    2.7029    1.3156 H         1 GTP         0.1215
     37 H3'         2.4336   -0.1217   -0.0015 H         1 GTP         0.0576
     38 HO3'        1.7160   -0.6716    2.0397 H         1 GTP         0.3842
     39 H2'         0.0316    0.0155   -0.0339 H         1 GTP         0.0252
     40 HO2'       -0.1608    0.7921    2.1351 H         1 GTP         0.4224
     41 H1'        -0.1474    2.7798   -0.6651 H         1 GTP         0.0745
     42 H8          2.4413    0.9409   -2.6872 H         1 GTP         0.1522
     43 HN1        -3.5236    0.7214   -5.2629 H         1 GTP         0.3518
     44 HN21       -4.5350    2.1409   -2.1461 H         1 GTP         0.4761
     45 HN22       -5.0542    1.5695   -3.7134 H         1 GTP         0.4761
     46 H46        -2.2462    2.0786   -1.5136 H         1 GTP         0.5030
@<TRIPOS>BOND
     1    1    2 2
     2    1    3 1
     3    1    4 1
     4    1    5 1
     5    4   33 1
     6    5    6 1
     7    6    7 2
     8    6    8 1
     9    6    9 1
    10    9   10 1
    11   10   11 2
    12   10   12 1
    13   10   13 1
    14   13   14 1
    15   14   15 1
    16   14   34 1
    17   14   35 1
    18   15   16 1
    19   15   17 1
    20   15   36 1
    21   16   21 1
    22   17   18 1
    23   17   19 1
    24   17   37 1
    25   18   38 1
    26   19   20 1
    27   19   21 1
    28   19   39 1
    29   20   40 1
    30   21   22 1
    31   21   41 1
    32   22   23 ar
    33   22   32 ar
    34   23   24 ar
    35   23   42 1
    36   24   25 ar
    37   25   26 ar
    38   25   32 ar
    39   26   27 2
    40   26   28 ar
    41   28   29 ar
    42   28   43 1
    43   29   30 1
    44   29   31 ar
    45   30   44 1
    46   30   45 1
    47   31   32 ar
    48   31   46 1
@<TRIPOS>SUBSTRUCTURE
     1 GTP         1 GROUP 0 A     ****
@<TRIPOS>MOLECULE
[[[5-(2-amino-6-oxo-1,3-dihydropurin-2-ylium-9-yl)-3,4-dihydroxy-tetrahydrofuran-2-yl]methoxy-oxido-phosphoryl]oxy-oxido-phosphoryl] hydrogen phosphate
   46    48     1     0     0
SMALL
USER_CHARGES

@<TRIPOS>ATOM
      1 PG          3.0490    6.9879    5.5885 P.3       1 GTP         1.5400
      2 O1G         2.0497    7.7920    6.3898 O.co2     1 GTP        -0.8909
      3 O2G         4.2314    6.3259    6.2603 O.co2     1 GTP        -0.8909
      4 O3G         3.6014    7.9178    4.3654 O.3       1 GTP        -0.7980
      5 O3B         2.2481    5.8717    4.7073 O.3       1 GTP        -0.7612
      6 PB          1.3998    4.5651    5.1961 P.3       1 GTP         1.5847
      7 O1B         2.3518    3.5823    5.8406 O.co2     1 GTP        -0.8859
      8 O2B         0.1433    5.0277    5.8993 O.co2     1 GTP        -0.8859
      9 O3A         0.9326    3.9962    3.7391 O.3       1 GTP        -0.7486
     10 PA          0.0330    4.7083    2.5757 P.3       1 GTP         1.5001
     11 O1A        -1.3626    4.9400    3.1133 O.co2     1 GTP        -0.8487
     12 O2A         0.8346    5.8384    1.9673 O.co2     1 GTP        -0.8487
     13 O5'         0.0178    3.5131    1.4595 O.3       1 GTP        -0.5474
     14 C5'        -0.8811    2.4285    1.6206 C.3       1 GTP         0.2547
     15 C4'        -0.1994    1.3333    2.4288 C.3       1 GTP         0.0926
     16 O4'        -1.1285    0.2356    2.5840 O.3       1 GTP        -0.3593
     17 C3'         1.0324    0.7610    1.7344 C.3       1 GTP         0.0907
     18 O3'         1.9175    0.2377    2.7247 O.3       1 GTP        -0.5209
     19 C2'         0.4468   -0.3802    0.9263 C.3       1 GTP         0.0305
     20 O2'         1.3993   -1.3703    0.5961 O.3       1 GTP        -0.5978
     21 C1'        -0.6159   -0.9100    1.8769 C.3       1 GTP         0.2339
     22 N9         -1.7127   -1.6108    1.2130 N.pl3     1 GTP        -0.1765
     23 C8         -1.7789   -2.9564    0.9503 C.ar      1 GTP         0.4947
     24 N7         -2.8980   -3.2916    0.3377 N.2       1 GTP        -0.5802
     25 C5         -3.5824   -2.1127    0.2000 C.ar      1 GTP         0.2279
     26 C6         -4.8740   -1.9471   -0.4133 C.ar      1 GTP         0.6513
     27 O6         -5.5366   -2.8529   -0.8978 O.2       1 GTP        -0.5111
     28 N1         -5.3036   -0.5645   -0.3916 N.pl3     1 GTP        -0.4713
     29 C2         -4.5545    0.4997    0.1619 C.ar      1 GTP         0.5256
     30 N2         -5.0561    1.7921    0.1348 N.pl3     1 GTP        -0.8665
     31 N3         -3.2977    0.2393    0.7420 N.pl3     1 GTP        -0.5398
     32 C4         -2.8643   -1.0716    0.7336 C.ar      1 GTP        -0.0275
     33 HOG3        4.2628    7.5354    3.7501 H         1 GTP         0.4161
     34 H5'        -1.7771    2.7849    2.1387 H         1 GTP         0.0348
     35 H5''       -1.1654    2.0541    0.6320 H         1 GTP         0.0348
     36 H4'         0.0403    1.7078    3.4343 H         1 GTP         0.1215
     37 H3'         1.5907    1.4859    1.1353 H         1 GTP         0.0576
     38 HO3'        2.6839   -0.1150    2.2479 H         1 GTP         0.3842
     39 H2'        -0.0017    0.0018    0.0005 H         1 GTP         0.0252
     40 HO2'        2.0953   -0.9375    0.0709 H         1 GTP         0.4224
     41 H1'        -0.1998   -1.6319    2.6178 H         1 GTP         0.0745
     42 H8         -0.9852   -3.6367    1.2276 H         1 GTP         0.1522
     43 HN1        -6.2089   -0.3428   -0.8039 H         1 GTP         0.3518
     44 HN21       -4.4981    2.4933    0.5311 H         1 GTP         0.4761
     45 HN22       -5.9352    1.9183   -0.2793 H         1 GTP         0.4761
     46 H46        -2.7541    1.0010    1.1428 H         1 GTP         0.5030
@<TRIPOS>BOND
     1    1    2 2
     2    1    3 1
     3    1    4 1
     4    1    5 1
     5    4   33 1
     6    5    6 1
     7    6    7 2
     8    6    8 1
     9    6    9 1
    10    9   10 1
    11   10   11 2
    12   10   12 1
    13   10   13 1
    14   13   14 1
    15   14   15 1
    16   14   34 1
    17   14   35 1
    18   15   16 1
    19   15   17 1
    20   15   36 1
    21   16   21 1
    22   17   18 1
    23   17   19 1
    24   17   37 1
    25   18   38 1
    26   19   20 1
    27   19   21 1
    28   19   39 1
    29   20   40 1
    30   21   22 1
    31   21   41 1
    32   22   23 ar
    33   22   32 ar
    34   23   24 ar
    35   23   42 1
    36   24   25 ar
    37   25   26 ar
    38   25   32 ar
    39   26   27 2
    40   26   28 ar
    41   28   29 ar
    42   28   43 1
    43   29   30 1
    44   29   31 ar
    45   30   44 1
    46   30   45 1
    47   31   32 ar
    48   31   46 1
@<TRIPOS>SUBSTRUCTURE
     1 GTP         1 GROUP 0 A     ****
@<TRIPOS>MOLECULE
[[[5-(2-amino-6-oxo-1,3-dihydropurin-2-ylium-9-yl)-3,4-dihydroxy-tetrahydrofuran-2-yl]methoxy-oxido-phosphoryl]oxy-oxido-phosphoryl] hydrogen phosphate
   46    48     1     0     0
SMALL
USER_CHARGES

@<TRIPOS>ATOM
      1 PG          0.6657    6.7786    0.3038 P.3       1 GTP         1.5400
      2 O1G         1.3920    6.2711    1.5295 O.co2     1 GTP        -0.8909
      3 O2G         0.7544    6.0405   -1.0135 O.co2     1 GTP        -0.8909
      4 O3G         1.0920    8.3350    0.0556 O.3       1 GTP        -0.7980
      5 O3B        -0.9065    7.0098    0.6757 O.3       1 GTP        -0.7612
      6 PB         -2.0606    5.9218    1.0631 P.3       1 GTP         1.5847
      7 O1B        -3.3171    6.6667    1.4553 O.co2     1 GTP        -0.8859
      8 O2B        -2.0814    4.8307    0.0160 O.co2     1 GTP        -0.8859
      9 O3A        -1.3731    5.2735    2.3942 O.3       1 GTP        -0.7486
     10 PA         -1.9156    4.0918    3.3837 P.3       1 GTP         1.5001
     11 O1A        -0.8453    3.7865    4.4092 O.co2     1 GTP        -0.8487
     12 O2A        -3.3304    4.4243    3.8049 O.co2     1 GTP        -0.8487
     13 O5'        -2.0401    2.8620    2.3128 O.3       1 GTP        -0.5474
     14 C5'        -0.8811    2.4285    1.6206 C.3       1 GTP         0.2547
     15 C4'        -0.1994    1.3333    2.4288 C.3       1 GTP         0.0926
     16 O4'        -1.1285    0.2356    2.5840 O.3       1 GTP        -0.3593
     17 C3'         1.0324    0.7610    1.7344 C.3       1 GTP         0.0907
     18 O3'         1.9175    0.2377    2.7247 O.3       1 GTP        -0.5209
     19 C2'         0.4468   -0.3802    0.9263 C.3       1 GTP         0.0305
     20 O2'         1.3993   -1.3703    0.5961 O.3       1 GTP        -0.5978
     21 C1'        -0.6159   -0.9100    1.8769 C.3       1 GTP         0.2339
     22 N9         -1.7127   -1.6108    1.2130 N.pl3     1 GTP        -0.1765
     23 C8         -1.6311   -2.3341    0.0493 C.ar      1 GTP         0.4947
     24 N7         -2.7933   -2.8506   -0.3007 N.2       1 GTP        -0.5802
     25 C5         -3.6607   -2.4436    0.6786 C.ar      1 GTP         0.2279
     26 C6         -5.0651   -2.7506    0.7505 C.ar      1 GTP         0.6513
     27 O6         -5.6735   -3.4256   -0.0671 O.2       1 GTP        -0.5111
     28 N1         -5.6834   -2.1585    1.9182 N.pl3     1 GTP        -0.4713
     29 C2         -5.0007   -1.3738    2.8765 C.ar      1 GTP         0.5256
     30 N2         -5.6847   -0.8521    3.9640 N.pl3     1 GTP        -0.8665
     31 N3         -3.6227   -1.1271    2.7212 N.pl3     1 GTP        -0.5398
     32 C4         -3.0090   -1.6802    1.6149 C.ar      1 GTP        -0.0275
     33 HOG3        0.7015    8.8099   -0.7088 H         1 GTP         0.4161
     34 H5'        -1.1767    2.0502    0.6368 H         1 GTP         0.0348
     35 H5''       -0.2080    3.2814    1.4876 H         1 GTP         0.0348
     36 H4'         0.0403    1.7078    3.4343 H         1 GTP         0.1215
     37 H3'         1.5907    1.4859    1.1353 H         1 GTP         0.0576
     38 HO3'        2.6839   -0.1150    2.2479 H         1 GTP         0.3842
     39 H2'        -0.0017    0.0018    0.0005 H         1 GTP         0.0252
     40 HO2'        2.0953   -0.9375    0.0709 H         1 GTP         0.4224
     41 H1'        -0.1998   -1.6319    2.6178 H         1 GTP         0.0745
     42 H8         -0.7029   -2.4474   -0.4941 H         1 GTP         0.1522
     43 HN1        -6.6800   -2.3183    2.0594 H         1 GTP         0.3518
     44 HN21       -5.1660   -0.3153    4.5987 H         1 GTP         0.4761
     45 HN22       -6.6415   -1.0545    4.0252 H         1 GTP         0.4761
     46 H46        -3.1256   -0.5638    3.4080 H         1 GTP         0.5030
@<TRIPOS>BOND
     1    1    2 2
     2    1    3 1
     3    1    4 1
     4    1    5 1
     5    4   33 1
     6    5    6 1
     7    6    7 2
     8    6    8 1
     9    6    9 1
    10    9   10 1
    11   10   11 2
    12   10   12 1
    13   10   13 1
    14   13   14 1
    15   14   15 1
    16   14   34 1
    17   14   35 1
    18   15   16 1
    19   15   17 1
    20   15   36 1
    21   16   21 1
    22   17   18 1
    23   17   19 1
    24   17   37 1
    25   18   38 1
    26   19   20 1
    27   19   21 1
    28   19   39 1
    29   20   40 1
    30   21   22 1
    31   21   41 1
    32   22   23 ar
    33   22   32 ar
    34   23   24 ar
    35   23   42 1
    36   24   25 ar
    37   25   26 ar
    38   25   32 ar
    39   26   27 2
    40   26   28 ar
    41   28   29 ar
    42   28   43 1
    43   29   30 1
    44   29   31 ar
    45   30   44 1
    46   30   45 1
    47   31   32 ar
    48   31   46 1
@<TRIPOS>SUBSTRUCTURE
     1 GTP         1 GROUP 0 A     ****
@<TRIPOS>MOLECULE
[[[5-(2-amino-6-oxo-1,3-dihydropurin-2-ylium-9-yl)-3,4-dihydroxy-tetrahydrofuran-2-yl]methoxy-oxido-phosphoryl]oxy-oxido-phosphoryl] hydrogen phosphate
   46    48     1     0     0
SMALL
USER_CHARGES

@<TRIPOS>ATOM
      1 PG          2.7003    5.6216    1.4560 P.3       1 GTP         1.5400
      2 O1G         3.4693    4.3555    1.7609 O.co2     1 GTP        -0.8909
      3 O2G         1.8077    5.7148    0.2385 O.co2     1 GTP        -0.8909
      4 O3G         3.7504    6.8716    1.4259 O.3       1 GTP        -0.7980
      5 O3B         1.8418    6.0525    2.7755 O.3       1 GTP        -0.7612
      6 PB          0.5768    5.3072    3.4896 P.3       1 GTP         1.5847
      7 O1B         0.9680    3.8799    3.8013 O.co2     1 GTP        -0.8859
      8 O2B         0.0007    6.2197    4.5492 O.co2     1 GTP        -0.8859
      9 O3A        -0.4755    5.3240    2.2417 O.3       1 GTP        -0.7486
     10 PA         -2.0037    4.7528    2.1522 P.3       1 GTP         1.5001
     11 O1A        -2.8233    5.3804    3.2590 O.co2     1 GTP        -0.8487
     12 O2A        -2.4597    4.8131    0.7107 O.co2     1 GTP        -0.8487
     13 O5'        -1.7336    3.1724    2.4750 O.3       1 GTP        -0.5474
     14 C5'        -0.8811    2.4285    1.6206 C.3       1 GTP         0.2547
     15 C4'        -0.1994    1.3333    2.4288 C.3       1 GTP         0.0926
     16 O4'        -1.1285    0.2356    2.5840 O.3       1 GTP        -0.3593
     17 C3'         1.0324    0.7610    1.7344 C.3       1 GTP         0.0907
     18 O3'         1.9175    0.2377    2.7247 O.3       1 GTP        -0.5209
     19 C2'         0.4468   -0.3802    0.9263 C.3       1 GTP         0.0305
     20 O2'         1.3993   -1.3703    0.5961 O.3       1 GTP        -0.5978
     21 C1'        -0.6159   -0.9100    1.8769 C.3       1 GTP         0.2339
     22 N9         -1.7127   -1.6108    1.2130 N.pl3     1 GTP        -0.1765
     23 C8         -1.6311   -2.3341    0.0493 C.ar      1 GTP         0.4947
     24 N7         -2.7933   -2.8506   -0.3007 N.2       1 GTP        -0.5802
     25 C5         -3.6607   -2.4436    0.6786 C.ar      1 GTP         0.2279
     26 C6         -5.0651   -2.7506    0.7505 C.ar      1 GTP         0.6513
     27 O6         -5.6735   -3.4256   -0.0671 O.2       1 GTP        -0.5111
     28 N1         -5.6834   -2.1585    1.9182 N.pl3     1 GTP        -0.4713
     29 C2         -5.0007   -1.3738    2.8765 C.ar      1 GTP         0.5256
     30 N2         -5.6847   -0.8521    3.9640 N.pl3     1 GTP        -0.8665
     31 N3         -3.6227   -1.1271    2.7212 N.pl3     1 GTP        -0.5398
     32 C4         -3.0090   -1.6802    1.6149 C.ar      1 GTP        -0.0275
     33 HOG3        3.4022    7.7695    1.2391 H         1 GTP         0.4161
     34 H5'        -1.4800    1.9927    0.8146 H         1 GTP         0.0348
     35 H5''       -0.1367    3.1040    1.1872 H         1 GTP         0.0348
     36 H4'         0.0403    1.7078    3.4343 H         1 GTP         0.1215
     37 H3'         1.5907    1.4859    1.1353 H         1 GTP         0.0576
     38 HO3'        2.6839   -0.1150    2.2479 H         1 GTP         0.3842
     39 H2'        -0.0017    0.0018    0.0005 H         1 GTP         0.0252
     40 HO2'        2.0953   -0.9375    0.0709 H         1 GTP         0.4224
     41 H1'        -0.1998   -1.6319    2.6178 H         1 GTP         0.0745
     42 H8         -0.7029   -2.4474   -0.4941 H         1 GTP         0.1522
     43 HN1        -6.6800   -2.3183    2.0594 H         1 GTP         0.3518
     44 HN21       -5.1660   -0.3153    4.5987 H         1 GTP         0.4761
     45 HN22       -6.6415   -1.0545    4.0252 H         1 GTP         0.4761
     46 H46        -3.1256   -0.5638    3.4080 H         1 GTP         0.5030
@<TRIPOS>BOND
     1    1    2 2
     2    1    3 1
     3    1    4 1
     4    1    5 1
     5    4   33 1
     6    5    6 1
     7    6    7 2
     8    6    8 1
     9    6    9 1
    10    9   10 1
    11   10   11 2
    12   10   12 1
    13   10   13 1
    14   13   14 1
    15   14   15 1
    16   14   34 1
    17   14   35 1
    18   15   16 1
    19   15   17 1
    20   15   36 1
    21   16   21 1
    22   17   18 1
    23   17   19 1
    24   17   37 1
    25   18   38 1
    26   19   20 1
    27   19   21 1
    28   19   39 1
    29   20   40 1
    30   21   22 1
    31   21   41 1
    32   22   23 ar
    33   22   32 ar
    34   23   24 ar
    35   23   42 1
    36   24   25 ar
    37   25   26 ar
    38   25   32 ar
    39   26   27 2
    40   26   28 ar
    41   28   29 ar
    42   28   43 1
    43   29   30 1
    44   29   31 ar
    45   30   44 1
    46   30   45 1
    47   31   32 ar
    48   31   46 1
@<TRIPOS>SUBSTRUCTURE
     1 GTP         1 GROUP 0 A     ****
@<TRIPOS>MOLECULE
[[[5-(2-amino-6-oxo-1,3-dihydropurin-2-ylium-9-yl)-3,4-dihydroxy-tetrahydrofuran-2-yl]methoxy-oxido-phosphoryl]oxy-oxido-phosphoryl] hydrogen phosphate
   46    48     1     0     0
SMALL
USER_CHARGES

@<TRIPOS>ATOM
      1 PG          9.2434    4.2309    4.4629 P.3       1 GTP         1.5400
      2 O1G         8.6642    4.3899    5.8509 O.co2     1 GTP        -0.8909
      3 O2G        10.4967    3.4162    4.2323 O.co2     1 GTP        -0.8909
      4 O3G         9.4644    5.7154    3.8199 O.3       1 GTP        -0.7980
      5 O3B         8.0737    3.6981    3.4570 O.3       1 GTP        -0.7612
      6 PB          7.2898    2.2662    3.4300 P.3       1 GTP         1.5847
      7 O1B         8.2812    1.1771    3.0859 O.co2     1 GTP        -0.8859
      8 O2B         6.3978    2.1691    4.6476 O.co2     1 GTP        -0.8859
      9 O3A         6.3056    2.5306    2.1547 O.3       1 GTP        -0.7486
     10 PA          5.1608    3.6754    1.9343 P.3       1 GTP         1.5001
     11 O1A         4.0574    3.4615    2.9478 O.co2     1 GTP        -0.8487
     12 O2A         5.8411    5.0193    1.7906 O.co2     1 GTP        -0.8487
     13 O5'         4.6405    3.2699    0.4378 O.3       1 GTP        -0.5474
     14 C5'         4.0922    1.9801    0.2227 C.3       1 GTP         0.2547
     15 C4'         2.5944    2.0310    0.4653 C.3       1 GTP         0.0926
     16 O4'         1.9327    2.5740   -0.6889 O.3       1 GTP        -0.3593
     17 C3'         1.9685    0.6634    0.6767 C.3       1 GTP         0.0907
     18 O3'         2.1425    0.1975    1.9977 O.3       1 GTP        -0.5209
     19 C2'         0.5176    0.9128    0.3099 C.3       1 GTP         0.0305
     20 O2'        -0.2103    1.4454    1.4152 O.3       1 GTP        -0.5978
     21 C1'         0.6219    1.9765   -0.7844 C.3       1 GTP         0.2339
     22 N9          0.4237    1.4496   -2.1357 N.pl3     1 GTP        -0.1765
     23 C8          1.3988    0.9691   -2.9736 C.ar      1 GTP         0.4947
     24 N7          0.9092    0.5634   -4.1293 N.2       1 GTP        -0.5802
     25 C5         -0.4383    0.7914   -4.0325 C.ar      1 GTP         0.2279
     26 C6         -1.4217    0.5138   -5.0461 C.ar      1 GTP         0.6513
     27 O6         -1.1759    0.0306   -6.1417 O.2       1 GTP        -0.5111
     28 N1         -2.7543    0.8794   -4.6134 N.pl3     1 GTP        -0.4713
     29 C2         -3.0626    1.4402   -3.3523 C.ar      1 GTP         0.5256
     30 N2         -4.3747    1.7544   -3.0321 N.pl3     1 GTP        -0.8665
     31 N3         -2.0304    1.6759   -2.4233 N.pl3     1 GTP        -0.5398
     32 C4         -0.7497    1.3366   -2.8118 C.ar      1 GTP        -0.0275
     33 HOG3        9.8369    5.7814    2.9148 H         1 GTP         0.4161
     34 H5'         4.3028    1.6728   -0.8066 H         1 GTP         0.0348
     35 H5''        4.5677    1.2738    0.9106 H         1 GTP         0.0348
     36 H4'         2.3752    2.7029    1.3156 H         1 GTP         0.1215
     37 H3'         2.4336   -0.1217   -0.0015 H         1 GTP         0.0576
     38 HO3'        3.0987    0.1465    2.1461 H         1 GTP         0.3842
     39 H2'         0.0316    0.0155   -0.0339 H         1 GTP         0.0252
     40 HO2'       -0.1608    0.7921    2.1351 H         1 GTP         0.4224
     41 H1'        -0.1474    2.7798   -0.6651 H         1 GTP         0.0745
     42 H8          2.4413    0.9409   -2.6872 H         1 GTP         0.1522
     43 HN1        -3.5236    0.7214   -5.2629 H         1 GTP         0.3518
     44 HN21       -4.5350    2.1409   -2.1461 H         1 GTP         0.4761
     45 HN22       -5.0542    1.5695   -3.7134 H         1 GTP         0.4761
     46 H46        -2.2462    2.0786   -1.5136 H         1 GTP         0.5030
@<TRIPOS>BOND
     1    1    2 2
     2    1    3 1
     3    1    4 1
     4    1    5 1
     5    4   33 1
     6    5    6 1
     7    6    7 2
     8    6    8 1
     9    6    9 1
    10    9   10 1
    11   10   11 2
    12   10   12 1
    13   10   13 1
    14   13   14 1
    15   14   15 1
    16   14   34 1
    17   14   35 1
    18   15   16 1
    19   15   17 1
    20   15   36 1
    21   16   21 1
    22   17   18 1
    23   17   19 1
    24   17   37 1
    25   18   38 1
    26   19   20 1
    27   19   21 1
    28   19   39 1
    29   20   40 1
    30   21   22 1
    31   21   41 1
    32   22   23 ar
    33   22   32 ar
    34   23   24 ar
    35   23   42 1
    36   24   25 ar
    37   25   26 ar
    38   25   32 ar
    39   26   27 2
    40   26   28 ar
    41   28   29 ar
    42   28   43 1
    43   29   30 1
    44   29   31 ar
    45   30   44 1
    46   30   45 1
    47   31   32 ar
    48   31   46 1
@<TRIPOS>SUBSTRUCTURE
     1 GTP         1 GROUP 0 A     ****
@<TRIPOS>MOLECULE
[[[5-(2-amino-6-oxo-1,3-dihydropurin-2-ylium-9-yl)-3,4-dihydroxy-tetrahydrofuran-2-yl]methoxy-oxido-phosphoryl]oxy-oxido-phosphoryl] hydrogen phosphate
   46    48     1     0     0
SMALL
USER_CHARGES

@<TRIPOS>ATOM
      1 PG          3.3506    8.7619   -2.1087 P.3       1 GTP         1.5400
      2 O1G         3.7207    8.7287   -3.5748 O.co2     1 GTP        -0.8909
      3 O2G         2.0668    9.4139   -1.6457 O.co2     1 GTP        -0.8909
      4 O3G         4.5935    9.4143   -1.2747 O.3       1 GTP        -0.7980
      5 O3B         3.4200    7.2456   -1.5089 O.3       1 GTP        -0.7612
      6 PB          2.4910    5.9452   -1.8427 P.3       1 GTP         1.5847
      7 O1B         1.0815    6.2219   -1.3692 O.co2     1 GTP        -0.8859
      8 O2B         2.7757    5.4851   -3.2551 O.co2     1 GTP        -0.8859
      9 O3A         3.1962    4.8578   -0.8502 O.3       1 GTP        -0.7486
     10 PA          4.7368    4.3145   -0.8169 P.3       1 GTP         1.5001
     11 O1A         5.0163    3.5650   -2.1016 O.co2     1 GTP        -0.8487
     12 O2A         5.6373    5.4398   -0.3559 O.co2     1 GTP        -0.8487
     13 O5'         4.6405    3.2699    0.4378 O.3       1 GTP        -0.5474
     14 C5'         4.0922    1.9801    0.2227 C.3       1 GTP         0.2547
     15 C4'         2.5944    2.0310    0.4653 C.3       1 GTP         0.0926
     16 O4'         1.9327    2.5740   -0.6889 O.3       1 GTP        -0.3593
     17 C3'         1.9685    0.6634    0.6767 C.3       1 GTP         0.0907
     18 O3'         2.1425    0.1975    1.9977 O.3       1 GTP        -0.5209
     19 C2'         0.5176    0.9128    0.3099 C.3       1 GTP         0.0305
     20 O2'        -0.2103    1.4454    1.4152 O.3       1 GTP        -0.5978
     21 C1'         0.6219    1.9765   -0.7844 C.3       1 GTP         0.2339
     22 N9          0.4237    1.4496   -2.1357 N.pl3     1 GTP        -0.1765
     23 C8          1.3988    0.9691   -2.9736 C.ar      1 GTP         0.4947
     24 N7          0.9092    0.5634   -4.1293 N.2       1 GTP        -0.5802
     25 C5         -0.4383    0.7914   -4.0325 C.ar      1 GTP         0.2279
     26 C6         -1.4217    0.5138   -5.0461 C.ar      1 GTP         0.6513
     27 O6         -1.1759    0.0306   -6.1417 O.2       1 GTP        -0.5111
     28 N1         -2.7543    0.8794   -4.6134 N.pl3     1 GTP        -0.4713
     29 C2         -3.0626    1.4402   -3.3523 C.ar      1 GTP         0.5256
     30 N2         -4.3747    1.7544   -3.0321 N.pl3     1 GTP        -0.8665
     31 N3         -2.0304    1.6759   -2.4233 N.pl3     1 GTP        -0.5398
     32 C4         -0.7497    1.3366   -2.8118 C.ar      1 GTP        -0.0275
     33 HOG3        4.5062    9.5053   -0.3019 H         1 GTP         0.4161
     34 H5'         4.3028    1.6728   -0.8066 H         1 GTP         0.0348
     35 H5''        4.5677    1.2738    0.9106 H         1 GTP         0.0348
     36 H4'         2.3752    2.7029    1.3156 H         1 GTP         0.1215
     37 H3'         2.4336   -0.1217   -0.0015 H         1 GTP         0.0576
     38 HO3'        1.7160   -0.6716    2.0397 H         1 GTP         0.3842
     39 H2'         0.0316    0.0155   -0.0339 H         1 GTP         0.0252
     40 HO2'       -0.1608    0.7921    2.1351 H         1 GTP         0.4224
     41 H1'        -0.1474    2.7798   -0.6651 H         1 GTP         0.0745
     42 H8          2.4413    0.9409   -2.6872 H         1 GTP         0.1522
     43 HN1        -3.5236    0.7214   -5.2629 H         1 GTP         0.3518
     44 HN21       -4.5350    2.1409   -2.1461 H         1 GTP         0.4761
     45 HN22       -5.0542    1.5695   -3.7134 H         1 GTP         0.4761
     46 H46        -2.2462    2.0786   -1.5136 H         1 GTP         0.5030
@<TRIPOS>BOND
     1    1    2 2
     2    1    3 1
     3    1    4 1
     4    1    5 1
     5    4   33 1
     6    5    6 1
     7    6    7 2
     8    6    8 1
     9    6    9 1
    10    9   10 1
    11   10   11 2
    12   10   12 1
    13   10   13 1
    14   13   14 1
    15   14   15 1
    16   14   34 1
    17   14   35 1
    18   15   16 1
    19   15   17 1
    20   15   36 1
    21   16   21 1
    22   17   18 1
    23   17   19 1
    24   17   37 1
    25   18   38 1
    26   19   20 1
    27   19   21 1
    28   19   39 1
    29   20   40 1
    30   21   22 1
    31   21   41 1
    32   22   23 ar
    33   22   32 ar
    34   23   24 ar
    35   23   42 1
    36   24   25 ar
    37   25   26 ar
    38   25   32 ar
    39   26   27 2
    40   26   28 ar
    41   28   29 ar
    42   28   43 1
    43   29   30 1
    44   29   31 ar
    45   30   44 1
    46   30   45 1
    47   31   32 ar
    48   31   46 1
@<TRIPOS>SUBSTRUCTURE
     1 GTP         1 GROUP 0 A     ****
@<TRIPOS>MOLECULE
[[[5-(2-amino-6-oxo-1,3-dihydropurin-2-ylium-9-yl)-3,4-dihydroxy-tetrahydrofuran-2-yl]methoxy-oxido-phosphoryl]oxy-oxido-phosphoryl] hydrogen phosphate
   46    48     1     0     0
SMALL
USER_CHARGES

@<TRIPOS>ATOM
      1 PG         -2.2681    2.1420   -2.9667 P.3       1 GTP         1.5400
      2 O1G        -1.9531    0.6909   -2.6794 O.co2     1 GTP        -0.8909
      3 O2G        -3.2677    2.9020   -2.1237 O.co2     1 GTP        -0.8909
      4 O3G        -2.7029    2.2776   -4.5347 O.3       1 GTP        -0.7980
      5 O3B        -0.8731    2.9872   -3.0237 O.3       1 GTP        -0.7612
      6 PB          0.1949    3.3242   -1.8356 P.3       1 GTP         1.5847
      7 O1B         0.6205    2.0274   -1.1840 O.co2     1 GTP        -0.8859
      8 O2B         1.2086    4.3210   -2.3518 O.co2     1 GTP        -0.8859
      9 O3A        -0.7889    4.1455   -0.8244 O.3       1 GTP        -0.7486
     10 PA         -0.4665    4.8322    0.6228 P.3       1 GTP         1.5001
     11 O1A         0.6860    5.7988    0.4566 O.co2     1 GTP        -0.8487
     12 O2A        -1.7709    5.2708    1.2521 O.co2     1 GTP        -0.8487
     13 O5'         0.0178    3.5131    1.4595 O.3       1 GTP        -0.5474
     14 C5'        -0.8811    2.4285    1.6206 C.3       1 GTP         0.2547
     15 C4'        -0.1994    1.3333    2.4288 C.3       1 GTP         0.0926
     16 O4'        -1.1285    0.2356    2.5840 O.3       1 GTP        -0.3593
     17 C3'         1.0324    0.7610    1.7344 C.3       1 GTP         0.0907
     18 O3'         1.9175    0.2377    2.7247 O.3       1 GTP        -0.5209
     19 C2'         0.4468   -0.3802    0.9263 C.3       1 GTP         0.0305
     20 O2'         1.3993   -1.3703    0.5961 O.3       1 GTP        -0.5978
     21 C1'        -0.6159   -0.9100    1.8769 C.3       1 GTP         0.2339
     22 N9         -1.7127   -1.6108    1.2130 N.pl3     1 GTP        -0.1765
     23 C8         -1.6311   -2.3341    0.0493 C.ar      1 GTP         0.4947
     24 N7         -2.7933   -2.8506   -0.3007 N.2       1 GTP        -0.5802
     25 C5         -3.6607   -2.4436    0.6786 C.ar      1 GTP         0.2279
     26 C6         -5.0651   -2.7506    0.7505 C.ar      1 GTP         0.6513
     27 O6         -5.6735   -3.4256   -0.0671 O.2       1 GTP        -0.5111
     28 N1         -5.6834   -2.1585    1.9182 N.pl3     1 GTP        -0.4713
     29 C2         -5.0007   -1.3738    2.8765 C.ar      1 GTP         0.5256
     30 N2         -5.6847   -0.8521    3.9640 N.pl3     1 GTP        -0.8665
     31 N3         -3.6227   -1.1271    2.7212 N.pl3     1 GTP        -0.5398
     32 C4         -3.0090   -1.6802    1.6149 C.ar      1 GTP        -0.0275
     33 HOG3       -2.9398    3.1654   -4.8784 H         1 GTP         0.4161
     34 H5'        -1.7771    2.7849    2.1387 H         1 GTP         0.0348
     35 H5''       -1.1654    2.0541    0.6320 H         1 GTP         0.0348
     36 H4'         0.0403    1.7078    3.4343 H         1 GTP         0.1215
     37 H3'         1.5907    1.4859    1.1353 H         1 GTP         0.0576
     38 HO3'        2.1521    0.9800    3.3017 H         1 GTP         0.3842
     39 H2'        -0.0017    0.0018    0.0005 H         1 GTP         0.0252
     40 HO2'        2.0953   -0.9375    0.0709 H         1 GTP         0.4224
     41 H1'        -0.1998   -1.6319    2.6178 H         1 GTP         0.0745
     42 H8         -0.7029   -2.4474   -0.4941 H         1 GTP         0.1522
     43 HN1        -6.6800   -2.3183    2.0594 H         1 GTP         0.3518
     44 HN21       -5.1660   -0.3153    4.5987 H         1 GTP         0.4761
     45 HN22       -6.6415   -1.0545    4.0252 H         1 GTP         0.4761
     46 H46        -3.1256   -0.5638    3.4080 H         1 GTP         0.5030
@<TRIPOS>BOND
     1    1    2 2
     2    1    3 1
     3    1    4 1
     4    1    5 1
     5    4   33 1
     6    5    6 1
     7    6    7 2
     8    6    8 1
     9    6    9 1
    10    9   10 1
    11   10   11 2
    12   10   12 1
    13   10   13 1
    14   13   14 1
    15   14   15 1
    16   14   34 1
    17   14   35 1
    18   15   16 1
    19   15   17 1
    20   15   36 1
    21   16   21 1
    22   17   18 1
    23   17   19 1
    24   17   37 1
    25   18   38 1
    26   19   20 1
    27   19   21 1
    28   19   39 1
    29   20   40 1
    30   21   22 1
    31   21   41 1
    32   22   23 ar
    33   22   32 ar
    34   23   24 ar
    35   23   42 1
    36   24   25 ar
    37   25   26 ar
    38   25   32 ar
    39   26   27 2
    40   26   28 ar
    41   28   29 ar
    42   28   43 1
    43   29   30 1
    44   29   31 ar
    45   30   44 1
    46   30   45 1
    47   31   32 ar
    48   31   46 1
@<TRIPOS>SUBSTRUCTURE
     1 GTP         1 GROUP 0 A     ****
@<TRIPOS>MOLECULE
[[[5-(2-amino-6-oxo-1,3-dihydropurin-2-ylium-9-yl)-3,4-dihydroxy-tetrahydrofuran-2-yl]methoxy-oxido-phosphoryl]oxy-oxido-phosphoryl] hydrogen phosphate
   46    48     1     0     0
SMALL
USER_CHARGES

@<TRIPOS>ATOM
      1 PG          4.6866    3.2075    7.3021 P.3       1 GTP         1.5400
      2 O1G         5.3608    4.5558    7.4240 O.co2     1 GTP        -0.8909
      3 O2G         3.4193    2.9001    8.0684 O.co2     1 GTP        -0.8909
      4 O3G         5.7860    2.0461    7.6312 O.3       1 GTP        -0.7980
      5 O3B         4.4432    2.8762    5.7226 O.3       1 GTP        -0.7612
      6 PB          3.4618    3.6048    4.6402 P.3       1 GTP         1.5847
      7 O1B         2.0260    3.3765    5.0571 O.co2     1 GTP        -0.8859
      8 O2B         3.9910    4.9916    4.3499 O.co2     1 GTP        -0.8859
      9 O3A         3.7995    2.6957    3.3271 O.3       1 GTP        -0.7486
     10 PA          5.2202    2.4549    2.5568 P.3       1 GTP         1.5001
     11 O1A         5.6822    3.7694    1.9659 O.co2     1 GTP        -0.8487
     12 O2A         6.1255    1.6393    3.4539 O.co2     1 GTP        -0.8487
     13 O5'         4.7294    1.4427    1.3696 O.3       1 GTP        -0.5474
     14 C5'         4.0922    1.9801    0.2227 C.3       1 GTP         0.2547
     15 C4'         2.5944    2.0310    0.4653 C.3       1 GTP         0.0926
     16 O4'         1.9327    2.5740   -0.6889 O.3       1 GTP        -0.3593
     17 C3'         1.9685    0.6634    0.6767 C.3       1 GTP         0.0907
     18 O3'         2.1425    0.1975    1.9977 O.3       1 GTP        -0.5209
     19 C2'         0.5176    0.9128    0.3099 C.3       1 GTP         0.0305
     20 O2'        -0.2103    1.4454    1.4152 O.3       1 GTP        -0.5978
     21 C1'         0.6219    1.9765   -0.7844 C.3       1 GTP         0.2339
     22 N9          0.4237    1.4496   -2.1357 N.pl3     1 GTP        -0.1765
     23 C8          1.3988    0.9691   -2.9736 C.ar      1 GTP         0.4947
     24 N7          0.9092    0.5634   -4.1293 N.2       1 GTP        -0.5802
     25 C5         -0.4383    0.7914   -4.0325 C.ar      1 GTP         0.2279
     26 C6         -1.4217    0.5138   -5.0461 C.ar      1 GTP         0.6513
     27 O6         -1.1759    0.0306   -6.1417 O.2       1 GTP        -0.5111
     28 N1         -2.7543    0.8794   -4.6134 N.pl3     1 GTP        -0.4713
     29 C2         -3.0626    1.4402   -3.3523 C.ar      1 GTP         0.5256
     30 N2         -4.3747    1.7544   -3.0321 N.pl3     1 GTP        -0.8665
     31 N3         -2.0304    1.6759   -2.4233 N.pl3     1 GTP        -0.5398
     32 C4         -0.7497    1.3366   -2.8118 C.ar      1 GTP        -0.0275
     33 HOG3        5.5002    1.1085    7.5938 H         1 GTP         0.4161
     34 H5'         4.4843    2.9854    0.0380 H         1 GTP         0.0348
     35 H5''        4.3191    1.3446   -0.6392 H         1 GTP         0.0348
     36 H4'         2.3752    2.7029    1.3156 H         1 GTP         0.1215
     37 H3'         2.4336   -0.1217   -0.0015 H         1 GTP         0.0576
     38 HO3'        3.0987    0.1465    2.1461 H         1 GTP         0.3842
     39 H2'         0.0316    0.0155   -0.0339 H         1 GTP         0.0252
     40 HO2'       -0.1608    0.7921    2.1351 H         1 GTP         0.4224
     41 H1'        -0.1474    2.7798   -0.6651 H         1 GTP         0.0745
     42 H8          2.4413    0.9409   -2.6872 H         1 GTP         0.1522
     43 HN1        -3.5236    0.7214   -5.2629 H         1 GTP         0.3518
     44 HN21       -4.5350    2.1409   -2.1461 H         1 GTP         0.4761
     45 HN22       -5.0542    1.5695   -3.7134 H         1 GTP         0.4761
     46 H46        -2.2462    2.0786   -1.5136 H         1 GTP         0.5030
@<TRIPOS>BOND
     1    1    2 2
     2    1    3 1
     3    1    4 1
     4    1    5 1
     5    4   33 1
     6    5    6 1
     7    6    7 2
     8    6    8 1
     9    6    9 1
    10    9   10 1
    11   10   11 2
    12   10   12 1
    13   10   13 1
    14   13   14 1
    15   14   15 1
    16   14   34 1
    17   14   35 1
    18   15   16 1
    19   15   17 1
    20   15   36 1
    21   16   21 1
    22   17   18 1
    23   17   19 1
    24   17   37 1
    25   18   38 1
    26   19   20 1
    27   19   21 1
    28   19   39 1
    29   20   40 1
    30   21   22 1
    31   21   41 1
    32   22   23 ar
    33   22   32 ar
    34   23   24 ar
    35   23   42 1
    36   24   25 ar
    37   25   26 ar
    38   25   32 ar
    39   26   27 2
    40   26   28 ar
    41   28   29 ar
    42   28   43 1
    43   29   30 1
    44   29   31 ar
    45   30   44 1
    46   30   45 1
    47   31   32 ar
    48   31   46 1
@<TRIPOS>SUBSTRUCTURE
     1 GTP         1 GROUP 0 A     ****
@<TRIPOS>MOLECULE
[[[5-(2-amino-6-oxo-1,3-dihydropurin-2-ylium-9-yl)-3,4-dihydroxy-tetrahydrofuran-2-yl]methoxy-oxido-phosphoryl]oxy-oxido-phosphoryl] hydrogen phosphate
   46    48     1     0     0
SMALL
USER_CHARGES

@<TRIPOS>ATOM
      1 PG          1.0763    7.6703    4.6537 P.3       1 GTP         1.5400
      2 O1G         1.9153    6.9373    5.6766 O.co2     1 GTP        -0.8909
      3 O2G         1.7105    8.6308    3.6725 O.co2     1 GTP        -0.8909
      4 O3G        -0.1303    8.4467    5.4330 O.3       1 GTP        -0.7980
      5 O3B         0.1787    6.5860    3.8276 O.3       1 GTP        -0.7612
      6 PB         -1.0016    6.8281    2.7259 P.3       1 GTP         1.5847
      7 O1B        -2.1750    7.4928    3.4106 O.co2     1 GTP        -0.8859
      8 O2B        -0.3909    7.4016    1.4667 O.co2     1 GTP        -0.8859
      9 O3A        -1.3731    5.2735    2.3942 O.3       1 GTP        -0.7486
     10 PA         -1.9156    4.0918    3.3837 P.3       1 GTP         1.5001
     11 O1A        -0.8453    3.7865    4.4092 O.co2     1 GTP        -0.8487
     12 O2A        -3.3304    4.4243    3.8049 O.co2     1 GTP        -0.8487
     13 O5'        -2.0401    2.8620    2.3128 O.3       1 GTP        -0.5474
     14 C5'        -0.8811    2.4285    1.6206 C.3       1 GTP         0.2547
     15 C4'        -0.1994    1.3333    2.4288 C.3       1 GTP         0.0926
     16 O4'        -1.1285    0.2356    2.5840 O.3       1 GTP        -0.3593
     17 C3'         1.0324    0.7610    1.7344 C.3       1 GTP         0.0907
     18 O3'         1.9175    0.2377    2.7247 O.3       1 GTP        -0.5209
     19 C2'         0.4468   -0.3802    0.9263 C.3       1 GTP         0.0305
     20 O2'         1.3993   -1.3703    0.5961 O.3       1 GTP        -0.5978
     21 C1'        -0.6159   -0.9100    1.8769 C.3       1 GTP         0.2339
     22 N9         -1.7127   -1.6108    1.2130 N.pl3     1 GTP        -0.1765
     23 C8         -1.6311   -2.3341    0.0493 C.ar      1 GTP         0.4947
     24 N7         -2.7933   -2.8506   -0.3007 N.2       1 GTP        -0.5802
     25 C5         -3.6607   -2.4436    0.6786 C.ar      1 GTP         0.2279
     26 C6         -5.0651   -2.7506    0.7505 C.ar      1 GTP         0.6513
     27 O6         -5.6735   -3.4256   -0.0671 O.2       1 GTP        -0.5111
     28 N1         -5.6834   -2.1585    1.9182 N.pl3     1 GTP        -0.4713
     29 C2         -5.0007   -1.3738    2.8765 C.ar      1 GTP         0.5256
     30 N2         -5.6847   -0.8521    3.9640 N.pl3     1 GTP        -0.8665
     31 N3         -3.6227   -1.1271    2.7212 N.pl3     1 GTP        -0.5398
     32 C4         -3.0090   -1.6802    1.6149 C.ar      1 GTP        -0.0275
     33 HOG3       -0.7665    8.9722    4.9025 H         1 GTP         0.4161
     34 H5'        -1.1767    2.0502    0.6368 H         1 GTP         0.0348
     35 H5''       -0.2080    3.2814    1.4876 H         1 GTP         0.0348
     36 H4'         0.0403    1.7078    3.4343 H         1 GTP         0.1215
     37 H3'         1.5907    1.4859    1.1353 H         1 GTP         0.0576
     38 HO3'        2.6839   -0.1150    2.2479 H         1 GTP         0.3842
     39 H2'        -0.0017    0.0018    0.0005 H         1 GTP         0.0252
     40 HO2'        2.0953   -0.9375    0.0709 H         1 GTP         0.4224
     41 H1'        -0.1998   -1.6319    2.6178 H         1 GTP         0.0745
     42 H8         -0.7029   -2.4474   -0.4941 H         1 GTP         0.1522
     43 HN1        -6.6800   -2.3183    2.0594 H         1 GTP         0.3518
     44 HN21       -5.1660   -0.3153    4.5987 H         1 GTP         0.4761
     45 HN22       -6.6415   -1.0545    4.0252 H         1 GTP         0.4761
     46 H46        -3.1256   -0.5638    3.4080 H         1 GTP         0.5030
@<TRIPOS>BOND
     1    1    2 2
     2    1    3 1
     3    1    4 1
     4    1    5 1
     5    4   33 1
     6    5    6 1
     7    6    7 2
     8    6    8 1
     9    6    9 1
    10    9   10 1
    11   10   11 2
    12   10   12 1
    13   10   13 1
    14   13   14 1
    15   14   15 1
    16   14   34 1
    17   14   35 1
    18   15   16 1
    19   15   17 1
    20   15   36 1
    21   16   21 1
    22   17   18 1
    23   17   19 1
    24   17   37 1
    25   18   38 1
    26   19   20 1
    27   19   21 1
    28   19   39 1
    29   20   40 1
    30   21   22 1
    31   21   41 1
    32   22   23 ar
    33   22   32 ar
    34   23   24 ar
    35   23   42 1
    36   24   25 ar
    37   25   26 ar
    38   25   32 ar
    39   26   27 2
    40   26   28 ar
    41   28   29 ar
    42   28   43 1
    43   29   30 1
    44   29   31 ar
    45   30   44 1
    46   30   45 1
    47   31   32 ar
    48   31   46 1
@<TRIPOS>SUBSTRUCTURE
     1 GTP         1 GROUP 0 A     ****
@<TRIPOS>MOLECULE
[[[5-(2-amino-6-oxo-1,3-dihydropurin-2-ylium-9-yl)-3,4-dihydroxy-tetrahydrofuran-2-yl]methoxy-oxido-phosphoryl]oxy-oxido-phosphoryl] hydrogen phosphate
   46    48     1     0     0
SMALL
USER_CHARGES

@<TRIPOS>ATOM
      1 PG         -0.0300    8.7735    0.7223 P.3       1 GTP         1.5400
      2 O1G         0.4210    8.6587   -0.7168 O.co2     1 GTP        -0.8909
      3 O2G        -1.0320    9.8262    1.1412 O.co2     1 GTP        -0.8909
      4 O3G         1.2921    8.9096    1.6708 O.3       1 GTP        -0.7980
      5 O3B        -0.5512    7.3139    1.2337 O.3       1 GTP        -0.7612
      6 PB         -1.0016    6.8281    2.7259 P.3       1 GTP         1.5847
      7 O1B         0.2052    6.8760    3.6363 O.co2     1 GTP        -0.8859
      8 O2B        -2.2999    7.5101    3.0957 O.co2     1 GTP        -0.8859
      9 O3A        -1.3731    5.2735    2.3942 O.3       1 GTP        -0.7486
     10 PA         -1.9156    4.0918    3.3837 P.3       1 GTP         1.5001
     11 O1A        -0.8453    3.7865    4.4092 O.co2     1 GTP        -0.8487
     12 O2A        -3.3304    4.4243    3.8049 O.co2     1 GTP        -0.8487
     13 O5'        -2.0401    2.8620    2.3128 O.3       1 GTP        -0.5474
     14 C5'        -0.8811    2.4285    1.6206 C.3       1 GTP         0.2547
     15 C4'        -0.1994    1.3333    2.4288 C.3       1 GTP         0.0926
     16 O4'        -1.1285    0.2356    2.5840 O.3       1 GTP        -0.3593
     17 C3'         1.0324    0.7610    1.7344 C.3       1 GTP         0.0907
     18 O3'         1.9175    0.2377    2.7247 O.3       1 GTP        -0.5209
     19 C2'         0.4468   -0.3802    0.9263 C.3       1 GTP         0.0305
     20 O2'         1.3993   -1.3703    0.5961 O.3       1 GTP        -0.5978
     21 C1'        -0.6159   -0.9100    1.8769 C.3       1 GTP         0.2339
     22 N9         -1.7127   -1.6108    1.2130 N.pl3     1 GTP        -0.1765
     23 C8         -1.6311   -2.3341    0.0493 C.ar      1 GTP         0.4947
     24 N7         -2.7933   -2.8506   -0.3007 N.2       1 GTP        -0.5802
     25 C5         -3.6607   -2.4436    0.6786 C.ar      1 GTP         0.2279
     26 C6         -5.0651   -2.7506    0.7505 C.ar      1 GTP         0.6513
     27 O6         -5.6735   -3.4256   -0.0671 O.2       1 GTP        -0.5111
     28 N1         -5.6834   -2.1585    1.9182 N.pl3     1 GTP        -0.4713
     29 C2         -5.0007   -1.3738    2.8765 C.ar      1 GTP         0.5256
     30 N2         -5.6847   -0.8521    3.9640 N.pl3     1 GTP        -0.8665
     31 N3         -3.6227   -1.1271    2.7212 N.pl3     1 GTP        -0.5398
     32 C4         -3.0090   -1.6802    1.6149 C.ar      1 GTP        -0.0275
     33 HOG3        1.1648    8.9936    2.6398 H         1 GTP         0.4161
     34 H5'        -1.1767    2.0502    0.6368 H         1 GTP         0.0348
     35 H5''       -0.2080    3.2814    1.4876 H         1 GTP         0.0348
     36 H4'         0.0403    1.7078    3.4343 H         1 GTP         0.1215
     37 H3'         1.5907    1.4859    1.1353 H         1 GTP         0.0576
     38 HO3'        2.6839   -0.1150    2.2479 H         1 GTP         0.3842
     39 H2'        -0.0017    0.0018    0.0005 H         1 GTP         0.0252
     40 HO2'        2.0953   -0.9375    0.0709 H         1 GTP         0.4224
     41 H1'        -0.1998   -1.6319    2.6178 H         1 GTP         0.0745
     42 H8         -0.7029   -2.4474   -0.4941 H         1 GTP         0.1522
     43 HN1        -6.6800   -2.3183    2.0594 H         1 GTP         0.3518
     44 HN21       -5.1660   -0.3153    4.5987 H         1 GTP         0.4761
     45 HN22       -6.6415   -1.0545    4.0252 H         1 GTP         0.4761
     46 H46        -3.1256   -0.5638    3.4080 H         1 GTP         0.5030
@<TRIPOS>BOND
     1    1    2 2
     2    1    3 1
     3    1    4 1
     4    1    5 1
     5    4   33 1
     6    5    6 1
     7    6    7 2
     8    6    8 1
     9    6    9 1
    10    9   10 1
    11   10   11 2
    12   10   12 1
    13   10   13 1
    14   13   14 1
    15   14   15 1
    16   14   34 1
    17   14   35 1
    18   15   16 1
    19   15   17 1
    20   15   36 1
    21   16   21 1
    22   17   18 1
    23   17   19 1
    24   17   37 1
    25   18   38 1
    26   19   20 1
    27   19   21 1
    28   19   39 1
    29   20   40 1
    30   21   22 1
    31   21   41 1
    32   22   23 ar
    33   22   32 ar
    34   23   24 ar
    35   23   42 1
    36   24   25 ar
    37   25   26 ar
    38   25   32 ar
    39   26   27 2
    40   26   28 ar
    41   28   29 ar
    42   28   43 1
    43   29   30 1
    44   29   31 ar
    45   30   44 1
    46   30   45 1
    47   31   32 ar
    48   31   46 1
@<TRIPOS>SUBSTRUCTURE
     1 GTP         1 GROUP 0 A     ****
@<TRIPOS>MOLECULE
[[[5-(2-amino-6-oxo-1,3-dihydropurin-2-ylium-9-yl)-3,4-dihydroxy-tetrahydrofuran-2-yl]methoxy-oxido-phosphoryl]oxy-oxido-phosphoryl] hydrogen phosphate
   46    48     1     0     0
SMALL
USER_CHARGES

@<TRIPOS>ATOM
      1 PG          1.7489    2.6735    7.5209 P.3       1 GTP         1.5400
      2 O1G         2.8936    3.6519    7.3802 O.co2     1 GTP        -0.8909
      3 O2G         0.9136    2.6305    8.7811 O.co2     1 GTP        -0.8909
      4 O3G         2.3115    1.1704    7.2204 O.3       1 GTP        -0.7980
      5 O3B         0.7572    2.8275    6.2339 O.3       1 GTP        -0.7612
      6 PB         -0.1989    4.0755    5.7937 P.3       1 GTP         1.5847
      7 O1B        -1.2854    4.2439    6.8323 O.co2     1 GTP        -0.8859
      8 O2B         0.6710    5.2353    5.3628 O.co2     1 GTP        -0.8859
      9 O3A        -0.8402    3.4461    4.4308 O.3       1 GTP        -0.7486
     10 PA         -1.9156    4.0918    3.3837 P.3       1 GTP         1.5001
     11 O1A        -3.2320    4.2955    4.1021 O.co2     1 GTP        -0.8487
     12 O2A        -1.2462    5.2272    2.6405 O.co2     1 GTP        -0.8487
     13 O5'        -2.0401    2.8620    2.3128 O.3       1 GTP        -0.5474
     14 C5'        -0.8811    2.4285    1.6206 C.3       1 GTP         0.2547
     15 C4'        -0.1994    1.3333    2.4288 C.3       1 GTP         0.0926
     16 O4'        -1.1285    0.2356    2.5840 O.3       1 GTP        -0.3593
     17 C3'         1.0324    0.7610    1.7344 C.3       1 GTP         0.0907
     18 O3'         1.9175    0.2377    2.7247 O.3       1 GTP        -0.5209
     19 C2'         0.4468   -0.3802    0.9263 C.3       1 GTP         0.0305
     20 O2'         1.3993   -1.3703    0.5961 O.3       1 GTP        -0.5978
     21 C1'        -0.6159   -0.9100    1.8769 C.3       1 GTP         0.2339
     22 N9         -1.7127   -1.6108    1.2130 N.pl3     1 GTP        -0.1765
     23 C8         -2.5534   -1.0907    0.2607 C.ar      1 GTP         0.4947
     24 N7         -3.4469   -1.9695   -0.1508 N.2       1 GTP        -0.5802
     25 C5         -3.1705   -3.1041    0.5657 C.ar      1 GTP         0.2279
     26 C6         -3.8738   -4.3568    0.4777 C.ar      1 GTP         0.6513
     27 O6         -4.8240   -4.5720   -0.2607 O.2       1 GTP        -0.5111
     28 N1         -3.3198   -5.3462    1.3780 N.pl3     1 GTP        -0.4713
     29 C2         -2.2226   -5.1203    2.2413 C.ar      1 GTP         0.5256
     30 N2         -1.7649   -6.1367    3.0659 N.pl3     1 GTP        -0.8665
     31 N3         -1.5969   -3.8585    2.2574 N.pl3     1 GTP        -0.5398
     32 C4         -2.1068   -2.8965    1.4082 C.ar      1 GTP        -0.0275
     33 HOG3        1.6842    0.4180    7.2723 H         1 GTP         0.4161
     34 H5'        -1.1767    2.0502    0.6368 H         1 GTP         0.0348
     35 H5''       -0.2080    3.2814    1.4876 H         1 GTP         0.0348
     36 H4'         0.0403    1.7078    3.4343 H         1 GTP         0.1215
     37 H3'         1.5907    1.4859    1.1353 H         1 GTP         0.0576
     38 HO3'        2.6839   -0.1150    2.2479 H         1 GTP         0.3842
     39 H2'        -0.0017    0.0018    0.0005 H         1 GTP         0.0252
     40 HO2'        2.0953   -0.9375    0.0709 H         1 GTP         0.4224
     41 H1'        -0.1998   -1.6319    2.6178 H         1 GTP         0.0745
     42 H8         -2.4657   -0.0713   -0.0897 H         1 GTP         0.1522
     43 HN1        -3.7505   -6.2699    1.3904 H         1 GTP         0.3518
     44 HN21       -1.0023   -5.9289    3.6451 H         1 GTP         0.4761
     45 HN22       -2.2347   -6.9951    3.0150 H         1 GTP         0.4761
     46 H46        -0.8062   -3.6900    2.8760 H         1 GTP         0.5030
@<TRIPOS>BOND
     1    1    2 2
     2    1    3 1
     3    1    4 1
     4    1    5 1
     5    4   33 1
     6    5    6 1
     7    6    7 2
     8    6    8 1
     9    6    9 1
    10    9   10 1
    11   10   11 2
    12   10   12 1
    13   10   13 1
    14   13   14 1
    15   14   15 1
    16   14   34 1
    17   14   35 1
    18   15   16 1
    19   15   17 1
    20   15   36 1
    21   16   21 1
    22   17   18 1
    23   17   19 1
    24   17   37 1
    25   18   38 1
    26   19   20 1
    27   19   21 1
    28   19   39 1
    29   20   40 1
    30   21   22 1
    31   21   41 1
    32   22   23 ar
    33   22   32 ar
    34   23   24 ar
    35   23   42 1
    36   24   25 ar
    37   25   26 ar
    38   25   32 ar
    39   26   27 2
    40   26   28 ar
    41   28   29 ar
    42   28   43 1
    43   29   30 1
    44   29   31 ar
    45   30   44 1
    46   30   45 1
    47   31   32 ar
    48   31   46 1
@<TRIPOS>SUBSTRUCTURE
     1 GTP         1 GROUP 0 A     ****
@<TRIPOS>MOLECULE
[[[5-(2-amino-6-oxo-1,3-dihydropurin-2-ylium-9-yl)-3,4-dihydroxy-tetrahydrofuran-2-yl]methoxy-oxido-phosphoryl]oxy-oxido-phosphoryl] hydrogen phosphate
   46    48     1     0     0
SMALL
USER_CHARGES

@<TRIPOS>ATOM
      1 PG         -1.2093    7.0760    0.4620 P.3       1 GTP         1.5400
      2 O1G        -2.4461    6.5877    1.1825 O.co2     1 GTP        -0.8909
      3 O2G         0.1440    7.0518    1.1371 O.co2     1 GTP        -0.8909
      4 O3G        -1.4899    8.5894   -0.0827 O.3       1 GTP        -0.7980
      5 O3B        -1.0965    6.3131   -0.9764 O.3       1 GTP        -0.7612
      6 PB         -0.8196    4.7383   -1.3062 P.3       1 GTP         1.5847
      7 O1B        -0.9497    4.5252   -2.7979 O.co2     1 GTP        -0.8859
      8 O2B         0.4057    4.2830   -0.5453 O.co2     1 GTP        -0.8859
      9 O3A        -2.1069    4.0814   -0.5472 O.3       1 GTP        -0.7486
     10 PA         -2.5569    2.5166   -0.4115 P.3       1 GTP         1.5001
     11 O1A        -3.7696    2.4355    0.4902 O.co2     1 GTP        -0.8487
     12 O2A        -2.5642    1.8933   -1.7903 O.co2     1 GTP        -0.8487
     13 O5'        -1.2434    1.9104    0.3515 O.3       1 GTP        -0.5474
     14 C5'        -0.8811    2.4285    1.6206 C.3       1 GTP         0.2547
     15 C4'        -0.1994    1.3333    2.4288 C.3       1 GTP         0.0926
     16 O4'        -1.1285    0.2356    2.5840 O.3       1 GTP        -0.3593
     17 C3'         1.0324    0.7610    1.7344 C.3       1 GTP         0.0907
     18 O3'         1.9175    0.2377    2.7247 O.3       1 GTP        -0.5209
     19 C2'         0.4468   -0.3802    0.9263 C.3       1 GTP         0.0305
     20 O2'         1.3993   -1.3703    0.5961 O.3       1 GTP        -0.5978
     21 C1'        -0.6159   -0.9100    1.8769 C.3       1 GTP         0.2339
     22 N9         -1.7127   -1.6108    1.2130 N.pl3     1 GTP        -0.1765
     23 C8         -2.8692   -1.0463    0.7355 C.ar      1 GTP         0.4947
     24 N7         -3.6707   -1.9381    0.1856 N.2       1 GTP        -0.5802
     25 C5         -3.0027   -3.1275    0.3134 C.ar      1 GTP         0.2279
     26 C6         -3.4659   -4.4142   -0.1355 C.ar      1 GTP         0.6513
     27 O6         -4.5328   -4.6133   -0.6980 O.2       1 GTP        -0.5111
     28 N1         -2.5102   -5.4606    0.1612 N.pl3     1 GTP        -0.4713
     29 C2         -1.2711   -5.2547    0.8113 C.ar      1 GTP         0.5256
     30 N2         -0.4228   -6.3256    1.0482 N.pl3     1 GTP        -0.8665
     31 N3         -0.9033   -3.9563    1.2146 N.pl3     1 GTP        -0.5398
     32 C4         -1.7979   -2.9400    0.9438 C.ar      1 GTP        -0.0275
     33 HOG3       -0.7764    9.0481   -0.5755 H         1 GTP         0.4161
     34 H5'        -0.2033    3.2760    1.4769 H         1 GTP         0.0348
     35 H5''       -1.7841    2.7762    2.1323 H         1 GTP         0.0348
     36 H4'         0.0403    1.7078    3.4343 H         1 GTP         0.1215
     37 H3'         1.5907    1.4859    1.1353 H         1 GTP         0.0576
     38 HO3'        2.6839   -0.1150    2.2479 H         1 GTP         0.3842
     39 H2'        -0.0017    0.0018    0.0005 H         1 GTP         0.0252
     40 HO2'        2.0953   -0.9375    0.0709 H         1 GTP         0.4224
     41 H1'        -0.1998   -1.6319    2.6178 H         1 GTP         0.0745
     42 H8         -3.0691    0.0134    0.8177 H         1 GTP         0.1522
     43 HN1        -2.7468   -6.4119   -0.1177 H         1 GTP         0.3518
     44 HN21        0.4233   -6.1297    1.5018 H         1 GTP         0.4761
     45 HN22       -0.7261   -7.2071    0.7466 H         1 GTP         0.4761
     46 H46        -0.0124   -3.8015    1.6821 H         1 GTP         0.5030
@<TRIPOS>BOND
     1    1    2 2
     2    1    3 1
     3    1    4 1
     4    1    5 1
     5    4   33 1
     6    5    6 1
     7    6    7 2
     8    6    8 1
     9    6    9 1
    10    9   10 1
    11   10   11 2
    12   10   12 1
    13   10   13 1
    14   13   14 1
    15   14   15 1
    16   14   34 1
    17   14   35 1
    18   15   16 1
    19   15   17 1
    20   15   36 1
    21   16   21 1
    22   17   18 1
    23   17   19 1
    24   17   37 1
    25   18   38 1
    26   19   20 1
    27   19   21 1
    28   19   39 1
    29   20   40 1
    30   21   22 1
    31   21   41 1
    32   22   23 ar
    33   22   32 ar
    34   23   24 ar
    35   23   42 1
    36   24   25 ar
    37   25   26 ar
    38   25   32 ar
    39   26   27 2
    40   26   28 ar
    41   28   29 ar
    42   28   43 1
    43   29   30 1
    44   29   31 ar
    45   30   44 1
    46   30   45 1
    47   31   32 ar
    48   31   46 1
@<TRIPOS>SUBSTRUCTURE
     1 GTP         1 GROUP 0 A     ****
@<TRIPOS>MOLECULE
[[[5-(2-amino-6-oxo-1,3-dihydropurin-2-ylium-9-yl)-3,4-dihydroxy-tetrahydrofuran-2-yl]methoxy-oxido-phosphoryl]oxy-oxido-phosphoryl] hydrogen phosphate
   46    48     1     0     0
SMALL
USER_CHARGES

@<TRIPOS>ATOM
      1 PG         -7.7194    2.0854   -0.0225 P.3       1 GTP         1.5400
      2 O1G        -8.0242    3.2202   -0.9747 O.co2     1 GTP        -0.8909
      3 O2G        -8.0990    0.6615   -0.3632 O.co2     1 GTP        -0.8909
      4 O3G        -8.3456    2.4531    1.4400 O.3       1 GTP        -0.7980
      5 O3B        -6.1355    2.1313    0.3689 O.3       1 GTP        -0.7612
      6 PB         -4.8201    1.8698   -0.5622 P.3       1 GTP         1.5847
      7 O1B        -4.8170    0.4225   -1.0014 O.co2     1 GTP        -0.8859
      8 O2B        -4.6885    2.9999   -1.5587 O.co2     1 GTP        -0.8859
      9 O3A        -3.6558    2.1022    0.5582 O.3       1 GTP        -0.7486
     10 PA         -3.3161    3.4234    1.4576 P.3       1 GTP         1.5001
     11 O1A        -2.8773    4.5400    0.5352 O.co2     1 GTP        -0.8487
     12 O2A        -4.4325    3.6284    2.4582 O.co2     1 GTP        -0.8487
     13 O5'        -2.0401    2.8620    2.3128 O.3       1 GTP        -0.5474
     14 C5'        -0.8811    2.4285    1.6206 C.3       1 GTP         0.2547
     15 C4'        -0.1994    1.3333    2.4288 C.3       1 GTP         0.0926
     16 O4'        -1.1285    0.2356    2.5840 O.3       1 GTP        -0.3593
     17 C3'         1.0324    0.7610    1.7344 C.3       1 GTP         0.0907
     18 O3'         1.9175    0.2377    2.7247 O.3       1 GTP        -0.5209
     19 C2'         0.4468   -0.3802    0.9263 C.3       1 GTP         0.0305
     20 O2'         1.3993   -1.3703    0.5961 O.3       1 GTP        -0.5978
     21 C1'        -0.6159   -0.9100    1.8769 C.3       1 GTP         0.2339
     22 N9         -1.7127   -1.6108    1.2130 N.pl3     1 GTP        -0.1765
     23 C8         -2.5534   -1.0907    0.2607 C.ar      1 GTP         0.4947
     24 N7         -3.4469   -1.9695   -0.1508 N.2       1 GTP        -0.5802
     25 C5         -3.1705   -3.1041    0.5657 C.ar      1 GTP         0.2279
     26 C6         -3.8738   -4.3568    0.4777 C.ar      1 GTP         0.6513
     27 O6         -4.8240   -4.5720   -0.2607 O.2       1 GTP        -0.5111
     28 N1         -3.3198   -5.3462    1.3780 N.pl3     1 GTP        -0.4713
     29 C2         -2.2226   -5.1203    2.2413 C.ar      1 GTP         0.5256
     30 N2         -1.7649   -6.1367    3.0659 N.pl3     1 GTP        -0.8665
     31 N3         -1.5969   -3.8585    2.2574 N.pl3     1 GTP        -0.5398
     32 C4         -2.1068   -2.8965    1.4082 C.ar      1 GTP        -0.0275
     33 HOG3       -9.3130    2.5996    1.5102 H         1 GTP         0.4161
     34 H5'        -1.1767    2.0502    0.6368 H         1 GTP         0.0348
     35 H5''       -0.2080    3.2814    1.4876 H         1 GTP         0.0348
     36 H4'         0.0403    1.7078    3.4343 H         1 GTP         0.1215
     37 H3'         1.5907    1.4859    1.1353 H         1 GTP         0.0576
     38 HO3'        2.6839   -0.1150    2.2479 H         1 GTP         0.3842
     39 H2'        -0.0017    0.0018    0.0005 H         1 GTP         0.0252
     40 HO2'        0.9369   -2.0558    0.0825 H         1 GTP         0.4224
     41 H1'        -0.1998   -1.6319    2.6178 H         1 GTP         0.0745
     42 H8         -2.4657   -0.0713   -0.0897 H         1 GTP         0.1522
     43 HN1        -3.7505   -6.2699    1.3904 H         1 GTP         0.3518
     44 HN21       -1.0023   -5.9289    3.6451 H         1 GTP         0.4761
     45 HN22       -2.2347   -6.9951    3.0150 H         1 GTP         0.4761
     46 H46        -0.8062   -3.6900    2.8760 H         1 GTP         0.5030
@<TRIPOS>BOND
     1    1    2 2
     2    1    3 1
     3    1    4 1
     4    1    5 1
     5    4   33 1
     6    5    6 1
     7    6    7 2
     8    6    8 1
     9    6    9 1
    10    9   10 1
    11   10   11 2
    12   10   12 1
    13   10   13 1
    14   13   14 1
    15   14   15 1
    16   14   34 1
    17   14   35 1
    18   15   16 1
    19   15   17 1
    20   15   36 1
    21   16   21 1
    22   17   18 1
    23   17   19 1
    24   17   37 1
    25   18   38 1
    26   19   20 1
    27   19   21 1
    28   19   39 1
    29   20   40 1
    30   21   22 1
    31   21   41 1
    32   22   23 ar
    33   22   32 ar
    34   23   24 ar
    35   23   42 1
    36   24   25 ar
    37   25   26 ar
    38   25   32 ar
    39   26   27 2
    40   26   28 ar
    41   28   29 ar
    42   28   43 1
    43   29   30 1
    44   29   31 ar
    45   30   44 1
    46   30   45 1
    47   31   32 ar
    48   31   46 1
@<TRIPOS>SUBSTRUCTURE
     1 GTP         1 GROUP 0 A     ****
@<TRIPOS>MOLECULE
[[[5-(2-amino-6-oxo-1,3-dihydropurin-2-ylium-9-yl)-3,4-dihydroxy-tetrahydrofuran-2-yl]methoxy-oxido-phosphoryl]oxy-oxido-phosphoryl] hydrogen phosphate
   46    48     1     0     0
SMALL
USER_CHARGES

@<TRIPOS>ATOM
      1 PG          3.0490    6.9879    5.5885 P.3       1 GTP         1.5400
      2 O1G         2.0497    7.7920    6.3898 O.co2     1 GTP        -0.8909
      3 O2G         4.2314    6.3259    6.2603 O.co2     1 GTP        -0.8909
      4 O3G         3.6014    7.9178    4.3654 O.3       1 GTP        -0.7980
      5 O3B         2.2481    5.8717    4.7073 O.3       1 GTP        -0.7612
      6 PB          1.3998    4.5651    5.1961 P.3       1 GTP         1.5847
      7 O1B         2.3518    3.5823    5.8406 O.co2     1 GTP        -0.8859
      8 O2B         0.1433    5.0277    5.8993 O.co2     1 GTP        -0.8859
      9 O3A         0.9326    3.9962    3.7391 O.3       1 GTP        -0.7486
     10 PA          0.0330    4.7083    2.5757 P.3       1 GTP         1.5001
     11 O1A        -1.3626    4.9400    3.1133 O.co2     1 GTP        -0.8487
     12 O2A         0.8346    5.8384    1.9673 O.co2     1 GTP        -0.8487
     13 O5'         0.0178    3.5131    1.4595 O.3       1 GTP        -0.5474
     14 C5'        -0.8811    2.4285    1.6206 C.3       1 GTP         0.2547
     15 C4'        -0.1994    1.3333    2.4288 C.3       1 GTP         0.0926
     16 O4'        -1.1285    0.2356    2.5840 O.3       1 GTP        -0.3593
     17 C3'         1.0324    0.7610    1.7344 C.3       1 GTP         0.0907
     18 O3'         1.9175    0.2377    2.7247 O.3       1 GTP        -0.5209
     19 C2'         0.4468   -0.3802    0.9263 C.3       1 GTP         0.0305
     20 O2'         1.3993   -1.3703    0.5961 O.3       1 GTP        -0.5978
     21 C1'        -0.6159   -0.9100    1.8769 C.3       1 GTP         0.2339
     22 N9         -1.7127   -1.6108    1.2130 N.pl3     1 GTP        -0.1765
     23 C8         -3.0389   -1.2578    1.2391 C.ar      1 GTP         0.4947
     24 N7         -3.7909   -2.0880    0.5425 N.2       1 GTP        -0.5802
     25 C5         -2.9127   -3.0150    0.0458 C.ar      1 GTP         0.2279
     26 C6         -3.2467   -4.1411   -0.7860 C.ar      1 GTP         0.6513
     27 O6         -4.3761   -4.4189   -1.1621 O.2       1 GTP        -0.5111
     28 N1         -2.0748   -4.9191   -1.1296 N.pl3     1 GTP        -0.4713
     29 C2         -0.7595   -4.6181   -0.7058 C.ar      1 GTP         0.5256
     30 N2          0.2985   -5.4268   -1.0920 N.pl3     1 GTP        -0.8665
     31 N3         -0.5304   -3.4919    0.1084 N.pl3     1 GTP        -0.5398
     32 C4         -1.6318   -2.7332    0.4512 C.ar      1 GTP        -0.0275
     33 HOG3        4.2628    7.5354    3.7501 H         1 GTP         0.4161
     34 H5'        -1.7771    2.7849    2.1387 H         1 GTP         0.0348
     35 H5''       -1.1654    2.0541    0.6320 H         1 GTP         0.0348
     36 H4'         0.0403    1.7078    3.4343 H         1 GTP         0.1215
     37 H3'         1.5907    1.4859    1.1353 H         1 GTP         0.0576
     38 HO3'        2.1521    0.9800    3.3017 H         1 GTP         0.3842
     39 H2'        -0.0017    0.0018    0.0005 H         1 GTP         0.0252
     40 HO2'        1.7495   -1.7243    1.4324 H         1 GTP         0.4224
     41 H1'        -0.1998   -1.6319    2.6178 H         1 GTP         0.0745
     42 H8         -3.3933   -0.3909    1.7800 H         1 GTP         0.1522
     43 HN1        -2.2071   -5.7408   -1.7178 H         1 GTP         0.3518
     44 HN21        0.0848   -6.1964   -1.6597 H         1 GTP         0.4761
     45 HN22        1.1896   -5.1747   -0.7719 H         1 GTP         0.4761
     46 H46         0.4142   -3.2695    0.4160 H         1 GTP         0.5030
@<TRIPOS>BOND
     1    1    2 2
     2    1    3 1
     3    1    4 1
     4    1    5 1
     5    4   33 1
     6    5    6 1
     7    6    7 2
     8    6    8 1
     9    6    9 1
    10    9   10 1
    11   10   11 2
    12   10   12 1
    13   10   13 1
    14   13   14 1
    15   14   15 1
    16   14   34 1
    17   14   35 1
    18   15   16 1
    19   15   17 1
    20   15   36 1
    21   16   21 1
    22   17   18 1
    23   17   19 1
    24   17   37 1
    25   18   38 1
    26   19   20 1
    27   19   21 1
    28   19   39 1
    29   20   40 1
    30   21   22 1
    31   21   41 1
    32   22   23 ar
    33   22   32 ar
    34   23   24 ar
    35   23   42 1
    36   24   25 ar
    37   25   26 ar
    38   25   32 ar
    39   26   27 2
    40   26   28 ar
    41   28   29 ar
    42   28   43 1
    43   29   30 1
    44   29   31 ar
    45   30   44 1
    46   30   45 1
    47   31   32 ar
    48   31   46 1
@<TRIPOS>SUBSTRUCTURE
     1 GTP         1 GROUP 0 A     ****
@<TRIPOS>MOLECULE
[[[5-(2-amino-6-oxo-1,3-dihydropurin-2-ylium-9-yl)-3,4-dihydroxy-tetrahydrofuran-2-yl]methoxy-oxido-phosphoryl]oxy-oxido-phosphoryl] hydrogen phosphate
   46    48     1     0     0
SMALL
USER_CHARGES

@<TRIPOS>ATOM
      1 PG         -4.6263    3.3035    4.4942 P.3       1 GTP         1.5400
      2 O1G        -4.9564    3.5727    3.0429 O.co2     1 GTP        -0.8909
      3 O2G        -4.2363    1.9179    4.9585 O.co2     1 GTP        -0.8909
      4 O3G        -5.8687    3.8282    5.4146 O.3       1 GTP        -0.7980
      5 O3B        -3.4891    4.3659    4.9861 O.3       1 GTP        -0.7612
      6 PB         -1.9289    4.5144    4.5286 P.3       1 GTP         1.5847
      7 O1B        -1.3471    5.7476    5.1830 O.co2     1 GTP        -0.8859
      8 O2B        -1.2523    3.1661    4.6379 O.co2     1 GTP        -0.8859
      9 O3A        -2.1486    4.7947    2.9355 O.3       1 GTP        -0.7486
     10 PA         -1.0483    5.0551    1.7560 P.3       1 GTP         1.5001
     11 O1A        -1.7704    5.1510    0.4295 O.co2     1 GTP        -0.8487
     12 O2A        -0.0993    6.1426    2.2105 O.co2     1 GTP        -0.8487
     13 O5'        -0.2062    3.6557    1.8417 O.3       1 GTP        -0.5474
     14 C5'        -0.8811    2.4285    1.6206 C.3       1 GTP         0.2547
     15 C4'        -0.1994    1.3333    2.4288 C.3       1 GTP         0.0926
     16 O4'        -1.1285    0.2356    2.5840 O.3       1 GTP        -0.3593
     17 C3'         1.0324    0.7610    1.7344 C.3       1 GTP         0.0907
     18 O3'         1.9175    0.2377    2.7247 O.3       1 GTP        -0.5209
     19 C2'         0.4468   -0.3802    0.9263 C.3       1 GTP         0.0305
     20 O2'         1.3993   -1.3703    0.5961 O.3       1 GTP        -0.5978
     21 C1'        -0.6159   -0.9100    1.8769 C.3       1 GTP         0.2339
     22 N9         -1.7127   -1.6108    1.2130 N.pl3     1 GTP        -0.1765
     23 C8         -2.5534   -1.0907    0.2607 C.ar      1 GTP         0.4947
     24 N7         -3.4469   -1.9695   -0.1508 N.2       1 GTP        -0.5802
     25 C5         -3.1705   -3.1041    0.5657 C.ar      1 GTP         0.2279
     26 C6         -3.8738   -4.3568    0.4777 C.ar      1 GTP         0.6513
     27 O6         -4.8240   -4.5720   -0.2607 O.2       1 GTP        -0.5111
     28 N1         -3.3198   -5.3462    1.3780 N.pl3     1 GTP        -0.4713
     29 C2         -2.2226   -5.1203    2.2413 C.ar      1 GTP         0.5256
     30 N2         -1.7649   -6.1367    3.0659 N.pl3     1 GTP        -0.8665
     31 N3         -1.5969   -3.8585    2.2574 N.pl3     1 GTP        -0.5398
     32 C4         -2.1068   -2.8965    1.4082 C.ar      1 GTP        -0.0275
     33 HOG3       -5.8054    3.7234    6.3879 H         1 GTP         0.4161
     34 H5'        -1.9256    2.5380    1.9293 H         1 GTP         0.0348
     35 H5''       -0.8474    2.1930    0.5521 H         1 GTP         0.0348
     36 H4'         0.0403    1.7078    3.4343 H         1 GTP         0.1215
     37 H3'         1.5907    1.4859    1.1353 H         1 GTP         0.0576
     38 HO3'        2.6839   -0.1150    2.2479 H         1 GTP         0.3842
     39 H2'        -0.0017    0.0018    0.0005 H         1 GTP         0.0252
     40 HO2'        2.0953   -0.9375    0.0709 H         1 GTP         0.4224
     41 H1'        -0.1998   -1.6319    2.6178 H         1 GTP         0.0745
     42 H8         -2.4657   -0.0713   -0.0897 H         1 GTP         0.1522
     43 HN1        -3.7505   -6.2699    1.3904 H         1 GTP         0.3518
     44 HN21       -1.0023   -5.9289    3.6451 H         1 GTP         0.4761
     45 HN22       -2.2347   -6.9951    3.0150 H         1 GTP         0.4761
     46 H46        -0.8062   -3.6900    2.8760 H         1 GTP         0.5030
@<TRIPOS>BOND
     1    1    2 2
     2    1    3 1
     3    1    4 1
     4    1    5 1
     5    4   33 1
     6    5    6 1
     7    6    7 2
     8    6    8 1
     9    6    9 1
    10    9   10 1
    11   10   11 2
    12   10   12 1
    13   10   13 1
    14   13   14 1
    15   14   15 1
    16   14   34 1
    17   14   35 1
    18   15   16 1
    19   15   17 1
    20   15   36 1
    21   16   21 1
    22   17   18 1
    23   17   19 1
    24   17   37 1
    25   18   38 1
    26   19   20 1
    27   19   21 1
    28   19   39 1
    29   20   40 1
    30   21   22 1
    31   21   41 1
    32   22   23 ar
    33   22   32 ar
    34   23   24 ar
    35   23   42 1
    36   24   25 ar
    37   25   26 ar
    38   25   32 ar
    39   26   27 2
    40   26   28 ar
    41   28   29 ar
    42   28   43 1
    43   29   30 1
    44   29   31 ar
    45   30   44 1
    46   30   45 1
    47   31   32 ar
    48   31   46 1
@<TRIPOS>SUBSTRUCTURE
     1 GTP         1 GROUP 0 A     ****
@<TRIPOS>MOLECULE
[[[5-(2-amino-6-oxo-1,3-dihydropurin-2-ylium-9-yl)-3,4-dihydroxy-tetrahydrofuran-2-yl]methoxy-oxido-phosphoryl]oxy-oxido-phosphoryl] hydrogen phosphate
   46    48     1     0     0
SMALL
USER_CHARGES

@<TRIPOS>ATOM
      1 PG         -5.0918    3.4627   -3.0385 P.3       1 GTP         1.5400
      2 O1G        -6.5661    3.7140   -2.8128 O.co2     1 GTP        -0.8909
      3 O2G        -4.2221    4.4970   -3.7178 O.co2     1 GTP        -0.8909
      4 O3G        -4.9225    2.0436   -3.8282 O.3       1 GTP        -0.7980
      5 O3B        -4.4019    3.0400   -1.6211 O.3       1 GTP        -0.7612
      6 PB         -4.8201    1.8698   -0.5622 P.3       1 GTP         1.5847
      7 O1B        -6.1683    2.2124    0.0316 O.co2     1 GTP        -0.8859
      8 O2B        -4.5505    0.5193   -1.1876 O.co2     1 GTP        -0.8859
      9 O3A        -3.6558    2.1022    0.5582 O.3       1 GTP        -0.7486
     10 PA         -3.3161    3.4234    1.4576 P.3       1 GTP         1.5001
     11 O1A        -2.8773    4.5400    0.5352 O.co2     1 GTP        -0.8487
     12 O2A        -4.4325    3.6284    2.4582 O.co2     1 GTP        -0.8487
     13 O5'        -2.0401    2.8620    2.3128 O.3       1 GTP        -0.5474
     14 C5'        -0.8811    2.4285    1.6206 C.3       1 GTP         0.2547
     15 C4'        -0.1994    1.3333    2.4288 C.3       1 GTP         0.0926
     16 O4'        -1.1285    0.2356    2.5840 O.3       1 GTP        -0.3593
     17 C3'         1.0324    0.7610    1.7344 C.3       1 GTP         0.0907
     18 O3'         1.9175    0.2377    2.7247 O.3       1 GTP        -0.5209
     19 C2'         0.4468   -0.3802    0.9263 C.3       1 GTP         0.0305
     20 O2'         1.3993   -1.3703    0.5961 O.3       1 GTP        -0.5978
     21 C1'        -0.6159   -0.9100    1.8769 C.3       1 GTP         0.2339
     22 N9         -1.7127   -1.6108    1.2130 N.pl3     1 GTP        -0.1765
     23 C8         -2.5534   -1.0907    0.2607 C.ar      1 GTP         0.4947
     24 N7         -3.4469   -1.9695   -0.1508 N.2       1 GTP        -0.5802
     25 C5         -3.1705   -3.1041    0.5657 C.ar      1 GTP         0.2279
     26 C6         -3.8738   -4.3568    0.4777 C.ar      1 GTP         0.6513
     27 O6         -4.8240   -4.5720   -0.2607 O.2       1 GTP        -0.5111
     28 N1         -3.3198   -5.3462    1.3780 N.pl3     1 GTP        -0.4713
     29 C2         -2.2226   -5.1203    2.2413 C.ar      1 GTP         0.5256
     30 N2         -1.7649   -6.1367    3.0659 N.pl3     1 GTP        -0.8665
     31 N3         -1.5969   -3.8585    2.2574 N.pl3     1 GTP        -0.5398
     32 C4         -2.1068   -2.8965    1.4082 C.ar      1 GTP        -0.0275
     33 HOG3       -5.2636    1.2286   -3.4020 H         1 GTP         0.4161
     34 H5'        -1.1767    2.0502    0.6368 H         1 GTP         0.0348
     35 H5''       -0.2080    3.2814    1.4876 H         1 GTP         0.0348
     36 H4'         0.0403    1.7078    3.4343 H         1 GTP         0.1215
     37 H3'         1.5907    1.4859    1.1353 H         1 GTP         0.0576
     38 HO3'        2.1521    0.9800    3.3017 H         1 GTP         0.3842
     39 H2'        -0.0017    0.0018    0.0005 H         1 GTP         0.0252
     40 HO2'        0.9369   -2.0558    0.0825 H         1 GTP         0.4224
     41 H1'        -0.1998   -1.6319    2.6178 H         1 GTP         0.0745
     42 H8         -2.4657   -0.0713   -0.0897 H         1 GTP         0.1522
     43 HN1        -3.7505   -6.2699    1.3904 H         1 GTP         0.3518
     44 HN21       -1.0023   -5.9289    3.6451 H         1 GTP         0.4761
     45 HN22       -2.2347   -6.9951    3.0150 H         1 GTP         0.4761
     46 H46        -0.8062   -3.6900    2.8760 H         1 GTP         0.5030
@<TRIPOS>BOND
     1    1    2 2
     2    1    3 1
     3    1    4 1
     4    1    5 1
     5    4   33 1
     6    5    6 1
     7    6    7 2
     8    6    8 1
     9    6    9 1
    10    9   10 1
    11   10   11 2
    12   10   12 1
    13   10   13 1
    14   13   14 1
    15   14   15 1
    16   14   34 1
    17   14   35 1
    18   15   16 1
    19   15   17 1
    20   15   36 1
    21   16   21 1
    22   17   18 1
    23   17   19 1
    24   17   37 1
    25   18   38 1
    26   19   20 1
    27   19   21 1
    28   19   39 1
    29   20   40 1
    30   21   22 1
    31   21   41 1
    32   22   23 ar
    33   22   32 ar
    34   23   24 ar
    35   23   42 1
    36   24   25 ar
    37   25   26 ar
    38   25   32 ar
    39   26   27 2
    40   26   28 ar
    41   28   29 ar
    42   28   43 1
    43   29   30 1
    44   29   31 ar
    45   30   44 1
    46   30   45 1
    47   31   32 ar
    48   31   46 1
@<TRIPOS>SUBSTRUCTURE
     1 GTP         1 GROUP 0 A     ****
@<TRIPOS>MOLECULE
[[[5-(2-amino-6-oxo-1,3-dihydropurin-2-ylium-9-yl)-3,4-dihydroxy-tetrahydrofuran-2-yl]methoxy-oxido-phosphoryl]oxy-oxido-phosphoryl] hydrogen phosphate
   46    48     1     0     0
SMALL
USER_CHARGES

@<TRIPOS>ATOM
      1 PG         -1.7813    4.9198    8.1446 P.3       1 GTP         1.5400
      2 O1G        -1.1811    3.9653    9.1527 O.co2     1 GTP        -0.8909
      3 O2G        -1.3986    6.3830    8.1361 O.co2     1 GTP        -0.8909
      4 O3G        -3.4081    4.8098    8.2309 O.3       1 GTP        -0.7980
      5 O3B        -1.5720    4.3095    6.6454 O.3       1 GTP        -0.7612
      6 PB         -0.1989    4.0755    5.7937 P.3       1 GTP         1.5847
      7 O1B         0.4169    5.4225    5.4870 O.co2     1 GTP        -0.8859
      8 O2B         0.6014    2.9683    6.4426 O.co2     1 GTP        -0.8859
      9 O3A        -0.8402    3.4461    4.4308 O.3       1 GTP        -0.7486
     10 PA         -1.9156    4.0918    3.3837 P.3       1 GTP         1.5001
     11 O1A        -3.2320    4.2955    4.1021 O.co2     1 GTP        -0.8487
     12 O2A        -1.2462    5.2272    2.6405 O.co2     1 GTP        -0.8487
     13 O5'        -2.0401    2.8620    2.3128 O.3       1 GTP        -0.5474
     14 C5'        -0.8811    2.4285    1.6206 C.3       1 GTP         0.2547
     15 C4'        -0.1994    1.3333    2.4288 C.3       1 GTP         0.0926
     16 O4'        -1.1285    0.2356    2.5840 O.3       1 GTP        -0.3593
     17 C3'         1.0324    0.7610    1.7344 C.3       1 GTP         0.0907
     18 O3'         1.9175    0.2377    2.7247 O.3       1 GTP        -0.5209
     19 C2'         0.4468   -0.3802    0.9263 C.3       1 GTP         0.0305
     20 O2'         1.3993   -1.3703    0.5961 O.3       1 GTP        -0.5978
     21 C1'        -0.6159   -0.9100    1.8769 C.3       1 GTP         0.2339
     22 N9         -1.7127   -1.6108    1.2130 N.pl3     1 GTP        -0.1765
     23 C8         -2.5534   -1.0907    0.2607 C.ar      1 GTP         0.4947
     24 N7         -3.4469   -1.9695   -0.1508 N.2       1 GTP        -0.5802
     25 C5         -3.1705   -3.1041    0.5657 C.ar      1 GTP         0.2279
     26 C6         -3.8738   -4.3568    0.4777 C.ar      1 GTP         0.6513
     27 O6         -4.8240   -4.5720   -0.2607 O.2       1 GTP        -0.5111
     28 N1         -3.3198   -5.3462    1.3780 N.pl3     1 GTP        -0.4713
     29 C2         -2.2226   -5.1203    2.2413 C.ar      1 GTP         0.5256
     30 N2         -1.7649   -6.1367    3.0659 N.pl3     1 GTP        -0.8665
     31 N3         -1.5969   -3.8585    2.2574 N.pl3     1 GTP        -0.5398
     32 C4         -2.1068   -2.8965    1.4082 C.ar      1 GTP        -0.0275
     33 HOG3       -3.9463    5.3720    7.6338 H         1 GTP         0.4161
     34 H5'        -1.1767    2.0502    0.6368 H         1 GTP         0.0348
     35 H5''       -0.2080    3.2814    1.4876 H         1 GTP         0.0348
     36 H4'         0.0403    1.7078    3.4343 H         1 GTP         0.1215
     37 H3'         1.5907    1.4859    1.1353 H         1 GTP         0.0576
     38 HO3'        2.6839   -0.1150    2.2479 H         1 GTP         0.3842
     39 H2'        -0.0017    0.0018    0.0005 H         1 GTP         0.0252
     40 HO2'        2.0953   -0.9375    0.0709 H         1 GTP         0.4224
     41 H1'        -0.1998   -1.6319    2.6178 H         1 GTP         0.0745
     42 H8         -2.4657   -0.0713   -0.0897 H         1 GTP         0.1522
     43 HN1        -3.7505   -6.2699    1.3904 H         1 GTP         0.3518
     44 HN21       -1.0023   -5.9289    3.6451 H         1 GTP         0.4761
     45 HN22       -2.2347   -6.9951    3.0150 H         1 GTP         0.4761
     46 H46        -0.8062   -3.6900    2.8760 H         1 GTP         0.5030
@<TRIPOS>BOND
     1    1    2 2
     2    1    3 1
     3    1    4 1
     4    1    5 1
     5    4   33 1
     6    5    6 1
     7    6    7 2
     8    6    8 1
     9    6    9 1
    10    9   10 1
    11   10   11 2
    12   10   12 1
    13   10   13 1
    14   13   14 1
    15   14   15 1
    16   14   34 1
    17   14   35 1
    18   15   16 1
    19   15   17 1
    20   15   36 1
    21   16   21 1
    22   17   18 1
    23   17   19 1
    24   17   37 1
    25   18   38 1
    26   19   20 1
    27   19   21 1
    28   19   39 1
    29   20   40 1
    30   21   22 1
    31   21   41 1
    32   22   23 ar
    33   22   32 ar
    34   23   24 ar
    35   23   42 1
    36   24   25 ar
    37   25   26 ar
    38   25   32 ar
    39   26   27 2
    40   26   28 ar
    41   28   29 ar
    42   28   43 1
    43   29   30 1
    44   29   31 ar
    45   30   44 1
    46   30   45 1
    47   31   32 ar
    48   31   46 1
@<TRIPOS>SUBSTRUCTURE
     1 GTP         1 GROUP 0 A     ****
@<TRIPOS>MOLECULE
[[[5-(2-amino-6-oxo-1,3-dihydropurin-2-ylium-9-yl)-3,4-dihydroxy-tetrahydrofuran-2-yl]methoxy-oxido-phosphoryl]oxy-oxido-phosphoryl] hydrogen phosphate
   46    48     1     0     0
SMALL
USER_CHARGES

@<TRIPOS>ATOM
      1 PG         -4.1863    6.4603    0.9959 P.3       1 GTP         1.5400
      2 O1G        -3.9770    7.8966    0.5708 O.co2     1 GTP        -0.8909
      3 O2G        -3.5879    5.3199    0.2028 O.co2     1 GTP        -0.8909
      4 O3G        -5.7894    6.1952    1.1561 O.3       1 GTP        -0.7980
      5 O3B        -3.7524    6.3010    2.5612 O.3       1 GTP        -0.7612
      6 PB         -2.2801    6.4236    3.2561 P.3       1 GTP         1.5847
      7 O1B        -1.6759    7.7580    2.8797 O.co2     1 GTP        -0.8859
      8 O2B        -2.3762    5.9764    4.6977 O.co2     1 GTP        -0.8859
      9 O3A        -1.5104    5.2300    2.4511 O.3       1 GTP        -0.7486
     10 PA          0.0330    4.7083    2.5757 P.3       1 GTP         1.5001
     11 O1A         0.9597    5.8217    2.1376 O.co2     1 GTP        -0.8487
     12 O2A         0.2074    4.0270    3.9155 O.co2     1 GTP        -0.8487
     13 O5'         0.0178    3.5131    1.4595 O.3       1 GTP        -0.5474
     14 C5'        -0.8811    2.4285    1.6206 C.3       1 GTP         0.2547
     15 C4'        -0.1994    1.3333    2.4288 C.3       1 GTP         0.0926
     16 O4'        -1.1285    0.2356    2.5840 O.3       1 GTP        -0.3593
     17 C3'         1.0324    0.7610    1.7344 C.3       1 GTP         0.0907
     18 O3'         1.9175    0.2377    2.7247 O.3       1 GTP        -0.5209
     19 C2'         0.4468   -0.3802    0.9263 C.3       1 GTP         0.0305
     20 O2'         1.3993   -1.3703    0.5961 O.3       1 GTP        -0.5978
     21 C1'        -0.6159   -0.9100    1.8769 C.3       1 GTP         0.2339
     22 N9         -1.7127   -1.6108    1.2130 N.pl3     1 GTP        -0.1765
     23 C8         -1.6092   -2.7449    0.4467 C.ar      1 GTP         0.4947
     24 N7         -2.7778   -3.1416   -0.0191 N.2       1 GTP        -0.5802
     25 C5         -3.6725   -2.2253    0.4675 C.ar      1 GTP         0.2279
     26 C6         -5.0932   -2.2202    0.2371 C.ar      1 GTP         0.6513
     27 O6         -5.6933   -3.0474   -0.4337 O.2       1 GTP        -0.5111
     28 N1         -5.7390   -1.1061    0.8992 N.pl3     1 GTP        -0.4713
     29 C2         -5.0661   -0.1368    1.6789 C.ar      1 GTP         0.5256
     30 N2         -5.7774    0.8934    2.2749 N.pl3     1 GTP        -0.8665
     31 N3         -3.6705   -0.2251    1.8481 N.pl3     1 GTP        -0.5398
     32 C4         -3.0303   -1.2785    1.2262 C.ar      1 GTP        -0.0275
     33 HOG3       -6.0900    5.3023    1.4293 H         1 GTP         0.4161
     34 H5'        -1.7771    2.7849    2.1387 H         1 GTP         0.0348
     35 H5''       -1.1654    2.0541    0.6320 H         1 GTP         0.0348
     36 H4'         0.0403    1.7078    3.4343 H         1 GTP         0.1215
     37 H3'         1.5907    1.4859    1.1353 H         1 GTP         0.0576
     38 HO3'        2.1521    0.9800    3.3017 H         1 GTP         0.3842
     39 H2'        -0.0017    0.0018    0.0005 H         1 GTP         0.0252
     40 HO2'        1.7495   -1.7243    1.4324 H         1 GTP         0.4224
     41 H1'        -0.1998   -1.6319    2.6178 H         1 GTP         0.0745
     42 H8         -0.6610   -3.2324    0.2653 H         1 GTP         0.1522
     43 HN1        -6.7487   -1.0139    0.7961 H         1 GTP         0.3518
     44 HN21       -6.7460    0.9076    2.1270 H         1 GTP         0.4761
     45 HN22       -5.2643    1.5384    2.8048 H         1 GTP         0.4761
     46 H46        -3.1807    0.4690    2.4089 H         1 GTP         0.5030
@<TRIPOS>BOND
     1    1    2 2
     2    1    3 1
     3    1    4 1
     4    1    5 1
     5    4   33 1
     6    5    6 1
     7    6    7 2
     8    6    8 1
     9    6    9 1
    10    9   10 1
    11   10   11 2
    12   10   12 1
    13   10   13 1
    14   13   14 1
    15   14   15 1
    16   14   34 1
    17   14   35 1
    18   15   16 1
    19   15   17 1
    20   15   36 1
    21   16   21 1
    22   17   18 1
    23   17   19 1
    24   17   37 1
    25   18   38 1
    26   19   20 1
    27   19   21 1
    28   19   39 1
    29   20   40 1
    30   21   22 1
    31   21   41 1
    32   22   23 ar
    33   22   32 ar
    34   23   24 ar
    35   23   42 1
    36   24   25 ar
    37   25   26 ar
    38   25   32 ar
    39   26   27 2
    40   26   28 ar
    41   28   29 ar
    42   28   43 1
    43   29   30 1
    44   29   31 ar
    45   30   44 1
    46   30   45 1
    47   31   32 ar
    48   31   46 1
@<TRIPOS>SUBSTRUCTURE
     1 GTP         1 GROUP 0 A     ****
@<TRIPOS>MOLECULE
[[[5-(2-amino-6-oxo-1,3-dihydropurin-2-ylium-9-yl)-3,4-dihydroxy-tetrahydrofuran-2-yl]methoxy-oxido-phosphoryl]oxy-oxido-phosphoryl] hydrogen phosphate
   46    48     1     0     0
SMALL
USER_CHARGES

@<TRIPOS>ATOM
      1 PG         -1.4561    9.2631    3.2135 P.3       1 GTP         1.5400
      2 O1G        -2.7145    9.8355    2.6001 O.co2     1 GTP        -0.8909
      3 O2G        -1.1718    9.4175    4.6910 O.co2     1 GTP        -0.8909
      4 O3G        -0.1704    9.8227    2.3769 O.3       1 GTP        -0.7980
      5 O3B        -1.3415    7.6845    2.8149 O.3       1 GTP        -0.7612
      6 PB         -2.2801    6.4236    3.2561 P.3       1 GTP         1.5847
      7 O1B        -2.1313    6.2061    4.7454 O.co2     1 GTP        -0.8859
      8 O2B        -3.6393    6.5703    2.6092 O.co2     1 GTP        -0.8859
      9 O3A        -1.5104    5.2300    2.4511 O.3       1 GTP        -0.7486
     10 PA          0.0330    4.7083    2.5757 P.3       1 GTP         1.5001
     11 O1A         0.9597    5.8217    2.1376 O.co2     1 GTP        -0.8487
     12 O2A         0.2074    4.0270    3.9155 O.co2     1 GTP        -0.8487
     13 O5'         0.0178    3.5131    1.4595 O.3       1 GTP        -0.5474
     14 C5'        -0.8811    2.4285    1.6206 C.3       1 GTP         0.2547
     15 C4'        -0.1994    1.3333    2.4288 C.3       1 GTP         0.0926
     16 O4'        -1.1285    0.2356    2.5840 O.3       1 GTP        -0.3593
     17 C3'         1.0324    0.7610    1.7344 C.3       1 GTP         0.0907
     18 O3'         1.9175    0.2377    2.7247 O.3       1 GTP        -0.5209
     19 C2'         0.4468   -0.3802    0.9263 C.3       1 GTP         0.0305
     20 O2'         1.3993   -1.3703    0.5961 O.3       1 GTP        -0.5978
     21 C1'        -0.6159   -0.9100    1.8769 C.3       1 GTP         0.2339
     22 N9         -1.7127   -1.6108    1.2130 N.pl3     1 GTP        -0.1765
     23 C8         -1.6092   -2.7449    0.4467 C.ar      1 GTP         0.4947
     24 N7         -2.7778   -3.1416   -0.0191 N.2       1 GTP        -0.5802
     25 C5         -3.6725   -2.2253    0.4675 C.ar      1 GTP         0.2279
     26 C6         -5.0932   -2.2202    0.2371 C.ar      1 GTP         0.6513
     27 O6         -5.6933   -3.0474   -0.4337 O.2       1 GTP        -0.5111
     28 N1         -5.7390   -1.1061    0.8992 N.pl3     1 GTP        -0.4713
     29 C2         -5.0661   -0.1368    1.6789 C.ar      1 GTP         0.5256
     30 N2         -5.7774    0.8934    2.2749 N.pl3     1 GTP        -0.8665
     31 N3         -3.6705   -0.2251    1.8481 N.pl3     1 GTP        -0.5398
     32 C4         -3.0303   -1.2785    1.2262 C.ar      1 GTP        -0.0275
     33 HOG3        0.7267    9.5393    2.6547 H         1 GTP         0.4161
     34 H5'        -1.7771    2.7849    2.1387 H         1 GTP         0.0348
     35 H5''       -1.1654    2.0541    0.6320 H         1 GTP         0.0348
     36 H4'         0.0403    1.7078    3.4343 H         1 GTP         0.1215
     37 H3'         1.5907    1.4859    1.1353 H         1 GTP         0.0576
     38 HO3'        2.1521    0.9800    3.3017 H         1 GTP         0.3842
     39 H2'        -0.0017    0.0018    0.0005 H         1 GTP         0.0252
     40 HO2'        2.0953   -0.9375    0.0709 H         1 GTP         0.4224
     41 H1'        -0.1998   -1.6319    2.6178 H         1 GTP         0.0745
     42 H8         -0.6610   -3.2324    0.2653 H         1 GTP         0.1522
     43 HN1        -6.7487   -1.0139    0.7961 H         1 GTP         0.3518
     44 HN21       -5.2644    1.5388    2.8044 H         1 GTP         0.4761
     45 HN22       -6.7459    0.9078    2.1265 H         1 GTP         0.4761
     46 H46        -3.1807    0.4690    2.4089 H         1 GTP         0.5030
@<TRIPOS>BOND
     1    1    2 2
     2    1    3 1
     3    1    4 1
     4    1    5 1
     5    4   33 1
     6    5    6 1
     7    6    7 2
     8    6    8 1
     9    6    9 1
    10    9   10 1
    11   10   11 2
    12   10   12 1
    13   10   13 1
    14   13   14 1
    15   14   15 1
    16   14   34 1
    17   14   35 1
    18   15   16 1
    19   15   17 1
    20   15   36 1
    21   16   21 1
    22   17   18 1
    23   17   19 1
    24   17   37 1
    25   18   38 1
    26   19   20 1
    27   19   21 1
    28   19   39 1
    29   20   40 1
    30   21   22 1
    31   21   41 1
    32   22   23 ar
    33   22   32 ar
    34   23   24 ar
    35   23   42 1
    36   24   25 ar
    37   25   26 ar
    38   25   32 ar
    39   26   27 2
    40   26   28 ar
    41   28   29 ar
    42   28   43 1
    43   29   30 1
    44   29   31 ar
    45   30   44 1
    46   30   45 1
    47   31   32 ar
    48   31   46 1
@<TRIPOS>SUBSTRUCTURE
     1 GTP         1 GROUP 0 A     ****
@<TRIPOS>MOLECULE
[[[5-(2-amino-6-oxo-1,3-dihydropurin-2-ylium-9-yl)-3,4-dihydroxy-tetrahydrofuran-2-yl]methoxy-oxido-phosphoryl]oxy-oxido-phosphoryl] hydrogen phosphate
   46    48     1     0     0
SMALL
USER_CHARGES

@<TRIPOS>ATOM
      1 PG         -1.4587    5.6568    7.0751 P.3       1 GTP         1.5400
      2 O1G        -0.5347    6.7746    7.5043 O.co2     1 GTP        -0.8909
      3 O2G        -2.9378    5.9038    6.8773 O.co2     1 GTP        -0.8909
      4 O3G        -1.2756    4.4066    8.1092 O.3       1 GTP        -0.7980
      5 O3B        -0.8551    4.9554    5.7307 O.3       1 GTP        -0.7612
      6 PB          0.6299    4.3378    5.4500 P.3       1 GTP         1.5847
      7 O1B         1.6386    5.4641    5.4887 O.co2     1 GTP        -0.8859
      8 O2B         0.8086    3.0860    6.2798 O.co2     1 GTP        -0.8859
      9 O3A         0.4215    3.8453    3.9076 O.3       1 GTP        -0.7486
     10 PA          0.0330    4.7083    2.5757 P.3       1 GTP         1.5001
     11 O1A        -1.3584    5.2766    2.7529 O.co2     1 GTP        -0.8487
     12 O2A         1.2023    5.5996    2.2180 O.co2     1 GTP        -0.8487
     13 O5'         0.0178    3.5131    1.4595 O.3       1 GTP        -0.5474
     14 C5'        -0.8811    2.4285    1.6206 C.3       1 GTP         0.2547
     15 C4'        -0.1994    1.3333    2.4288 C.3       1 GTP         0.0926
     16 O4'        -1.1285    0.2356    2.5840 O.3       1 GTP        -0.3593
     17 C3'         1.0324    0.7610    1.7344 C.3       1 GTP         0.0907
     18 O3'         1.9175    0.2377    2.7247 O.3       1 GTP        -0.5209
     19 C2'         0.4468   -0.3802    0.9263 C.3       1 GTP         0.0305
     20 O2'         1.3993   -1.3703    0.5961 O.3       1 GTP        -0.5978
     21 C1'        -0.6159   -0.9100    1.8769 C.3       1 GTP         0.2339
     22 N9         -1.7127   -1.6108    1.2130 N.pl3     1 GTP        -0.1765
     23 C8         -2.5534   -1.0907    0.2607 C.ar      1 GTP         0.4947
     24 N7         -3.4469   -1.9695   -0.1508 N.2       1 GTP        -0.5802
     25 C5         -3.1705   -3.1041    0.5657 C.ar      1 GTP         0.2279
     26 C6         -3.8738   -4.3568    0.4777 C.ar      1 GTP         0.6513
     27 O6         -4.8240   -4.5720   -0.2607 O.2       1 GTP        -0.5111
     28 N1         -3.3198   -5.3462    1.3780 N.pl3     1 GTP        -0.4713
     29 C2         -2.2226   -5.1203    2.2413 C.ar      1 GTP         0.5256
     30 N2         -1.7649   -6.1367    3.0659 N.pl3     1 GTP        -0.8665
     31 N3         -1.5969   -3.8585    2.2574 N.pl3     1 GTP        -0.5398
     32 C4         -2.1068   -2.8965    1.4082 C.ar      1 GTP        -0.0275
     33 HOG3       -1.8115    3.5980    7.9636 H         1 GTP         0.4161
     34 H5'        -1.7771    2.7849    2.1387 H         1 GTP         0.0348
     35 H5''       -1.1654    2.0541    0.6320 H         1 GTP         0.0348
     36 H4'         0.0403    1.7078    3.4343 H         1 GTP         0.1215
     37 H3'         1.5907    1.4859    1.1353 H         1 GTP         0.0576
     38 HO3'        2.1521    0.9800    3.3017 H         1 GTP         0.3842
     39 H2'        -0.0017    0.0018    0.0005 H         1 GTP         0.0252
     40 HO2'        1.7495   -1.7243    1.4324 H         1 GTP         0.4224
     41 H1'        -0.1998   -1.6319    2.6178 H         1 GTP         0.0745
     42 H8         -2.4657   -0.0713   -0.0897 H         1 GTP         0.1522
     43 HN1        -3.7505   -6.2699    1.3904 H         1 GTP         0.3518
     44 HN21       -2.2343   -6.9953    3.0147 H         1 GTP         0.4761
     45 HN22       -1.0020   -5.9290    3.6447 H         1 GTP         0.4761
     46 H46        -0.8062   -3.6900    2.8760 H         1 GTP         0.5030
@<TRIPOS>BOND
     1    1    2 2
     2    1    3 1
     3    1    4 1
     4    1    5 1
     5    4   33 1
     6    5    6 1
     7    6    7 2
     8    6    8 1
     9    6    9 1
    10    9   10 1
    11   10   11 2
    12   10   12 1
    13   10   13 1
    14   13   14 1
    15   14   15 1
    16   14   34 1
    17   14   35 1
    18   15   16 1
    19   15   17 1
    20   15   36 1
    21   16   21 1
    22   17   18 1
    23   17   19 1
    24   17   37 1
    25   18   38 1
    26   19   20 1
    27   19   21 1
    28   19   39 1
    29   20   40 1
    30   21   22 1
    31   21   41 1
    32   22   23 ar
    33   22   32 ar
    34   23   24 ar
    35   23   42 1
    36   24   25 ar
    37   25   26 ar
    38   25   32 ar
    39   26   27 2
    40   26   28 ar
    41   28   29 ar
    42   28   43 1
    43   29   30 1
    44   29   31 ar
    45   30   44 1
    46   30   45 1
    47   31   32 ar
    48   31   46 1
@<TRIPOS>SUBSTRUCTURE
     1 GTP         1 GROUP 0 A     ****
@<TRIPOS>MOLECULE
[[[5-(2-amino-6-oxo-1,3-dihydropurin-2-ylium-9-yl)-3,4-dihydroxy-tetrahydrofuran-2-yl]methoxy-oxido-phosphoryl]oxy-oxido-phosphoryl] hydrogen phosphate
   46    48     1     0     0
SMALL
USER_CHARGES

@<TRIPOS>ATOM
      1 PG          3.0033   -0.3816   -2.7160 P.3       1 GTP         1.5400
      2 O1G         4.2824    0.2390   -3.2318 O.co2     1 GTP        -0.8909
      3 O2G         3.0125   -1.7370   -2.0446 O.co2     1 GTP        -0.8909
      4 O3G         1.9148   -0.4132   -3.9326 O.3       1 GTP        -0.7980
      5 O3B         2.2503    0.6874   -1.7392 O.3       1 GTP        -0.7612
      6 PB          1.8242    2.2386   -2.0178 P.3       1 GTP         1.5847
      7 O1B         3.0805    3.0630   -2.1905 O.co2     1 GTP        -0.8859
      8 O2B         0.7109    2.2682   -3.0411 O.co2     1 GTP        -0.8859
      9 O3A         1.1387    2.5846   -0.5772 O.3       1 GTP        -0.7486
     10 PA          0.4528    3.9705   -0.0493 P.3       1 GTP         1.5001
     11 O1A         1.5160    5.0455    0.0159 O.co2     1 GTP        -0.8487
     12 O2A        -0.8379    4.1916   -0.8075 O.co2     1 GTP        -0.8487
     13 O5'         0.0178    3.5131    1.4595 O.3       1 GTP        -0.5474
     14 C5'        -0.8811    2.4285    1.6206 C.3       1 GTP         0.2547
     15 C4'        -0.1994    1.3333    2.4288 C.3       1 GTP         0.0926
     16 O4'        -1.1285    0.2356    2.5840 O.3       1 GTP        -0.3593
     17 C3'         1.0324    0.7610    1.7344 C.3       1 GTP         0.0907
     18 O3'         1.9175    0.2377    2.7247 O.3       1 GTP        -0.5209
     19 C2'         0.4468   -0.3802    0.9263 C.3       1 GTP         0.0305
     20 O2'         1.3993   -1.3703    0.5961 O.3       1 GTP        -0.5978
     21 C1'        -0.6159   -0.9100    1.8769 C.3       1 GTP         0.2339
     22 N9         -1.7127   -1.6108    1.2130 N.pl3     1 GTP        -0.1765
     23 C8         -2.8692   -1.0463    0.7355 C.ar      1 GTP         0.4947
     24 N7         -3.6707   -1.9381    0.1856 N.2       1 GTP        -0.5802
     25 C5         -3.0027   -3.1275    0.3134 C.ar      1 GTP         0.2279
     26 C6         -3.4659   -4.4142   -0.1355 C.ar      1 GTP         0.6513
     27 O6         -4.5328   -4.6133   -0.6980 O.2       1 GTP        -0.5111
     28 N1         -2.5102   -5.4606    0.1612 N.pl3     1 GTP        -0.4713
     29 C2         -1.2711   -5.2547    0.8113 C.ar      1 GTP         0.5256
     30 N2         -0.4228   -6.3256    1.0482 N.pl3     1 GTP        -0.8665
     31 N3         -0.9033   -3.9563    1.2146 N.pl3     1 GTP        -0.5398
     32 C4         -1.7979   -2.9400    0.9438 C.ar      1 GTP        -0.0275
     33 HOG3        1.0267   -0.7901   -3.7549 H         1 GTP         0.4161
     34 H5'        -1.7771    2.7849    2.1387 H         1 GTP         0.0348
     35 H5''       -1.1654    2.0541    0.6320 H         1 GTP         0.0348
     36 H4'         0.0403    1.7078    3.4343 H         1 GTP         0.1215
     37 H3'         1.5907    1.4859    1.1353 H         1 GTP         0.0576
     38 HO3'        2.6839   -0.1150    2.2479 H         1 GTP         0.3842
     39 H2'        -0.0017    0.0018    0.0005 H         1 GTP         0.0252
     40 HO2'        2.0953   -0.9375    0.0709 H         1 GTP         0.4224
     41 H1'        -0.1998   -1.6319    2.6178 H         1 GTP         0.0745
     42 H8         -3.0691    0.0134    0.8177 H         1 GTP         0.1522
     43 HN1        -2.7468   -6.4119   -0.1177 H         1 GTP         0.3518
     44 HN21        0.4233   -6.1297    1.5018 H         1 GTP         0.4761
     45 HN22       -0.7261   -7.2071    0.7466 H         1 GTP         0.4761
     46 H46        -0.0124   -3.8015    1.6821 H         1 GTP         0.5030
@<TRIPOS>BOND
     1    1    2 2
     2    1    3 1
     3    1    4 1
     4    1    5 1
     5    4   33 1
     6    5    6 1
     7    6    7 2
     8    6    8 1
     9    6    9 1
    10    9   10 1
    11   10   11 2
    12   10   12 1
    13   10   13 1
    14   13   14 1
    15   14   15 1
    16   14   34 1
    17   14   35 1
    18   15   16 1
    19   15   17 1
    20   15   36 1
    21   16   21 1
    22   17   18 1
    23   17   19 1
    24   17   37 1
    25   18   38 1
    26   19   20 1
    27   19   21 1
    28   19   39 1
    29   20   40 1
    30   21   22 1
    31   21   41 1
    32   22   23 ar
    33   22   32 ar
    34   23   24 ar
    35   23   42 1
    36   24   25 ar
    37   25   26 ar
    38   25   32 ar
    39   26   27 2
    40   26   28 ar
    41   28   29 ar
    42   28   43 1
    43   29   30 1
    44   29   31 ar
    45   30   44 1
    46   30   45 1
    47   31   32 ar
    48   31   46 1
@<TRIPOS>SUBSTRUCTURE
     1 GTP         1 GROUP 0 A     ****
@<TRIPOS>MOLECULE
[[[5-(2-amino-6-oxo-1,3-dihydropurin-2-ylium-9-yl)-3,4-dihydroxy-tetrahydrofuran-2-yl]methoxy-oxido-phosphoryl]oxy-oxido-phosphoryl] hydrogen phosphate
   46    48     1     0     0
SMALL
USER_CHARGES

@<TRIPOS>ATOM
      1 PG         -5.1102    7.1661    2.8289 P.3       1 GTP         1.5400
      2 O1G        -4.7896    8.6384    2.6980 O.co2     1 GTP        -0.8909
      3 O2G        -6.2482    6.5461    2.0491 O.co2     1 GTP        -0.8909
      4 O3G        -5.3160    6.8188    4.4110 O.3       1 GTP        -0.7980
      5 O3B        -3.7524    6.3010    2.5612 O.3       1 GTP        -0.7612
      6 PB         -2.2801    6.4236    3.2561 P.3       1 GTP         1.5847
      7 O1B        -1.6759    7.7580    2.8797 O.co2     1 GTP        -0.8859
      8 O2B        -2.3762    5.9764    4.6977 O.co2     1 GTP        -0.8859
      9 O3A        -1.5104    5.2300    2.4511 O.3       1 GTP        -0.7486
     10 PA          0.0330    4.7083    2.5757 P.3       1 GTP         1.5001
     11 O1A         0.9597    5.8217    2.1376 O.co2     1 GTP        -0.8487
     12 O2A         0.2074    4.0270    3.9155 O.co2     1 GTP        -0.8487
     13 O5'         0.0178    3.5131    1.4595 O.3       1 GTP        -0.5474
     14 C5'        -0.8811    2.4285    1.6206 C.3       1 GTP         0.2547
     15 C4'        -0.1994    1.3333    2.4288 C.3       1 GTP         0.0926
     16 O4'        -1.1285    0.2356    2.5840 O.3       1 GTP        -0.3593
     17 C3'         1.0324    0.7610    1.7344 C.3       1 GTP         0.0907
     18 O3'         1.9175    0.2377    2.7247 O.3       1 GTP        -0.5209
     19 C2'         0.4468   -0.3802    0.9263 C.3       1 GTP         0.0305
     20 O2'         1.3993   -1.3703    0.5961 O.3       1 GTP        -0.5978
     21 C1'        -0.6159   -0.9100    1.8769 C.3       1 GTP         0.2339
     22 N9         -1.7127   -1.6108    1.2130 N.pl3     1 GTP        -0.1765
     23 C8         -1.7789   -2.9564    0.9503 C.ar      1 GTP         0.4947
     24 N7         -2.8980   -3.2916    0.3377 N.2       1 GTP        -0.5802
     25 C5         -3.5824   -2.1127    0.2000 C.ar      1 GTP         0.2279
     26 C6         -4.8740   -1.9471   -0.4133 C.ar      1 GTP         0.6513
     27 O6         -5.5366   -2.8529   -0.8978 O.2       1 GTP        -0.5111
     28 N1         -5.3036   -0.5645   -0.3916 N.pl3     1 GTP        -0.4713
     29 C2         -4.5545    0.4997    0.1619 C.ar      1 GTP         0.5256
     30 N2         -5.0561    1.7921    0.1348 N.pl3     1 GTP        -0.8665
     31 N3         -3.2977    0.2393    0.7420 N.pl3     1 GTP        -0.5398
     32 C4         -2.8643   -1.0716    0.7336 C.ar      1 GTP        -0.0275
     33 HOG3       -5.5313    5.8953    4.6621 H         1 GTP         0.4161
     34 H5'        -1.7771    2.7849    2.1387 H         1 GTP         0.0348
     35 H5''       -1.1654    2.0541    0.6320 H         1 GTP         0.0348
     36 H4'         0.0403    1.7078    3.4343 H         1 GTP         0.1215
     37 H3'         1.5907    1.4859    1.1353 H         1 GTP         0.0576
     38 HO3'        2.6839   -0.1150    2.2479 H         1 GTP         0.3842
     39 H2'        -0.0017    0.0018    0.0005 H         1 GTP         0.0252
     40 HO2'        2.0953   -0.9375    0.0709 H         1 GTP         0.4224
     41 H1'        -0.1998   -1.6319    2.6178 H         1 GTP         0.0745
     42 H8         -0.9852   -3.6367    1.2276 H         1 GTP         0.1522
     43 HN1        -6.2089   -0.3428   -0.8039 H         1 GTP         0.3518
     44 HN21       -5.9354    1.9184   -0.2788 H         1 GTP         0.4761
     45 HN22       -4.4982    2.4931    0.5316 H         1 GTP         0.4761
     46 H46        -2.7541    1.0010    1.1428 H         1 GTP         0.5030
@<TRIPOS>BOND
     1    1    2 2
     2    1    3 1
     3    1    4 1
     4    1    5 1
     5    4   33 1
     6    5    6 1
     7    6    7 2
     8    6    8 1
     9    6    9 1
    10    9   10 1
    11   10   11 2
    12   10   12 1
    13   10   13 1
    14   13   14 1
    15   14   15 1
    16   14   34 1
    17   14   35 1
    18   15   16 1
    19   15   17 1
    20   15   36 1
    21   16   21 1
    22   17   18 1
    23   17   19 1
    24   17   37 1
    25   18   38 1
    26   19   20 1
    27   19   21 1
    28   19   39 1
    29   20   40 1
    30   21   22 1
    31   21   41 1
    32   22   23 ar
    33   22   32 ar
    34   23   24 ar
    35   23   42 1
    36   24   25 ar
    37   25   26 ar
    38   25   32 ar
    39   26   27 2
    40   26   28 ar
    41   28   29 ar
    42   28   43 1
    43   29   30 1
    44   29   31 ar
    45   30   44 1
    46   30   45 1
    47   31   32 ar
    48   31   46 1
@<TRIPOS>SUBSTRUCTURE
     1 GTP         1 GROUP 0 A     ****
@<TRIPOS>MOLECULE
[[[5-(2-amino-6-oxo-1,3-dihydropurin-2-ylium-9-yl)-3,4-dihydroxy-tetrahydrofuran-2-yl]methoxy-oxido-phosphoryl]oxy-oxido-phosphoryl] hydrogen phosphate
   46    48     1     0     0
SMALL
USER_CHARGES

@<TRIPOS>ATOM
      1 PG          7.2658    5.4616   -0.6281 P.3       1 GTP         1.5400
      2 O1G         6.4867    4.2989   -1.2013 O.co2     1 GTP        -0.8909
      3 O2G         6.6278    6.8244   -0.4744 O.co2     1 GTP        -0.8909
      4 O3G         8.6486    5.6297   -1.4797 O.3       1 GTP        -0.7980
      5 O3B         7.9104    5.0150    0.8033 O.3       1 GTP        -0.7612
      6 PB          7.1737    4.6506    2.2140 P.3       1 GTP         1.5847
      7 O1B         8.2175    4.1643    3.1946 O.co2     1 GTP        -0.8859
      8 O2B         6.2107    5.7616    2.5689 O.co2     1 GTP        -0.8859
      9 O3A         6.2638    3.3900    1.7164 O.3       1 GTP        -0.7486
     10 PA          5.2202    2.4549    2.5568 P.3       1 GTP         1.5001
     11 O1A         5.9920    1.6905    3.6105 O.co2     1 GTP        -0.8487
     12 O2A         4.0108    3.2873    2.9229 O.co2     1 GTP        -0.8487
     13 O5'         4.7294    1.4427    1.3696 O.3       1 GTP        -0.5474
     14 C5'         4.0922    1.9801    0.2227 C.3       1 GTP         0.2547
     15 C4'         2.5944    2.0310    0.4653 C.3       1 GTP         0.0926
     16 O4'         1.9327    2.5740   -0.6889 O.3       1 GTP        -0.3593
     17 C3'         1.9685    0.6634    0.6767 C.3       1 GTP         0.0907
     18 O3'         2.1425    0.1975    1.9977 O.3       1 GTP        -0.5209
     19 C2'         0.5176    0.9128    0.3099 C.3       1 GTP         0.0305
     20 O2'        -0.2103    1.4454    1.4152 O.3       1 GTP        -0.5978
     21 C1'         0.6219    1.9765   -0.7844 C.3       1 GTP         0.2339
     22 N9          0.4237    1.4496   -2.1357 N.pl3     1 GTP        -0.1765
     23 C8          1.3988    0.9691   -2.9736 C.ar      1 GTP         0.4947
     24 N7          0.9092    0.5634   -4.1293 N.2       1 GTP        -0.5802
     25 C5         -0.4383    0.7914   -4.0325 C.ar      1 GTP         0.2279
     26 C6         -1.4217    0.5138   -5.0461 C.ar      1 GTP         0.6513
     27 O6         -1.1759    0.0306   -6.1417 O.2       1 GTP        -0.5111
     28 N1         -2.7543    0.8794   -4.6134 N.pl3     1 GTP        -0.4713
     29 C2         -3.0626    1.4402   -3.3523 C.ar      1 GTP         0.5256
     30 N2         -4.3747    1.7544   -3.0321 N.pl3     1 GTP        -0.8665
     31 N3         -2.0304    1.6759   -2.4233 N.pl3     1 GTP        -0.5398
     32 C4         -0.7497    1.3366   -2.8118 C.ar      1 GTP        -0.0275
     33 HOG3        9.2680    6.3474   -1.2277 H         1 GTP         0.4161
     34 H5'         4.4843    2.9854    0.0380 H         1 GTP         0.0348
     35 H5''        4.3191    1.3446   -0.6392 H         1 GTP         0.0348
     36 H4'         2.3752    2.7029    1.3156 H         1 GTP         0.1215
     37 H3'         2.4336   -0.1217   -0.0015 H         1 GTP         0.0576
     38 HO3'        3.0987    0.1465    2.1461 H         1 GTP         0.3842
     39 H2'         0.0316    0.0155   -0.0339 H         1 GTP         0.0252
     40 HO2'       -0.1608    0.7921    2.1351 H         1 GTP         0.4224
     41 H1'        -0.1474    2.7798   -0.6651 H         1 GTP         0.0745
     42 H8          2.4413    0.9409   -2.6872 H         1 GTP         0.1522
     43 HN1        -3.5236    0.7214   -5.2629 H         1 GTP         0.3518
     44 HN21       -4.5350    2.1409   -2.1461 H         1 GTP         0.4761
     45 HN22       -5.0542    1.5695   -3.7134 H         1 GTP         0.4761
     46 H46        -2.2462    2.0786   -1.5136 H         1 GTP         0.5030
@<TRIPOS>BOND
     1    1    2 2
     2    1    3 1
     3    1    4 1
     4    1    5 1
     5    4   33 1
     6    5    6 1
     7    6    7 2
     8    6    8 1
     9    6    9 1
    10    9   10 1
    11   10   11 2
    12   10   12 1
    13   10   13 1
    14   13   14 1
    15   14   15 1
    16   14   34 1
    17   14   35 1
    18   15   16 1
    19   15   17 1
    20   15   36 1
    21   16   21 1
    22   17   18 1
    23   17   19 1
    24   17   37 1
    25   18   38 1
    26   19   20 1
    27   19   21 1
    28   19   39 1
    29   20   40 1
    30   21   22 1
    31   21   41 1
    32   22   23 ar
    33   22   32 ar
    34   23   24 ar
    35   23   42 1
    36   24   25 ar
    37   25   26 ar
    38   25   32 ar
    39   26   27 2
    40   26   28 ar
    41   28   29 ar
    42   28   43 1
    43   29   30 1
    44   29   31 ar
    45   30   44 1
    46   30   45 1
    47   31   32 ar
    48   31   46 1
@<TRIPOS>SUBSTRUCTURE
     1 GTP         1 GROUP 0 A     ****
@<TRIPOS>MOLECULE
[[[5-(2-amino-6-oxo-1,3-dihydropurin-2-ylium-9-yl)-3,4-dihydroxy-tetrahydrofuran-2-yl]methoxy-oxido-phosphoryl]oxy-oxido-phosphoryl] hydrogen phosphate
   46    48     1     0     0
SMALL
USER_CHARGES

@<TRIPOS>ATOM
      1 PG         -2.6312    6.4972    6.1912 P.3       1 GTP         1.5400
      2 O1G        -1.8709    7.7768    6.4594 O.co2     1 GTP        -0.8909
      3 O2G        -4.1433    6.4712    6.2187 O.co2     1 GTP        -0.8909
      4 O3G        -2.0743    5.3416    7.2013 O.3       1 GTP        -0.7980
      5 O3B        -2.1168    5.8597    4.7795 O.3       1 GTP        -0.7612
      6 PB         -2.2801    6.4236    3.2561 P.3       1 GTP         1.5847
      7 O1B        -3.7476    6.4148    2.8905 O.co2     1 GTP        -0.8859
      8 O2B        -1.4317    7.6655    3.0962 O.co2     1 GTP        -0.8859
      9 O3A        -1.5104    5.2300    2.4511 O.3       1 GTP        -0.7486
     10 PA          0.0330    4.7083    2.5757 P.3       1 GTP         1.5001
     11 O1A         0.9597    5.8217    2.1376 O.co2     1 GTP        -0.8487
     12 O2A         0.2074    4.0270    3.9155 O.co2     1 GTP        -0.8487
     13 O5'         0.0178    3.5131    1.4595 O.3       1 GTP        -0.5474
     14 C5'        -0.8811    2.4285    1.6206 C.3       1 GTP         0.2547
     15 C4'        -0.1994    1.3333    2.4288 C.3       1 GTP         0.0926
     16 O4'        -1.1285    0.2356    2.5840 O.3       1 GTP        -0.3593
     17 C3'         1.0324    0.7610    1.7344 C.3       1 GTP         0.0907
     18 O3'         1.9175    0.2377    2.7247 O.3       1 GTP        -0.5209
     19 C2'         0.4468   -0.3802    0.9263 C.3       1 GTP         0.0305
     20 O2'         1.3993   -1.3703    0.5961 O.3       1 GTP        -0.5978
     21 C1'        -0.6159   -0.9100    1.8769 C.3       1 GTP         0.2339
     22 N9         -1.7127   -1.6108    1.2130 N.pl3     1 GTP        -0.1765
     23 C8         -1.7789   -2.9564    0.9503 C.ar      1 GTP         0.4947
     24 N7         -2.8980   -3.2916    0.3377 N.2       1 GTP        -0.5802
     25 C5         -3.5824   -2.1127    0.2000 C.ar      1 GTP         0.2279
     26 C6         -4.8740   -1.9471   -0.4133 C.ar      1 GTP         0.6513
     27 O6         -5.5366   -2.8529   -0.8978 O.2       1 GTP        -0.5111
     28 N1         -5.3036   -0.5645   -0.3916 N.pl3     1 GTP        -0.4713
     29 C2         -4.5545    0.4997    0.1619 C.ar      1 GTP         0.5256
     30 N2         -5.0561    1.7921    0.1348 N.pl3     1 GTP        -0.8665
     31 N3         -3.2977    0.2393    0.7420 N.pl3     1 GTP        -0.5398
     32 C4         -2.8643   -1.0716    0.7336 C.ar      1 GTP        -0.0275
     33 HOG3       -2.4711    4.4459    7.1499 H         1 GTP         0.4161
     34 H5'        -1.7771    2.7849    2.1387 H         1 GTP         0.0348
     35 H5''       -1.1654    2.0541    0.6320 H         1 GTP         0.0348
     36 H4'         0.0403    1.7078    3.4343 H         1 GTP         0.1215
     37 H3'         1.5907    1.4859    1.1353 H         1 GTP         0.0576
     38 HO3'        2.1521    0.9800    3.3017 H         1 GTP         0.3842
     39 H2'        -0.0017    0.0018    0.0005 H         1 GTP         0.0252
     40 HO2'        0.9369   -2.0558    0.0825 H         1 GTP         0.4224
     41 H1'        -0.1998   -1.6319    2.6178 H         1 GTP         0.0745
     42 H8         -0.9852   -3.6367    1.2276 H         1 GTP         0.1522
     43 HN1        -6.2089   -0.3428   -0.8039 H         1 GTP         0.3518
     44 HN21       -4.4981    2.4933    0.5311 H         1 GTP         0.4761
     45 HN22       -5.9352    1.9183   -0.2793 H         1 GTP         0.4761
     46 H46        -2.7541    1.0010    1.1428 H         1 GTP         0.5030
@<TRIPOS>BOND
     1    1    2 2
     2    1    3 1
     3    1    4 1
     4    1    5 1
     5    4   33 1
     6    5    6 1
     7    6    7 2
     8    6    8 1
     9    6    9 1
    10    9   10 1
    11   10   11 2
    12   10   12 1
    13   10   13 1
    14   13   14 1
    15   14   15 1
    16   14   34 1
    17   14   35 1
    18   15   16 1
    19   15   17 1
    20   15   36 1
    21   16   21 1
    22   17   18 1
    23   17   19 1
    24   17   37 1
    25   18   38 1
    26   19   20 1
    27   19   21 1
    28   19   39 1
    29   20   40 1
    30   21   22 1
    31   21   41 1
    32   22   23 ar
    33   22   32 ar
    34   23   24 ar
    35   23   42 1
    36   24   25 ar
    37   25   26 ar
    38   25   32 ar
    39   26   27 2
    40   26   28 ar
    41   28   29 ar
    42   28   43 1
    43   29   30 1
    44   29   31 ar
    45   30   44 1
    46   30   45 1
    47   31   32 ar
    48   31   46 1
@<TRIPOS>SUBSTRUCTURE
     1 GTP         1 GROUP 0 A     ****
@<TRIPOS>MOLECULE
[[[5-(2-amino-6-oxo-1,3-dihydropurin-2-ylium-9-yl)-3,4-dihydroxy-tetrahydrofuran-2-yl]methoxy-oxido-phosphoryl]oxy-oxido-phosphoryl] hydrogen phosphate
   46    48     1     0     0
SMALL
USER_CHARGES

@<TRIPOS>ATOM
      1 PG         -5.1102    7.1661    2.8289 P.3       1 GTP         1.5400
      2 O1G        -6.1540    6.7726    1.8076 O.co2     1 GTP        -0.8909
      3 O2G        -5.4228    7.1424    4.3086 O.co2     1 GTP        -0.8909
      4 O3G        -4.5395    8.6465    2.4433 O.3       1 GTP        -0.7980
      5 O3B        -3.7524    6.3010    2.5612 O.3       1 GTP        -0.7612
      6 PB         -2.2801    6.4236    3.2561 P.3       1 GTP         1.5847
      7 O1B        -1.6759    7.7580    2.8797 O.co2     1 GTP        -0.8859
      8 O2B        -2.3762    5.9764    4.6977 O.co2     1 GTP        -0.8859
      9 O3A        -1.5104    5.2300    2.4511 O.3       1 GTP        -0.7486
     10 PA          0.0330    4.7083    2.5757 P.3       1 GTP         1.5001
     11 O1A         0.9597    5.8217    2.1376 O.co2     1 GTP        -0.8487
     12 O2A         0.2074    4.0270    3.9155 O.co2     1 GTP        -0.8487
     13 O5'         0.0178    3.5131    1.4595 O.3       1 GTP        -0.5474
     14 C5'        -0.8811    2.4285    1.6206 C.3       1 GTP         0.2547
     15 C4'        -0.1994    1.3333    2.4288 C.3       1 GTP         0.0926
     16 O4'        -1.1285    0.2356    2.5840 O.3       1 GTP        -0.3593
     17 C3'         1.0324    0.7610    1.7344 C.3       1 GTP         0.0907
     18 O3'         1.9175    0.2377    2.7247 O.3       1 GTP        -0.5209
     19 C2'         0.4468   -0.3802    0.9263 C.3       1 GTP         0.0305
     20 O2'         1.3993   -1.3703    0.5961 O.3       1 GTP        -0.5978
     21 C1'        -0.6159   -0.9100    1.8769 C.3       1 GTP         0.2339
     22 N9         -1.7127   -1.6108    1.2130 N.pl3     1 GTP        -0.1765
     23 C8         -1.6092   -2.7449    0.4467 C.ar      1 GTP         0.4947
     24 N7         -2.7778   -3.1416   -0.0191 N.2       1 GTP        -0.5802
     25 C5         -3.6725   -2.2253    0.4675 C.ar      1 GTP         0.2279
     26 C6         -5.0932   -2.2202    0.2371 C.ar      1 GTP         0.6513
     27 O6         -5.6933   -3.0474   -0.4337 O.2       1 GTP        -0.5111
     28 N1         -5.7390   -1.1061    0.8992 N.pl3     1 GTP        -0.4713
     29 C2         -5.0661   -0.1368    1.6789 C.ar      1 GTP         0.5256
     30 N2         -5.7774    0.8934    2.2749 N.pl3     1 GTP        -0.8665
     31 N3         -3.6705   -0.2251    1.8481 N.pl3     1 GTP        -0.5398
     32 C4         -3.0303   -1.2785    1.2262 C.ar      1 GTP        -0.0275
     33 HOG3       -3.8494    9.0446    3.0157 H         1 GTP         0.4161
     34 H5'        -1.7771    2.7849    2.1387 H         1 GTP         0.0348
     35 H5''       -1.1654    2.0541    0.6320 H         1 GTP         0.0348
     36 H4'         0.0403    1.7078    3.4343 H         1 GTP         0.1215
     37 H3'         1.5907    1.4859    1.1353 H         1 GTP         0.0576
     38 HO3'        2.1521    0.9800    3.3017 H         1 GTP         0.3842
     39 H2'        -0.0017    0.0018    0.0005 H         1 GTP         0.0252
     40 HO2'        2.0953   -0.9375    0.0709 H         1 GTP         0.4224
     41 H1'        -0.1998   -1.6319    2.6178 H         1 GTP         0.0745
     42 H8         -0.6610   -3.2324    0.2653 H         1 GTP         0.1522
     43 HN1        -6.7487   -1.0139    0.7961 H         1 GTP         0.3518
     44 HN21       -5.2644    1.5388    2.8044 H         1 GTP         0.4761
     45 HN22       -6.7459    0.9078    2.1265 H         1 GTP         0.4761
     46 H46        -3.1807    0.4690    2.4089 H         1 GTP         0.5030
@<TRIPOS>BOND
     1    1    2 2
     2    1    3 1
     3    1    4 1
     4    1    5 1
     5    4   33 1
     6    5    6 1
     7    6    7 2
     8    6    8 1
     9    6    9 1
    10    9   10 1
    11   10   11 2
    12   10   12 1
    13   10   13 1
    14   13   14 1
    15   14   15 1
    16   14   34 1
    17   14   35 1
    18   15   16 1
    19   15   17 1
    20   15   36 1
    21   16   21 1
    22   17   18 1
    23   17   19 1
    24   17   37 1
    25   18   38 1
    26   19   20 1
    27   19   21 1
    28   19   39 1
    29   20   40 1
    30   21   22 1
    31   21   41 1
    32   22   23 ar
    33   22   32 ar
    34   23   24 ar
    35   23   42 1
    36   24   25 ar
    37   25   26 ar
    38   25   32 ar
    39   26   27 2
    40   26   28 ar
    41   28   29 ar
    42   28   43 1
    43   29   30 1
    44   29   31 ar
    45   30   44 1
    46   30   45 1
    47   31   32 ar
    48   31   46 1
@<TRIPOS>SUBSTRUCTURE
     1 GTP         1 GROUP 0 A     ****
@<TRIPOS>MOLECULE
[[[5-(2-amino-6-oxo-1,3-dihydropurin-2-ylium-9-yl)-3,4-dihydroxy-tetrahydrofuran-2-yl]methoxy-oxido-phosphoryl]oxy-oxido-phosphoryl] hydrogen phosphate
   46    48     1     0     0
SMALL
USER_CHARGES

@<TRIPOS>ATOM
      1 PG         -5.1102    7.1661    2.8289 P.3       1 GTP         1.5400
      2 O1G        -6.1540    6.7726    1.8076 O.co2     1 GTP        -0.8909
      3 O2G        -5.4228    7.1424    4.3086 O.co2     1 GTP        -0.8909
      4 O3G        -4.5395    8.6465    2.4433 O.3       1 GTP        -0.7980
      5 O3B        -3.7524    6.3010    2.5612 O.3       1 GTP        -0.7612
      6 PB         -2.2801    6.4236    3.2561 P.3       1 GTP         1.5847
      7 O1B        -1.6759    7.7580    2.8797 O.co2     1 GTP        -0.8859
      8 O2B        -2.3762    5.9764    4.6977 O.co2     1 GTP        -0.8859
      9 O3A        -1.5104    5.2300    2.4511 O.3       1 GTP        -0.7486
     10 PA          0.0330    4.7083    2.5757 P.3       1 GTP         1.5001
     11 O1A         0.9597    5.8217    2.1376 O.co2     1 GTP        -0.8487
     12 O2A         0.2074    4.0270    3.9155 O.co2     1 GTP        -0.8487
     13 O5'         0.0178    3.5131    1.4595 O.3       1 GTP        -0.5474
     14 C5'        -0.8811    2.4285    1.6206 C.3       1 GTP         0.2547
     15 C4'        -0.1994    1.3333    2.4288 C.3       1 GTP         0.0926
     16 O4'        -1.1285    0.2356    2.5840 O.3       1 GTP        -0.3593
     17 C3'         1.0324    0.7610    1.7344 C.3       1 GTP         0.0907
     18 O3'         1.9175    0.2377    2.7247 O.3       1 GTP        -0.5209
     19 C2'         0.4468   -0.3802    0.9263 C.3       1 GTP         0.0305
     20 O2'         1.3993   -1.3703    0.5961 O.3       1 GTP        -0.5978
     21 C1'        -0.6159   -0.9100    1.8769 C.3       1 GTP         0.2339
     22 N9         -1.7127   -1.6108    1.2130 N.pl3     1 GTP        -0.1765
     23 C8         -3.0389   -1.2578    1.2391 C.ar      1 GTP         0.4947
     24 N7         -3.7909   -2.0880    0.5425 N.2       1 GTP        -0.5802
     25 C5         -2.9127   -3.0150    0.0458 C.ar      1 GTP         0.2279
     26 C6         -3.2467   -4.1411   -0.7860 C.ar      1 GTP         0.6513
     27 O6         -4.3761   -4.4189   -1.1621 O.2       1 GTP        -0.5111
     28 N1         -2.0748   -4.9191   -1.1296 N.pl3     1 GTP        -0.4713
     29 C2         -0.7595   -4.6181   -0.7058 C.ar      1 GTP         0.5256
     30 N2          0.2985   -5.4268   -1.0920 N.pl3     1 GTP        -0.8665
     31 N3         -0.5304   -3.4919    0.1084 N.pl3     1 GTP        -0.5398
     32 C4         -1.6318   -2.7332    0.4512 C.ar      1 GTP        -0.0275
     33 HOG3       -3.8494    9.0446    3.0157 H         1 GTP         0.4161
     34 H5'        -1.7771    2.7849    2.1387 H         1 GTP         0.0348
     35 H5''       -1.1654    2.0541    0.6320 H         1 GTP         0.0348
     36 H4'         0.0403    1.7078    3.4343 H         1 GTP         0.1215
     37 H3'         1.5907    1.4859    1.1353 H         1 GTP         0.0576
     38 HO3'        2.1521    0.9800    3.3017 H         1 GTP         0.3842
     39 H2'        -0.0017    0.0018    0.0005 H         1 GTP         0.0252
     40 HO2'        2.0953   -0.9375    0.0709 H         1 GTP         0.4224
     41 H1'        -0.1998   -1.6319    2.6178 H         1 GTP         0.0745
     42 H8         -3.3933   -0.3909    1.7800 H         1 GTP         0.1522
     43 HN1        -2.2071   -5.7408   -1.7178 H         1 GTP         0.3518
     44 HN21        1.1896   -5.1751   -0.7715 H         1 GTP         0.4761
     45 HN22        0.0846   -6.1966   -1.6593 H         1 GTP         0.4761
     46 H46         0.4142   -3.2695    0.4160 H         1 GTP         0.5030
@<TRIPOS>BOND
     1    1    2 2
     2    1    3 1
     3    1    4 1
     4    1    5 1
     5    4   33 1
     6    5    6 1
     7    6    7 2
     8    6    8 1
     9    6    9 1
    10    9   10 1
    11   10   11 2
    12   10   12 1
    13   10   13 1
    14   13   14 1
    15   14   15 1
    16   14   34 1
    17   14   35 1
    18   15   16 1
    19   15   17 1
    20   15   36 1
    21   16   21 1
    22   17   18 1
    23   17   19 1
    24   17   37 1
    25   18   38 1
    26   19   20 1
    27   19   21 1
    28   19   39 1
    29   20   40 1
    30   21   22 1
    31   21   41 1
    32   22   23 ar
    33   22   32 ar
    34   23   24 ar
    35   23   42 1
    36   24   25 ar
    37   25   26 ar
    38   25   32 ar
    39   26   27 2
    40   26   28 ar
    41   28   29 ar
    42   28   43 1
    43   29   30 1
    44   29   31 ar
    45   30   44 1
    46   30   45 1
    47   31   32 ar
    48   31   46 1
@<TRIPOS>SUBSTRUCTURE
     1 GTP         1 GROUP 0 A     ****
@<TRIPOS>MOLECULE
[[[5-(2-amino-6-oxo-1,3-dihydropurin-2-ylium-9-yl)-3,4-dihydroxy-tetrahydrofuran-2-yl]methoxy-oxido-phosphoryl]oxy-oxido-phosphoryl] hydrogen phosphate
   46    48     1     0     0
SMALL
USER_CHARGES

@<TRIPOS>ATOM
      1 PG          7.2568    5.4951   -0.6019 P.3       1 GTP         1.5400
      2 O1G         7.1409    4.8940   -1.9849 O.co2     1 GTP        -0.8909
      3 O2G         6.0340    6.0002    0.1311 O.co2     1 GTP        -0.8909
      4 O3G         8.3651    6.6933   -0.6483 O.3       1 GTP        -0.7980
      5 O3B         8.0601    4.4536    0.3644 O.3       1 GTP        -0.7612
      6 PB          7.6197    2.9777    0.9063 P.3       1 GTP         1.5847
      7 O1B         7.2561    2.1140   -0.2808 O.co2     1 GTP        -0.8859
      8 O2B         8.6169    2.5160    1.9455 O.co2     1 GTP        -0.8859
      9 O3A         6.2638    3.3900    1.7164 O.3       1 GTP        -0.7486
     10 PA          5.2202    2.4549    2.5568 P.3       1 GTP         1.5001
     11 O1A         5.9920    1.6905    3.6105 O.co2     1 GTP        -0.8487
     12 O2A         4.0108    3.2873    2.9229 O.co2     1 GTP        -0.8487
     13 O5'         4.7294    1.4427    1.3696 O.3       1 GTP        -0.5474
     14 C5'         4.0922    1.9801    0.2227 C.3       1 GTP         0.2547
     15 C4'         2.5944    2.0310    0.4653 C.3       1 GTP         0.0926
     16 O4'         1.9327    2.5740   -0.6889 O.3       1 GTP        -0.3593
     17 C3'         1.9685    0.6634    0.6767 C.3       1 GTP         0.0907
     18 O3'         2.1425    0.1975    1.9977 O.3       1 GTP        -0.5209
     19 C2'         0.5176    0.9128    0.3099 C.3       1 GTP         0.0305
     20 O2'        -0.2103    1.4454    1.4152 O.3       1 GTP        -0.5978
     21 C1'         0.6219    1.9765   -0.7844 C.3       1 GTP         0.2339
     22 N9          0.4237    1.4496   -2.1357 N.pl3     1 GTP        -0.1765
     23 C8          1.3988    0.9691   -2.9736 C.ar      1 GTP         0.4947
     24 N7          0.9092    0.5634   -4.1293 N.2       1 GTP        -0.5802
     25 C5         -0.4383    0.7914   -4.0325 C.ar      1 GTP         0.2279
     26 C6         -1.4217    0.5138   -5.0461 C.ar      1 GTP         0.6513
     27 O6         -1.1759    0.0306   -6.1417 O.2       1 GTP        -0.5111
     28 N1         -2.7543    0.8794   -4.6134 N.pl3     1 GTP        -0.4713
     29 C2         -3.0626    1.4402   -3.3523 C.ar      1 GTP         0.5256
     30 N2         -4.3747    1.7544   -3.0321 N.pl3     1 GTP        -0.8665
     31 N3         -2.0304    1.6759   -2.4233 N.pl3     1 GTP        -0.5398
     32 C4         -0.7497    1.3366   -2.8118 C.ar      1 GTP        -0.0275
     33 HOG3        8.5556    7.1854    0.1786 H         1 GTP         0.4161
     34 H5'         4.4843    2.9854    0.0380 H         1 GTP         0.0348
     35 H5''        4.3191    1.3446   -0.6392 H         1 GTP         0.0348
     36 H4'         2.3752    2.7029    1.3156 H         1 GTP         0.1215
     37 H3'         2.4336   -0.1217   -0.0015 H         1 GTP         0.0576
     38 HO3'        3.0987    0.1465    2.1461 H         1 GTP         0.3842
     39 H2'         0.0316    0.0155   -0.0339 H         1 GTP         0.0252
     40 HO2'       -1.1270    1.5823    1.1180 H         1 GTP         0.4224
     41 H1'        -0.1474    2.7798   -0.6651 H         1 GTP         0.0745
     42 H8          2.4413    0.9409   -2.6872 H         1 GTP         0.1522
     43 HN1        -3.5236    0.7214   -5.2629 H         1 GTP         0.3518
     44 HN21       -4.5350    2.1409   -2.1461 H         1 GTP         0.4761
     45 HN22       -5.0542    1.5695   -3.7134 H         1 GTP         0.4761
     46 H46        -2.2462    2.0786   -1.5136 H         1 GTP         0.5030
@<TRIPOS>BOND
     1    1    2 2
     2    1    3 1
     3    1    4 1
     4    1    5 1
     5    4   33 1
     6    5    6 1
     7    6    7 2
     8    6    8 1
     9    6    9 1
    10    9   10 1
    11   10   11 2
    12   10   12 1
    13   10   13 1
    14   13   14 1
    15   14   15 1
    16   14   34 1
    17   14   35 1
    18   15   16 1
    19   15   17 1
    20   15   36 1
    21   16   21 1
    22   17   18 1
    23   17   19 1
    24   17   37 1
    25   18   38 1
    26   19   20 1
    27   19   21 1
    28   19   39 1
    29   20   40 1
    30   21   22 1
    31   21   41 1
    32   22   23 ar
    33   22   32 ar
    34   23   24 ar
    35   23   42 1
    36   24   25 ar
    37   25   26 ar
    38   25   32 ar
    39   26   27 2
    40   26   28 ar
    41   28   29 ar
    42   28   43 1
    43   29   30 1
    44   29   31 ar
    45   30   44 1
    46   30   45 1
    47   31   32 ar
    48   31   46 1
@<TRIPOS>SUBSTRUCTURE
     1 GTP         1 GROUP 0 A     ****
@<TRIPOS>MOLECULE
[[[5-(2-amino-6-oxo-1,3-dihydropurin-2-ylium-9-yl)-3,4-dihydroxy-tetrahydrofuran-2-yl]methoxy-oxido-phosphoryl]oxy-oxido-phosphoryl] hydrogen phosphate
   46    48     1     0     0
SMALL
USER_CHARGES

@<TRIPOS>ATOM
      1 PG          1.3389    2.5437    7.6910 P.3       1 GTP         1.5400
      2 O1G         1.4332    1.0417    7.8412 O.co2     1 GTP        -0.8909
      3 O2G         2.4595    3.4438    8.1619 O.co2     1 GTP        -0.8909
      4 O3G        -0.0540    3.0473    8.3781 O.3       1 GTP        -0.7980
      5 O3B         0.9907    2.9014    6.1371 O.3       1 GTP        -0.7612
      6 PB          0.6299    4.3378    5.4500 P.3       1 GTP         1.5847
      7 O1B        -0.6890    4.8244    6.0076 O.co2     1 GTP        -0.8859
      8 O2B         1.8639    5.2123    5.4582 O.co2     1 GTP        -0.8859
      9 O3A         0.4215    3.8453    3.9076 O.3       1 GTP        -0.7486
     10 PA          0.0330    4.7083    2.5757 P.3       1 GTP         1.5001
     11 O1A        -1.3584    5.2766    2.7529 O.co2     1 GTP        -0.8487
     12 O2A         1.2023    5.5996    2.2180 O.co2     1 GTP        -0.8487
     13 O5'         0.0178    3.5131    1.4595 O.3       1 GTP        -0.5474
     14 C5'        -0.8811    2.4285    1.6206 C.3       1 GTP         0.2547
     15 C4'        -0.1994    1.3333    2.4288 C.3       1 GTP         0.0926
     16 O4'        -1.1285    0.2356    2.5840 O.3       1 GTP        -0.3593
     17 C3'         1.0324    0.7610    1.7344 C.3       1 GTP         0.0907
     18 O3'         1.9175    0.2377    2.7247 O.3       1 GTP        -0.5209
     19 C2'         0.4468   -0.3802    0.9263 C.3       1 GTP         0.0305
     20 O2'         1.3993   -1.3703    0.5961 O.3       1 GTP        -0.5978
     21 C1'        -0.6159   -0.9100    1.8769 C.3       1 GTP         0.2339
     22 N9         -1.7127   -1.6108    1.2130 N.pl3     1 GTP        -0.1765
     23 C8         -1.6092   -2.7449    0.4467 C.ar      1 GTP         0.4947
     24 N7         -2.7778   -3.1416   -0.0191 N.2       1 GTP        -0.5802
     25 C5         -3.6725   -2.2253    0.4675 C.ar      1 GTP         0.2279
     26 C6         -5.0932   -2.2202    0.2371 C.ar      1 GTP         0.6513
     27 O6         -5.6933   -3.0474   -0.4337 O.2       1 GTP        -0.5111
     28 N1         -5.7390   -1.1061    0.8992 N.pl3     1 GTP        -0.4713
     29 C2         -5.0661   -0.1368    1.6789 C.ar      1 GTP         0.5256
     30 N2         -5.7774    0.8934    2.2749 N.pl3     1 GTP        -0.8665
     31 N3         -3.6705   -0.2251    1.8481 N.pl3     1 GTP        -0.5398
     32 C4         -3.0303   -1.2785    1.2262 C.ar      1 GTP        -0.0275
     33 HOG3       -0.2625    4.0057    8.3626 H         1 GTP         0.4161
     34 H5'        -1.7771    2.7849    2.1387 H         1 GTP         0.0348
     35 H5''       -1.1654    2.0541    0.6320 H         1 GTP         0.0348
     36 H4'         0.0403    1.7078    3.4343 H         1 GTP         0.1215
     37 H3'         1.5907    1.4859    1.1353 H         1 GTP         0.0576
     38 HO3'        2.1521    0.9800    3.3017 H         1 GTP         0.3842
     39 H2'        -0.0017    0.0018    0.0005 H         1 GTP         0.0252
     40 HO2'        2.0953   -0.9375    0.0709 H         1 GTP         0.4224
     41 H1'        -0.1998   -1.6319    2.6178 H         1 GTP         0.0745
     42 H8         -0.6610   -3.2324    0.2653 H         1 GTP         0.1522
     43 HN1        -6.7487   -1.0139    0.7961 H         1 GTP         0.3518
     44 HN21       -5.2644    1.5388    2.8044 H         1 GTP         0.4761
     45 HN22       -6.7459    0.9078    2.1265 H         1 GTP         0.4761
     46 H46        -3.1807    0.4690    2.4089 H         1 GTP         0.5030
@<TRIPOS>BOND
     1    1    2 2
     2    1    3 1
     3    1    4 1
     4    1    5 1
     5    4   33 1
     6    5    6 1
     7    6    7 2
     8    6    8 1
     9    6    9 1
    10    9   10 1
    11   10   11 2
    12   10   12 1
    13   10   13 1
    14   13   14 1
    15   14   15 1
    16   14   34 1
    17   14   35 1
    18   15   16 1
    19   15   17 1
    20   15   36 1
    21   16   21 1
    22   17   18 1
    23   17   19 1
    24   17   37 1
    25   18   38 1
    26   19   20 1
    27   19   21 1
    28   19   39 1
    29   20   40 1
    30   21   22 1
    31   21   41 1
    32   22   23 ar
    33   22   32 ar
    34   23   24 ar
    35   23   42 1
    36   24   25 ar
    37   25   26 ar
    38   25   32 ar
    39   26   27 2
    40   26   28 ar
    41   28   29 ar
    42   28   43 1
    43   29   30 1
    44   29   31 ar
    45   30   44 1
    46   30   45 1
    47   31   32 ar
    48   31   46 1
@<TRIPOS>SUBSTRUCTURE
     1 GTP         1 GROUP 0 A     ****
@<TRIPOS>MOLECULE
[[[5-(2-amino-6-oxo-1,3-dihydropurin-2-ylium-9-yl)-3,4-dihydroxy-tetrahydrofuran-2-yl]methoxy-oxido-phosphoryl]oxy-oxido-phosphoryl] hydrogen phosphate
   46    48     1     0     0
SMALL
USER_CHARGES

@<TRIPOS>ATOM
      1 PG         -1.4587    5.6568    7.0751 P.3       1 GTP         1.5400
      2 O1G        -2.8314    6.2119    6.7667 O.co2     1 GTP        -0.8909
      3 O2G        -1.2409    4.7309    8.2511 O.co2     1 GTP        -0.8909
      4 O3G        -0.4104    6.9028    7.1952 O.3       1 GTP        -0.7980
      5 O3B        -0.8551    4.9554    5.7307 O.3       1 GTP        -0.7612
      6 PB          0.6299    4.3378    5.4500 P.3       1 GTP         1.5847
      7 O1B         1.6386    5.4641    5.4887 O.co2     1 GTP        -0.8859
      8 O2B         0.8086    3.0860    6.2798 O.co2     1 GTP        -0.8859
      9 O3A         0.4215    3.8453    3.9076 O.3       1 GTP        -0.7486
     10 PA          0.0330    4.7083    2.5757 P.3       1 GTP         1.5001
     11 O1A        -1.3584    5.2766    2.7529 O.co2     1 GTP        -0.8487
     12 O2A         1.2023    5.5996    2.2180 O.co2     1 GTP        -0.8487
     13 O5'         0.0178    3.5131    1.4595 O.3       1 GTP        -0.5474
     14 C5'        -0.8811    2.4285    1.6206 C.3       1 GTP         0.2547
     15 C4'        -0.1994    1.3333    2.4288 C.3       1 GTP         0.0926
     16 O4'        -1.1285    0.2356    2.5840 O.3       1 GTP        -0.3593
     17 C3'         1.0324    0.7610    1.7344 C.3       1 GTP         0.0907
     18 O3'         1.9175    0.2377    2.7247 O.3       1 GTP        -0.5209
     19 C2'         0.4468   -0.3802    0.9263 C.3       1 GTP         0.0305
     20 O2'         1.3993   -1.3703    0.5961 O.3       1 GTP        -0.5978
     21 C1'        -0.6159   -0.9100    1.8769 C.3       1 GTP         0.2339
     22 N9         -1.7127   -1.6108    1.2130 N.pl3     1 GTP        -0.1765
     23 C8         -3.0389   -1.2578    1.2391 C.ar      1 GTP         0.4947
     24 N7         -3.7909   -2.0880    0.5425 N.2       1 GTP        -0.5802
     25 C5         -2.9127   -3.0150    0.0458 C.ar      1 GTP         0.2279
     26 C6         -3.2467   -4.1411   -0.7860 C.ar      1 GTP         0.6513
     27 O6         -4.3761   -4.4189   -1.1621 O.2       1 GTP        -0.5111
     28 N1         -2.0748   -4.9191   -1.1296 N.pl3     1 GTP        -0.4713
     29 C2         -0.7595   -4.6181   -0.7058 C.ar      1 GTP         0.5256
     30 N2          0.2985   -5.4268   -1.0920 N.pl3     1 GTP        -0.8665
     31 N3         -0.5304   -3.4919    0.1084 N.pl3     1 GTP        -0.5398
     32 C4         -1.6318   -2.7332    0.4512 C.ar      1 GTP        -0.0275
     33 HOG3        0.5296    6.7046    7.3937 H         1 GTP         0.4161
     34 H5'        -1.7771    2.7849    2.1387 H         1 GTP         0.0348
     35 H5''       -1.1654    2.0541    0.6320 H         1 GTP         0.0348
     36 H4'         0.0403    1.7078    3.4343 H         1 GTP         0.1215
     37 H3'         1.5907    1.4859    1.1353 H         1 GTP         0.0576
     38 HO3'        2.6839   -0.1150    2.2479 H         1 GTP         0.3842
     39 H2'        -0.0017    0.0018    0.0005 H         1 GTP         0.0252
     40 HO2'        2.0953   -0.9375    0.0709 H         1 GTP         0.4224
     41 H1'        -0.1998   -1.6319    2.6178 H         1 GTP         0.0745
     42 H8         -3.3933   -0.3909    1.7800 H         1 GTP         0.1522
     43 HN1        -2.2071   -5.7408   -1.7178 H         1 GTP         0.3518
     44 HN21        1.1896   -5.1751   -0.7715 H         1 GTP         0.4761
     45 HN22        0.0846   -6.1966   -1.6593 H         1 GTP         0.4761
     46 H46         0.4142   -3.2695    0.4160 H         1 GTP         0.5030
@<TRIPOS>BOND
     1    1    2 2
     2    1    3 1
     3    1    4 1
     4    1    5 1
     5    4   33 1
     6    5    6 1
     7    6    7 2
     8    6    8 1
     9    6    9 1
    10    9   10 1
    11   10   11 2
    12   10   12 1
    13   10   13 1
    14   13   14 1
    15   14   15 1
    16   14   34 1
    17   14   35 1
    18   15   16 1
    19   15   17 1
    20   15   36 1
    21   16   21 1
    22   17   18 1
    23   17   19 1
    24   17   37 1
    25   18   38 1
    26   19   20 1
    27   19   21 1
    28   19   39 1
    29   20   40 1
    30   21   22 1
    31   21   41 1
    32   22   23 ar
    33   22   32 ar
    34   23   24 ar
    35   23   42 1
    36   24   25 ar
    37   25   26 ar
    38   25   32 ar
    39   26   27 2
    40   26   28 ar
    41   28   29 ar
    42   28   43 1
    43   29   30 1
    44   29   31 ar
    45   30   44 1
    46   30   45 1
    47   31   32 ar
    48   31   46 1
@<TRIPOS>SUBSTRUCTURE
     1 GTP         1 GROUP 0 A     ****
@<TRIPOS>MOLECULE
[[[5-(2-amino-6-oxo-1,3-dihydropurin-2-ylium-9-yl)-3,4-dihydroxy-tetrahydrofuran-2-yl]methoxy-oxido-phosphoryl]oxy-oxido-phosphoryl] hydrogen phosphate
   46    48     1     0     0
SMALL
USER_CHARGES

@<TRIPOS>ATOM
      1 PG          4.3858    1.0941   -1.8824 P.3       1 GTP         1.5400
      2 O1G         3.8526    0.8227   -3.2714 O.co2     1 GTP        -0.8909
      3 O2G         5.6965    1.8216   -1.6813 O.co2     1 GTP        -0.8909
      4 O3G         4.4460   -0.3181   -1.0649 O.3       1 GTP        -0.7980
      5 O3B         3.2279    1.8378   -1.0048 O.3       1 GTP        -0.7612
      6 PB          2.5751    3.3239   -1.1804 P.3       1 GTP         1.5847
      7 O1B         3.6451    4.3584   -0.9113 O.co2     1 GTP        -0.8859
      8 O2B         1.7466    3.3524   -2.4455 O.co2     1 GTP        -0.8859
      9 O3A         1.5192    3.2949    0.0642 O.3       1 GTP        -0.7486
     10 PA          0.4655    4.4361    0.5710 P.3       1 GTP         1.5001
     11 O1A         1.2462    5.6408    1.0501 O.co2     1 GTP        -0.8487
     12 O2A        -0.6317    4.5752   -0.4617 O.co2     1 GTP        -0.8487
     13 O5'        -0.2062    3.6557    1.8417 O.3       1 GTP        -0.5474
     14 C5'        -0.8811    2.4285    1.6206 C.3       1 GTP         0.2547
     15 C4'        -0.1994    1.3333    2.4288 C.3       1 GTP         0.0926
     16 O4'        -1.1285    0.2356    2.5840 O.3       1 GTP        -0.3593
     17 C3'         1.0324    0.7610    1.7344 C.3       1 GTP         0.0907
     18 O3'         1.9175    0.2377    2.7247 O.3       1 GTP        -0.5209
     19 C2'         0.4468   -0.3802    0.9263 C.3       1 GTP         0.0305
     20 O2'         1.3993   -1.3703    0.5961 O.3       1 GTP        -0.5978
     21 C1'        -0.6159   -0.9100    1.8769 C.3       1 GTP         0.2339
     22 N9         -1.7127   -1.6108    1.2130 N.pl3     1 GTP        -0.1765
     23 C8         -2.8692   -1.0463    0.7355 C.ar      1 GTP         0.4947
     24 N7         -3.6707   -1.9381    0.1856 N.2       1 GTP        -0.5802
     25 C5         -3.0027   -3.1275    0.3134 C.ar      1 GTP         0.2279
     26 C6         -3.4659   -4.4142   -0.1355 C.ar      1 GTP         0.6513
     27 O6         -4.5328   -4.6133   -0.6980 O.2       1 GTP        -0.5111
     28 N1         -2.5102   -5.4606    0.1612 N.pl3     1 GTP        -0.4713
     29 C2         -1.2711   -5.2547    0.8113 C.ar      1 GTP         0.5256
     30 N2         -0.4228   -6.3256    1.0482 N.pl3     1 GTP        -0.8665
     31 N3         -0.9033   -3.9563    1.2146 N.pl3     1 GTP        -0.5398
     32 C4         -1.7979   -2.9400    0.9438 C.ar      1 GTP        -0.0275
     33 HOG3        4.7733   -0.3087   -0.1402 H         1 GTP         0.4161
     34 H5'        -1.9256    2.5380    1.9293 H         1 GTP         0.0348
     35 H5''       -0.8474    2.1930    0.5521 H         1 GTP         0.0348
     36 H4'         0.0403    1.7078    3.4343 H         1 GTP         0.1215
     37 H3'         1.5907    1.4859    1.1353 H         1 GTP         0.0576
     38 HO3'        2.6839   -0.1150    2.2479 H         1 GTP         0.3842
     39 H2'        -0.0017    0.0018    0.0005 H         1 GTP         0.0252
     40 HO2'        2.0953   -0.9375    0.0709 H         1 GTP         0.4224
     41 H1'        -0.1998   -1.6319    2.6178 H         1 GTP         0.0745
     42 H8         -3.0691    0.0134    0.8177 H         1 GTP         0.1522
     43 HN1        -2.7468   -6.4119   -0.1177 H         1 GTP         0.3518
     44 HN21        0.4233   -6.1297    1.5018 H         1 GTP         0.4761
     45 HN22       -0.7261   -7.2071    0.7466 H         1 GTP         0.4761
     46 H46        -0.0124   -3.8015    1.6821 H         1 GTP         0.5030
@<TRIPOS>BOND
     1    1    2 2
     2    1    3 1
     3    1    4 1
     4    1    5 1
     5    4   33 1
     6    5    6 1
     7    6    7 2
     8    6    8 1
     9    6    9 1
    10    9   10 1
    11   10   11 2
    12   10   12 1
    13   10   13 1
    14   13   14 1
    15   14   15 1
    16   14   34 1
    17   14   35 1
    18   15   16 1
    19   15   17 1
    20   15   36 1
    21   16   21 1
    22   17   18 1
    23   17   19 1
    24   17   37 1
    25   18   38 1
    26   19   20 1
    27   19   21 1
    28   19   39 1
    29   20   40 1
    30   21   22 1
    31   21   41 1
    32   22   23 ar
    33   22   32 ar
    34   23   24 ar
    35   23   42 1
    36   24   25 ar
    37   25   26 ar
    38   25   32 ar
    39   26   27 2
    40   26   28 ar
    41   28   29 ar
    42   28   43 1
    43   29   30 1
    44   29   31 ar
    45   30   44 1
    46   30   45 1
    47   31   32 ar
    48   31   46 1
@<TRIPOS>SUBSTRUCTURE
     1 GTP         1 GROUP 0 A     ****
@<TRIPOS>MOLECULE
[[[5-(2-amino-6-oxo-1,3-dihydropurin-2-ylium-9-yl)-3,4-dihydroxy-tetrahydrofuran-2-yl]methoxy-oxido-phosphoryl]oxy-oxido-phosphoryl] hydrogen phosphate
   46    48     1     0     0
SMALL
USER_CHARGES

@<TRIPOS>ATOM
      1 PG          1.3389    2.5437    7.6910 P.3       1 GTP         1.5400
      2 O1G         0.2393    3.0829    8.5785 O.co2     1 GTP        -0.8909
      3 O2G         1.7670    1.0956    7.7766 O.co2     1 GTP        -0.8909
      4 O3G         2.6599    3.4863    7.8711 O.3       1 GTP        -0.7980
      5 O3B         0.9907    2.9014    6.1371 O.3       1 GTP        -0.7612
      6 PB          0.6299    4.3378    5.4500 P.3       1 GTP         1.5847
      7 O1B        -0.6890    4.8244    6.0076 O.co2     1 GTP        -0.8859
      8 O2B         1.8639    5.2123    5.4582 O.co2     1 GTP        -0.8859
      9 O3A         0.4215    3.8453    3.9076 O.3       1 GTP        -0.7486
     10 PA          0.0330    4.7083    2.5757 P.3       1 GTP         1.5001
     11 O1A        -1.3584    5.2766    2.7529 O.co2     1 GTP        -0.8487
     12 O2A         1.2023    5.5996    2.2180 O.co2     1 GTP        -0.8487
     13 O5'         0.0178    3.5131    1.4595 O.3       1 GTP        -0.5474
     14 C5'        -0.8811    2.4285    1.6206 C.3       1 GTP         0.2547
     15 C4'        -0.1994    1.3333    2.4288 C.3       1 GTP         0.0926
     16 O4'        -1.1285    0.2356    2.5840 O.3       1 GTP        -0.3593
     17 C3'         1.0324    0.7610    1.7344 C.3       1 GTP         0.0907
     18 O3'         1.9175    0.2377    2.7247 O.3       1 GTP        -0.5209
     19 C2'         0.4468   -0.3802    0.9263 C.3       1 GTP         0.0305
     20 O2'         1.3993   -1.3703    0.5961 O.3       1 GTP        -0.5978
     21 C1'        -0.6159   -0.9100    1.8769 C.3       1 GTP         0.2339
     22 N9         -1.7127   -1.6108    1.2130 N.pl3     1 GTP        -0.1765
     23 C8         -1.7789   -2.9564    0.9503 C.ar      1 GTP         0.4947
     24 N7         -2.8980   -3.2916    0.3377 N.2       1 GTP        -0.5802
     25 C5         -3.5824   -2.1127    0.2000 C.ar      1 GTP         0.2279
     26 C6         -4.8740   -1.9471   -0.4133 C.ar      1 GTP         0.6513
     27 O6         -5.5366   -2.8529   -0.8978 O.2       1 GTP        -0.5111
     28 N1         -5.3036   -0.5645   -0.3916 N.pl3     1 GTP        -0.4713
     29 C2         -4.5545    0.4997    0.1619 C.ar      1 GTP         0.5256
     30 N2         -5.0561    1.7921    0.1348 N.pl3     1 GTP        -0.8665
     31 N3         -3.2977    0.2393    0.7420 N.pl3     1 GTP        -0.5398
     32 C4         -2.8643   -1.0716    0.7336 C.ar      1 GTP        -0.0275
     33 HOG3        3.4653    3.2646    7.3568 H         1 GTP         0.4161
     34 H5'        -1.7771    2.7849    2.1387 H         1 GTP         0.0348
     35 H5''       -1.1654    2.0541    0.6320 H         1 GTP         0.0348
     36 H4'         0.0403    1.7078    3.4343 H         1 GTP         0.1215
     37 H3'         1.5907    1.4859    1.1353 H         1 GTP         0.0576
     38 HO3'        2.6839   -0.1150    2.2479 H         1 GTP         0.3842
     39 H2'        -0.0017    0.0018    0.0005 H         1 GTP         0.0252
     40 HO2'        0.9369   -2.0558    0.0825 H         1 GTP         0.4224
     41 H1'        -0.1998   -1.6319    2.6178 H         1 GTP         0.0745
     42 H8         -0.9852   -3.6367    1.2276 H         1 GTP         0.1522
     43 HN1        -6.2089   -0.3428   -0.8039 H         1 GTP         0.3518
     44 HN21       -4.4981    2.4933    0.5311 H         1 GTP         0.4761
     45 HN22       -5.9352    1.9183   -0.2793 H         1 GTP         0.4761
     46 H46        -2.7541    1.0010    1.1428 H         1 GTP         0.5030
@<TRIPOS>BOND
     1    1    2 2
     2    1    3 1
     3    1    4 1
     4    1    5 1
     5    4   33 1
     6    5    6 1
     7    6    7 2
     8    6    8 1
     9    6    9 1
    10    9   10 1
    11   10   11 2
    12   10   12 1
    13   10   13 1
    14   13   14 1
    15   14   15 1
    16   14   34 1
    17   14   35 1
    18   15   16 1
    19   15   17 1
    20   15   36 1
    21   16   21 1
    22   17   18 1
    23   17   19 1
    24   17   37 1
    25   18   38 1
    26   19   20 1
    27   19   21 1
    28   19   39 1
    29   20   40 1
    30   21   22 1
    31   21   41 1
    32   22   23 ar
    33   22   32 ar
    34   23   24 ar
    35   23   42 1
    36   24   25 ar
    37   25   26 ar
    38   25   32 ar
    39   26   27 2
    40   26   28 ar
    41   28   29 ar
    42   28   43 1
    43   29   30 1
    44   29   31 ar
    45   30   44 1
    46   30   45 1
    47   31   32 ar
    48   31   46 1
@<TRIPOS>SUBSTRUCTURE
     1 GTP         1 GROUP 0 A     ****
@<TRIPOS>MOLECULE
[[[5-(2-amino-6-oxo-1,3-dihydropurin-2-ylium-9-yl)-3,4-dihydroxy-tetrahydrofuran-2-yl]methoxy-oxido-phosphoryl]oxy-oxido-phosphoryl] hydrogen phosphate
   46    48     1     0     0
SMALL
USER_CHARGES

@<TRIPOS>ATOM
      1 PG          0.7300    5.2934    4.6395 P.3       1 GTP         1.5400
      2 O1G        -0.6062    5.1480    3.9461 O.co2     1 GTP        -0.8909
      3 O2G         0.8587    5.0803    6.1314 O.co2     1 GTP        -0.8909
      4 O3G         1.3494    6.7582    4.2697 O.3       1 GTP        -0.7980
      5 O3B         1.8295    4.3605    3.8750 O.3       1 GTP        -0.7612
      6 PB          3.4430    4.2491    4.0986 P.3       1 GTP         1.5847
      7 O1B         4.0782    5.5657    3.7107 O.co2     1 GTP        -0.8859
      8 O2B         3.7117    3.6053    5.4406 O.co2     1 GTP        -0.8859
      9 O3A         3.7870    3.1235    2.9675 O.3       1 GTP        -0.7486
     10 PA          5.2202    2.4549    2.5568 P.3       1 GTP         1.5001
     11 O1A         6.1152    3.5343    1.9873 O.co2     1 GTP        -0.8487
     12 O2A         5.6861    1.5715    3.6935 O.co2     1 GTP        -0.8487
     13 O5'         4.7294    1.4427    1.3696 O.3       1 GTP        -0.5474
     14 C5'         4.0922    1.9801    0.2227 C.3       1 GTP         0.2547
     15 C4'         2.5944    2.0310    0.4653 C.3       1 GTP         0.0926
     16 O4'         1.9327    2.5740   -0.6889 O.3       1 GTP        -0.3593
     17 C3'         1.9685    0.6634    0.6767 C.3       1 GTP         0.0907
     18 O3'         2.1425    0.1975    1.9977 O.3       1 GTP        -0.5209
     19 C2'         0.5176    0.9128    0.3099 C.3       1 GTP         0.0305
     20 O2'        -0.2103    1.4454    1.4152 O.3       1 GTP        -0.5978
     21 C1'         0.6219    1.9765   -0.7844 C.3       1 GTP         0.2339
     22 N9          0.4237    1.4496   -2.1357 N.pl3     1 GTP        -0.1765
     23 C8          1.3988    0.9691   -2.9736 C.ar      1 GTP         0.4947
     24 N7          0.9092    0.5634   -4.1293 N.2       1 GTP        -0.5802
     25 C5         -0.4383    0.7914   -4.0325 C.ar      1 GTP         0.2279
     26 C6         -1.4217    0.5138   -5.0461 C.ar      1 GTP         0.6513
     27 O6         -1.1759    0.0306   -6.1417 O.2       1 GTP        -0.5111
     28 N1         -2.7543    0.8794   -4.6134 N.pl3     1 GTP        -0.4713
     29 C2         -3.0626    1.4402   -3.3523 C.ar      1 GTP         0.5256
     30 N2         -4.3747    1.7544   -3.0321 N.pl3     1 GTP        -0.8665
     31 N3         -2.0304    1.6759   -2.4233 N.pl3     1 GTP        -0.5398
     32 C4         -0.7497    1.3366   -2.8118 C.ar      1 GTP        -0.0275
     33 HOG3        2.2208    7.0053    4.6466 H         1 GTP         0.4161
     34 H5'         4.4843    2.9854    0.0380 H         1 GTP         0.0348
     35 H5''        4.3191    1.3446   -0.6392 H         1 GTP         0.0348
     36 H4'         2.3752    2.7029    1.3156 H         1 GTP         0.1215
     37 H3'         2.4336   -0.1217   -0.0015 H         1 GTP         0.0576
     38 HO3'        1.7160   -0.6716    2.0397 H         1 GTP         0.3842
     39 H2'         0.0316    0.0155   -0.0339 H         1 GTP         0.0252
     40 HO2'       -0.1608    0.7921    2.1351 H         1 GTP         0.4224
     41 H1'        -0.1474    2.7798   -0.6651 H         1 GTP         0.0745
     42 H8          2.4413    0.9409   -2.6872 H         1 GTP         0.1522
     43 HN1        -3.5236    0.7214   -5.2629 H         1 GTP         0.3518
     44 HN21       -4.5350    2.1409   -2.1461 H         1 GTP         0.4761
     45 HN22       -5.0542    1.5695   -3.7134 H         1 GTP         0.4761
     46 H46        -2.2462    2.0786   -1.5136 H         1 GTP         0.5030
@<TRIPOS>BOND
     1    1    2 2
     2    1    3 1
     3    1    4 1
     4    1    5 1
     5    4   33 1
     6    5    6 1
     7    6    7 2
     8    6    8 1
     9    6    9 1
    10    9   10 1
    11   10   11 2
    12   10   12 1
    13   10   13 1
    14   13   14 1
    15   14   15 1
    16   14   34 1
    17   14   35 1
    18   15   16 1
    19   15   17 1
    20   15   36 1
    21   16   21 1
    22   17   18 1
    23   17   19 1
    24   17   37 1
    25   18   38 1
    26   19   20 1
    27   19   21 1
    28   19   39 1
    29   20   40 1
    30   21   22 1
    31   21   41 1
    32   22   23 ar
    33   22   32 ar
    34   23   24 ar
    35   23   42 1
    36   24   25 ar
    37   25   26 ar
    38   25   32 ar
    39   26   27 2
    40   26   28 ar
    41   28   29 ar
    42   28   43 1
    43   29   30 1
    44   29   31 ar
    45   30   44 1
    46   30   45 1
    47   31   32 ar
    48   31   46 1
@<TRIPOS>SUBSTRUCTURE
     1 GTP         1 GROUP 0 A     ****
@<TRIPOS>MOLECULE
[[[5-(2-amino-6-oxo-1,3-dihydropurin-2-ylium-9-yl)-3,4-dihydroxy-tetrahydrofuran-2-yl]methoxy-oxido-phosphoryl]oxy-oxido-phosphoryl] hydrogen phosphate
   46    48     1     0     0
SMALL
USER_CHARGES

@<TRIPOS>ATOM
      1 PG          6.0794    7.1419    3.3715 P.3       1 GTP         1.5400
      2 O1G         6.7399    7.0480    4.7289 O.co2     1 GTP        -0.8909
      3 O2G         6.5944    8.1008    2.3213 O.co2     1 GTP        -0.8909
      4 O3G         4.4849    7.4180    3.5885 O.3       1 GTP        -0.7980
      5 O3B         5.9848    5.6474    2.7224 O.3       1 GTP        -0.7612
      6 PB          7.1737    4.6506    2.2140 P.3       1 GTP         1.5847
      7 O1B         7.8585    5.2812    1.0220 O.co2     1 GTP        -0.8859
      8 O2B         7.9582    4.1668    3.4132 O.co2     1 GTP        -0.8859
      9 O3A         6.2638    3.3900    1.7164 O.3       1 GTP        -0.7486
     10 PA          5.2202    2.4549    2.5568 P.3       1 GTP         1.5001
     11 O1A         5.9920    1.6905    3.6105 O.co2     1 GTP        -0.8487
     12 O2A         4.0108    3.2873    2.9229 O.co2     1 GTP        -0.8487
     13 O5'         4.7294    1.4427    1.3696 O.3       1 GTP        -0.5474
     14 C5'         4.0922    1.9801    0.2227 C.3       1 GTP         0.2547
     15 C4'         2.5944    2.0310    0.4653 C.3       1 GTP         0.0926
     16 O4'         1.9327    2.5740   -0.6889 O.3       1 GTP        -0.3593
     17 C3'         1.9685    0.6634    0.6767 C.3       1 GTP         0.0907
     18 O3'         2.1425    0.1975    1.9977 O.3       1 GTP        -0.5209
     19 C2'         0.5176    0.9128    0.3099 C.3       1 GTP         0.0305
     20 O2'        -0.2103    1.4454    1.4152 O.3       1 GTP        -0.5978
     21 C1'         0.6219    1.9765   -0.7844 C.3       1 GTP         0.2339
     22 N9          0.4237    1.4496   -2.1357 N.pl3     1 GTP        -0.1765
     23 C8          1.3988    0.9691   -2.9736 C.ar      1 GTP         0.4947
     24 N7          0.9092    0.5634   -4.1293 N.2       1 GTP        -0.5802
     25 C5         -0.4383    0.7914   -4.0325 C.ar      1 GTP         0.2279
     26 C6         -1.4217    0.5138   -5.0461 C.ar      1 GTP         0.6513
     27 O6         -1.1759    0.0306   -6.1417 O.2       1 GTP        -0.5111
     28 N1         -2.7543    0.8794   -4.6134 N.pl3     1 GTP        -0.4713
     29 C2         -3.0626    1.4402   -3.3523 C.ar      1 GTP         0.5256
     30 N2         -4.3747    1.7544   -3.0321 N.pl3     1 GTP        -0.8665
     31 N3         -2.0304    1.6759   -2.4233 N.pl3     1 GTP        -0.5398
     32 C4         -0.7497    1.3366   -2.8118 C.ar      1 GTP        -0.0275
     33 HOG3        3.9139    7.5046    2.7956 H         1 GTP         0.4161
     34 H5'         4.4843    2.9854    0.0380 H         1 GTP         0.0348
     35 H5''        4.3191    1.3446   -0.6392 H         1 GTP         0.0348
     36 H4'         2.3752    2.7029    1.3156 H         1 GTP         0.1215
     37 H3'         2.4336   -0.1217   -0.0015 H         1 GTP         0.0576
     38 HO3'        3.0987    0.1465    2.1461 H         1 GTP         0.3842
     39 H2'         0.0316    0.0155   -0.0339 H         1 GTP         0.0252
     40 HO2'       -1.1270    1.5823    1.1180 H         1 GTP         0.4224
     41 H1'        -0.1474    2.7798   -0.6651 H         1 GTP         0.0745
     42 H8          2.4413    0.9409   -2.6872 H         1 GTP         0.1522
     43 HN1        -3.5236    0.7214   -5.2629 H         1 GTP         0.3518
     44 HN21       -4.5350    2.1409   -2.1461 H         1 GTP         0.4761
     45 HN22       -5.0542    1.5695   -3.7134 H         1 GTP         0.4761
     46 H46        -2.2462    2.0786   -1.5136 H         1 GTP         0.5030
@<TRIPOS>BOND
     1    1    2 2
     2    1    3 1
     3    1    4 1
     4    1    5 1
     5    4   33 1
     6    5    6 1
     7    6    7 2
     8    6    8 1
     9    6    9 1
    10    9   10 1
    11   10   11 2
    12   10   12 1
    13   10   13 1
    14   13   14 1
    15   14   15 1
    16   14   34 1
    17   14   35 1
    18   15   16 1
    19   15   17 1
    20   15   36 1
    21   16   21 1
    22   17   18 1
    23   17   19 1
    24   17   37 1
    25   18   38 1
    26   19   20 1
    27   19   21 1
    28   19   39 1
    29   20   40 1
    30   21   22 1
    31   21   41 1
    32   22   23 ar
    33   22   32 ar
    34   23   24 ar
    35   23   42 1
    36   24   25 ar
    37   25   26 ar
    38   25   32 ar
    39   26   27 2
    40   26   28 ar
    41   28   29 ar
    42   28   43 1
    43   29   30 1
    44   29   31 ar
    45   30   44 1
    46   30   45 1
    47   31   32 ar
    48   31   46 1
@<TRIPOS>SUBSTRUCTURE
     1 GTP         1 GROUP 0 A     ****
@<TRIPOS>MOLECULE
[[[5-(2-amino-6-oxo-1,3-dihydropurin-2-ylium-9-yl)-3,4-dihydroxy-tetrahydrofuran-2-yl]methoxy-oxido-phosphoryl]oxy-oxido-phosphoryl] hydrogen phosphate
   46    48     1     0     0
SMALL
USER_CHARGES

@<TRIPOS>ATOM
      1 PG         -5.2151   -0.6506   -2.0572 P.3       1 GTP         1.5400
      2 O1G        -4.4166   -1.9286   -2.1859 O.co2     1 GTP        -0.8909
      3 O2G        -6.6979   -0.6870   -1.7612 O.co2     1 GTP        -0.8909
      4 O3G        -4.9763    0.2476   -3.3997 O.3       1 GTP        -0.7980
      5 O3B        -4.4833    0.3261   -0.9736 O.3       1 GTP        -0.7612
      6 PB         -4.8201    1.8698   -0.5622 P.3       1 GTP         1.5847
      7 O1B        -4.5561    2.7587   -1.7570 O.co2     1 GTP        -0.8859
      8 O2B        -6.1397    1.9068    0.1760 O.co2     1 GTP        -0.8859
      9 O3A        -3.6558    2.1022    0.5582 O.3       1 GTP        -0.7486
     10 PA         -3.3161    3.4234    1.4576 P.3       1 GTP         1.5001
     11 O1A        -2.8773    4.5400    0.5352 O.co2     1 GTP        -0.8487
     12 O2A        -4.4325    3.6284    2.4582 O.co2     1 GTP        -0.8487
     13 O5'        -2.0401    2.8620    2.3128 O.3       1 GTP        -0.5474
     14 C5'        -0.8811    2.4285    1.6206 C.3       1 GTP         0.2547
     15 C4'        -0.1994    1.3333    2.4288 C.3       1 GTP         0.0926
     16 O4'        -1.1285    0.2356    2.5840 O.3       1 GTP        -0.3593
     17 C3'         1.0324    0.7610    1.7344 C.3       1 GTP         0.0907
     18 O3'         1.9175    0.2377    2.7247 O.3       1 GTP        -0.5209
     19 C2'         0.4468   -0.3802    0.9263 C.3       1 GTP         0.0305
     20 O2'         1.3993   -1.3703    0.5961 O.3       1 GTP        -0.5978
     21 C1'        -0.6159   -0.9100    1.8769 C.3       1 GTP         0.2339
     22 N9         -1.7127   -1.6108    1.2130 N.pl3     1 GTP        -0.1765
     23 C8         -3.0389   -1.2578    1.2391 C.ar      1 GTP         0.4947
     24 N7         -3.7909   -2.0880    0.5425 N.2       1 GTP        -0.5802
     25 C5         -2.9127   -3.0150    0.0458 C.ar      1 GTP         0.2279
     26 C6         -3.2467   -4.1411   -0.7860 C.ar      1 GTP         0.6513
     27 O6         -4.3761   -4.4189   -1.1621 O.2       1 GTP        -0.5111
     28 N1         -2.0748   -4.9191   -1.1296 N.pl3     1 GTP        -0.4713
     29 C2         -0.7595   -4.6181   -0.7058 C.ar      1 GTP         0.5256
     30 N2          0.2985   -5.4268   -1.0920 N.pl3     1 GTP        -0.8665
     31 N3         -0.5304   -3.4919    0.1084 N.pl3     1 GTP        -0.5398
     32 C4         -1.6318   -2.7332    0.4512 C.ar      1 GTP        -0.0275
     33 HOG3       -5.4307    1.1143   -3.4685 H         1 GTP         0.4161
     34 H5'        -1.1767    2.0502    0.6368 H         1 GTP         0.0348
     35 H5''       -0.2080    3.2814    1.4876 H         1 GTP         0.0348
     36 H4'         0.0403    1.7078    3.4343 H         1 GTP         0.1215
     37 H3'         1.5907    1.4859    1.1353 H         1 GTP         0.0576
     38 HO3'        2.6839   -0.1150    2.2479 H         1 GTP         0.3842
     39 H2'        -0.0017    0.0018    0.0005 H         1 GTP         0.0252
     40 HO2'        2.0953   -0.9375    0.0709 H         1 GTP         0.4224
     41 H1'        -0.1998   -1.6319    2.6178 H         1 GTP         0.0745
     42 H8         -3.3933   -0.3909    1.7800 H         1 GTP         0.1522
     43 HN1        -2.2071   -5.7408   -1.7178 H         1 GTP         0.3518
     44 HN21        1.1896   -5.1751   -0.7715 H         1 GTP         0.4761
     45 HN22        0.0846   -6.1966   -1.6593 H         1 GTP         0.4761
     46 H46         0.4142   -3.2695    0.4160 H         1 GTP         0.5030
@<TRIPOS>BOND
     1    1    2 2
     2    1    3 1
     3    1    4 1
     4    1    5 1
     5    4   33 1
     6    5    6 1
     7    6    7 2
     8    6    8 1
     9    6    9 1
    10    9   10 1
    11   10   11 2
    12   10   12 1
    13   10   13 1
    14   13   14 1
    15   14   15 1
    16   14   34 1
    17   14   35 1
    18   15   16 1
    19   15   17 1
    20   15   36 1
    21   16   21 1
    22   17   18 1
    23   17   19 1
    24   17   37 1
    25   18   38 1
    26   19   20 1
    27   19   21 1
    28   19   39 1
    29   20   40 1
    30   21   22 1
    31   21   41 1
    32   22   23 ar
    33   22   32 ar
    34   23   24 ar
    35   23   42 1
    36   24   25 ar
    37   25   26 ar
    38   25   32 ar
    39   26   27 2
    40   26   28 ar
    41   28   29 ar
    42   28   43 1
    43   29   30 1
    44   29   31 ar
    45   30   44 1
    46   30   45 1
    47   31   32 ar
    48   31   46 1
@<TRIPOS>SUBSTRUCTURE
     1 GTP         1 GROUP 0 A     ****
@<TRIPOS>MOLECULE
[[[5-(2-amino-6-oxo-1,3-dihydropurin-2-ylium-9-yl)-3,4-dihydroxy-tetrahydrofuran-2-yl]methoxy-oxido-phosphoryl]oxy-oxido-phosphoryl] hydrogen phosphate
   46    48     1     0     0
SMALL
USER_CHARGES

@<TRIPOS>ATOM
      1 PG         -4.7893    5.0412    2.5237 P.3       1 GTP         1.5400
      2 O1G        -4.1805    3.9269    1.7020 O.co2     1 GTP        -0.8909
      3 O2G        -5.2997    4.7846    3.9242 O.co2     1 GTP        -0.8909
      4 O3G        -5.9861    5.7324    1.6543 O.3       1 GTP        -0.7980
      5 O3B        -3.7524    6.3010    2.5612 O.3       1 GTP        -0.7612
      6 PB         -2.2801    6.4236    3.2561 P.3       1 GTP         1.5847
      7 O1B        -1.6759    7.7580    2.8797 O.co2     1 GTP        -0.8859
      8 O2B        -2.3762    5.9764    4.6977 O.co2     1 GTP        -0.8859
      9 O3A        -1.5104    5.2300    2.4511 O.3       1 GTP        -0.7486
     10 PA          0.0330    4.7083    2.5757 P.3       1 GTP         1.5001
     11 O1A         0.9597    5.8217    2.1376 O.co2     1 GTP        -0.8487
     12 O2A         0.2074    4.0270    3.9155 O.co2     1 GTP        -0.8487
     13 O5'         0.0178    3.5131    1.4595 O.3       1 GTP        -0.5474
     14 C5'        -0.8811    2.4285    1.6206 C.3       1 GTP         0.2547
     15 C4'        -0.1994    1.3333    2.4288 C.3       1 GTP         0.0926
     16 O4'        -1.1285    0.2356    2.5840 O.3       1 GTP        -0.3593
     17 C3'         1.0324    0.7610    1.7344 C.3       1 GTP         0.0907
     18 O3'         1.9175    0.2377    2.7247 O.3       1 GTP        -0.5209
     19 C2'         0.4468   -0.3802    0.9263 C.3       1 GTP         0.0305
     20 O2'         1.3993   -1.3703    0.5961 O.3       1 GTP        -0.5978
     21 C1'        -0.6159   -0.9100    1.8769 C.3       1 GTP         0.2339
     22 N9         -1.7127   -1.6108    1.2130 N.pl3     1 GTP        -0.1765
     23 C8         -1.7789   -2.9564    0.9503 C.ar      1 GTP         0.4947
     24 N7         -2.8980   -3.2916    0.3377 N.2       1 GTP        -0.5802
     25 C5         -3.5824   -2.1127    0.2000 C.ar      1 GTP         0.2279
     26 C6         -4.8740   -1.9471   -0.4133 C.ar      1 GTP         0.6513
     27 O6         -5.5366   -2.8529   -0.8978 O.2       1 GTP        -0.5111
     28 N1         -5.3036   -0.5645   -0.3916 N.pl3     1 GTP        -0.4713
     29 C2         -4.5545    0.4997    0.1619 C.ar      1 GTP         0.5256
     30 N2         -5.0561    1.7921    0.1348 N.pl3     1 GTP        -0.8665
     31 N3         -3.2977    0.2393    0.7420 N.pl3     1 GTP        -0.5398
     32 C4         -2.8643   -1.0716    0.7336 C.ar      1 GTP        -0.0275
     33 HOG3       -6.4827    6.4781    2.0540 H         1 GTP         0.4161
     34 H5'        -1.7771    2.7849    2.1387 H         1 GTP         0.0348
     35 H5''       -1.1654    2.0541    0.6320 H         1 GTP         0.0348
     36 H4'         0.0403    1.7078    3.4343 H         1 GTP         0.1215
     37 H3'         1.5907    1.4859    1.1353 H         1 GTP         0.0576
     38 HO3'        2.6839   -0.1150    2.2479 H         1 GTP         0.3842
     39 H2'        -0.0017    0.0018    0.0005 H         1 GTP         0.0252
     40 HO2'        2.0953   -0.9375    0.0709 H         1 GTP         0.4224
     41 H1'        -0.1998   -1.6319    2.6178 H         1 GTP         0.0745
     42 H8         -0.9852   -3.6367    1.2276 H         1 GTP         0.1522
     43 HN1        -6.2089   -0.3428   -0.8039 H         1 GTP         0.3518
     44 HN21       -4.4981    2.4933    0.5311 H         1 GTP         0.4761
     45 HN22       -5.9352    1.9183   -0.2793 H         1 GTP         0.4761
     46 H46        -2.7541    1.0010    1.1428 H         1 GTP         0.5030
@<TRIPOS>BOND
     1    1    2 2
     2    1    3 1
     3    1    4 1
     4    1    5 1
     5    4   33 1
     6    5    6 1
     7    6    7 2
     8    6    8 1
     9    6    9 1
    10    9   10 1
    11   10   11 2
    12   10   12 1
    13   10   13 1
    14   13   14 1
    15   14   15 1
    16   14   34 1
    17   14   35 1
    18   15   16 1
    19   15   17 1
    20   15   36 1
    21   16   21 1
    22   17   18 1
    23   17   19 1
    24   17   37 1
    25   18   38 1
    26   19   20 1
    27   19   21 1
    28   19   39 1
    29   20   40 1
    30   21   22 1
    31   21   41 1
    32   22   23 ar
    33   22   32 ar
    34   23   24 ar
    35   23   42 1
    36   24   25 ar
    37   25   26 ar
    38   25   32 ar
    39   26   27 2
    40   26   28 ar
    41   28   29 ar
    42   28   43 1
    43   29   30 1
    44   29   31 ar
    45   30   44 1
    46   30   45 1
    47   31   32 ar
    48   31   46 1
@<TRIPOS>SUBSTRUCTURE
     1 GTP         1 GROUP 0 A     ****
@<TRIPOS>MOLECULE
[[[5-(2-amino-6-oxo-1,3-dihydropurin-2-ylium-9-yl)-3,4-dihydroxy-tetrahydrofuran-2-yl]methoxy-oxido-phosphoryl]oxy-oxido-phosphoryl] hydrogen phosphate
   46    48     1     0     0
SMALL
USER_CHARGES

@<TRIPOS>ATOM
      1 PG         -1.4587    5.6568    7.0751 P.3       1 GTP         1.5400
      2 O1G        -2.8314    6.2119    6.7667 O.co2     1 GTP        -0.8909
      3 O2G        -1.2409    4.7309    8.2511 O.co2     1 GTP        -0.8909
      4 O3G        -0.4104    6.9028    7.1952 O.3       1 GTP        -0.7980
      5 O3B        -0.8551    4.9554    5.7307 O.3       1 GTP        -0.7612
      6 PB          0.6299    4.3378    5.4500 P.3       1 GTP         1.5847
      7 O1B         1.6386    5.4641    5.4887 O.co2     1 GTP        -0.8859
      8 O2B         0.8086    3.0860    6.2798 O.co2     1 GTP        -0.8859
      9 O3A         0.4215    3.8453    3.9076 O.3       1 GTP        -0.7486
     10 PA          0.0330    4.7083    2.5757 P.3       1 GTP         1.5001
     11 O1A        -1.3584    5.2766    2.7529 O.co2     1 GTP        -0.8487
     12 O2A         1.2023    5.5996    2.2180 O.co2     1 GTP        -0.8487
     13 O5'         0.0178    3.5131    1.4595 O.3       1 GTP        -0.5474
     14 C5'        -0.8811    2.4285    1.6206 C.3       1 GTP         0.2547
     15 C4'        -0.1994    1.3333    2.4288 C.3       1 GTP         0.0926
     16 O4'        -1.1285    0.2356    2.5840 O.3       1 GTP        -0.3593
     17 C3'         1.0324    0.7610    1.7344 C.3       1 GTP         0.0907
     18 O3'         1.9175    0.2377    2.7247 O.3       1 GTP        -0.5209
     19 C2'         0.4468   -0.3802    0.9263 C.3       1 GTP         0.0305
     20 O2'         1.3993   -1.3703    0.5961 O.3       1 GTP        -0.5978
     21 C1'        -0.6159   -0.9100    1.8769 C.3       1 GTP         0.2339
     22 N9         -1.7127   -1.6108    1.2130 N.pl3     1 GTP        -0.1765
     23 C8         -1.7789   -2.9564    0.9503 C.ar      1 GTP         0.4947
     24 N7         -2.8980   -3.2916    0.3377 N.2       1 GTP        -0.5802
     25 C5         -3.5824   -2.1127    0.2000 C.ar      1 GTP         0.2279
     26 C6         -4.8740   -1.9471   -0.4133 C.ar      1 GTP         0.6513
     27 O6         -5.5366   -2.8529   -0.8978 O.2       1 GTP        -0.5111
     28 N1         -5.3036   -0.5645   -0.3916 N.pl3     1 GTP        -0.4713
     29 C2         -4.5545    0.4997    0.1619 C.ar      1 GTP         0.5256
     30 N2         -5.0561    1.7921    0.1348 N.pl3     1 GTP        -0.8665
     31 N3         -3.2977    0.2393    0.7420 N.pl3     1 GTP        -0.5398
     32 C4         -2.8643   -1.0716    0.7336 C.ar      1 GTP        -0.0275
     33 HOG3        0.5296    6.7046    7.3937 H         1 GTP         0.4161
     34 H5'        -1.7771    2.7849    2.1387 H         1 GTP         0.0348
     35 H5''       -1.1654    2.0541    0.6320 H         1 GTP         0.0348
     36 H4'         0.0403    1.7078    3.4343 H         1 GTP         0.1215
     37 H3'         1.5907    1.4859    1.1353 H         1 GTP         0.0576
     38 HO3'        2.6839   -0.1150    2.2479 H         1 GTP         0.3842
     39 H2'        -0.0017    0.0018    0.0005 H         1 GTP         0.0252
     40 HO2'        2.0953   -0.9375    0.0709 H         1 GTP         0.4224
     41 H1'        -0.1998   -1.6319    2.6178 H         1 GTP         0.0745
     42 H8         -0.9852   -3.6367    1.2276 H         1 GTP         0.1522
     43 HN1        -6.2089   -0.3428   -0.8039 H         1 GTP         0.3518
     44 HN21       -4.4981    2.4933    0.5311 H         1 GTP         0.4761
     45 HN22       -5.9352    1.9183   -0.2793 H         1 GTP         0.4761
     46 H46        -2.7541    1.0010    1.1428 H         1 GTP         0.5030
@<TRIPOS>BOND
     1    1    2 2
     2    1    3 1
     3    1    4 1
     4    1    5 1
     5    4   33 1
     6    5    6 1
     7    6    7 2
     8    6    8 1
     9    6    9 1
    10    9   10 1
    11   10   11 2
    12   10   12 1
    13   10   13 1
    14   13   14 1
    15   14   15 1
    16   14   34 1
    17   14   35 1
    18   15   16 1
    19   15   17 1
    20   15   36 1
    21   16   21 1
    22   17   18 1
    23   17   19 1
    24   17   37 1
    25   18   38 1
    26   19   20 1
    27   19   21 1
    28   19   39 1
    29   20   40 1
    30   21   22 1
    31   21   41 1
    32   22   23 ar
    33   22   32 ar
    34   23   24 ar
    35   23   42 1
    36   24   25 ar
    37   25   26 ar
    38   25   32 ar
    39   26   27 2
    40   26   28 ar
    41   28   29 ar
    42   28   43 1
    43   29   30 1
    44   29   31 ar
    45   30   44 1
    46   30   45 1
    47   31   32 ar
    48   31   46 1
@<TRIPOS>SUBSTRUCTURE
     1 GTP         1 GROUP 0 A     ****
@<TRIPOS>MOLECULE
[[[5-(2-amino-6-oxo-1,3-dihydropurin-2-ylium-9-yl)-3,4-dihydroxy-tetrahydrofuran-2-yl]methoxy-oxido-phosphoryl]oxy-oxido-phosphoryl] hydrogen phosphate
   46    48     1     0     0
SMALL
USER_CHARGES

@<TRIPOS>ATOM
      1 PG         -6.1386    6.1296    2.2918 P.3       1 GTP         1.5400
      2 O1G        -6.0991    7.6341    2.4416 O.co2     1 GTP        -0.8909
      3 O2G        -6.9165    5.4805    1.1687 O.co2     1 GTP        -0.8909
      4 O3G        -6.6314    5.4803    3.7065 O.3       1 GTP        -0.7980
      5 O3B        -4.6103    5.5570    2.2766 O.3       1 GTP        -0.7612
      6 PB         -3.3947    5.7923    3.3408 P.3       1 GTP         1.5847
      7 O1B        -3.0006    7.2522    3.3116 O.co2     1 GTP        -0.8859
      8 O2B        -3.7304    5.0886    4.6367 O.co2     1 GTP        -0.8859
      9 O3A        -2.2357    4.9001    2.6158 O.3       1 GTP        -0.7486
     10 PA         -0.6907    4.6220    3.0690 P.3       1 GTP         1.5001
     11 O1A         0.0690    5.9304    3.0361 O.co2     1 GTP        -0.8487
     12 O2A        -0.6982    3.7527    4.3075 O.co2     1 GTP        -0.8487
     13 O5'        -0.2062    3.6557    1.8417 O.3       1 GTP        -0.5474
     14 C5'        -0.8811    2.4285    1.6206 C.3       1 GTP         0.2547
     15 C4'        -0.1994    1.3333    2.4288 C.3       1 GTP         0.0926
     16 O4'        -1.1285    0.2356    2.5840 O.3       1 GTP        -0.3593
     17 C3'         1.0324    0.7610    1.7344 C.3       1 GTP         0.0907
     18 O3'         1.9175    0.2377    2.7247 O.3       1 GTP        -0.5209
     19 C2'         0.4468   -0.3802    0.9263 C.3       1 GTP         0.0305
     20 O2'         1.3993   -1.3703    0.5961 O.3       1 GTP        -0.5978
     21 C1'        -0.6159   -0.9100    1.8769 C.3       1 GTP         0.2339
     22 N9         -1.7127   -1.6108    1.2130 N.pl3     1 GTP        -0.1765
     23 C8         -2.5534   -1.0907    0.2607 C.ar      1 GTP         0.4947
     24 N7         -3.4469   -1.9695   -0.1508 N.2       1 GTP        -0.5802
     25 C5         -3.1705   -3.1041    0.5657 C.ar      1 GTP         0.2279
     26 C6         -3.8738   -4.3568    0.4777 C.ar      1 GTP         0.6513
     27 O6         -4.8240   -4.5720   -0.2607 O.2       1 GTP        -0.5111
     28 N1         -3.3198   -5.3462    1.3780 N.pl3     1 GTP        -0.4713
     29 C2         -2.2226   -5.1203    2.2413 C.ar      1 GTP         0.5256
     30 N2         -1.7649   -6.1367    3.0659 N.pl3     1 GTP        -0.8665
     31 N3         -1.5969   -3.8585    2.2574 N.pl3     1 GTP        -0.5398
     32 C4         -2.1068   -2.8965    1.4082 C.ar      1 GTP        -0.0275
     33 HOG3       -6.7088    4.5045    3.7705 H         1 GTP         0.4161
     34 H5'        -1.9256    2.5380    1.9293 H         1 GTP         0.0348
     35 H5''       -0.8474    2.1930    0.5521 H         1 GTP         0.0348
     36 H4'         0.0403    1.7078    3.4343 H         1 GTP         0.1215
     37 H3'         1.5907    1.4859    1.1353 H         1 GTP         0.0576
     38 HO3'        2.1521    0.9800    3.3017 H         1 GTP         0.3842
     39 H2'        -0.0017    0.0018    0.0005 H         1 GTP         0.0252
     40 HO2'        0.9369   -2.0558    0.0825 H         1 GTP         0.4224
     41 H1'        -0.1998   -1.6319    2.6178 H         1 GTP         0.0745
     42 H8         -2.4657   -0.0713   -0.0897 H         1 GTP         0.1522
     43 HN1        -3.7505   -6.2699    1.3904 H         1 GTP         0.3518
     44 HN21       -1.0023   -5.9289    3.6451 H         1 GTP         0.4761
     45 HN22       -2.2347   -6.9951    3.0150 H         1 GTP         0.4761
     46 H46        -0.8062   -3.6900    2.8760 H         1 GTP         0.5030
@<TRIPOS>BOND
     1    1    2 2
     2    1    3 1
     3    1    4 1
     4    1    5 1
     5    4   33 1
     6    5    6 1
     7    6    7 2
     8    6    8 1
     9    6    9 1
    10    9   10 1
    11   10   11 2
    12   10   12 1
    13   10   13 1
    14   13   14 1
    15   14   15 1
    16   14   34 1
    17   14   35 1
    18   15   16 1
    19   15   17 1
    20   15   36 1
    21   16   21 1
    22   17   18 1
    23   17   19 1
    24   17   37 1
    25   18   38 1
    26   19   20 1
    27   19   21 1
    28   19   39 1
    29   20   40 1
    30   21   22 1
    31   21   41 1
    32   22   23 ar
    33   22   32 ar
    34   23   24 ar
    35   23   42 1
    36   24   25 ar
    37   25   26 ar
    38   25   32 ar
    39   26   27 2
    40   26   28 ar
    41   28   29 ar
    42   28   43 1
    43   29   30 1
    44   29   31 ar
    45   30   44 1
    46   30   45 1
    47   31   32 ar
    48   31   46 1
@<TRIPOS>SUBSTRUCTURE
     1 GTP         1 GROUP 0 A     ****
@<TRIPOS>MOLECULE
[[[5-(2-amino-6-oxo-1,3-dihydropurin-2-ylium-9-yl)-3,4-dihydroxy-tetrahydrofuran-2-yl]methoxy-oxido-phosphoryl]oxy-oxido-phosphoryl] hydrogen phosphate
   46    48     1     0     0
SMALL
USER_CHARGES

@<TRIPOS>ATOM
      1 PG          8.9980    6.1833    0.4629 P.3       1 GTP         1.5400
      2 O1G         9.4988    5.9926   -0.9514 O.co2     1 GTP        -0.8909
      3 O2G         8.4454    7.5154    0.9188 O.co2     1 GTP        -0.8909
      4 O3G        10.1781    5.7304    1.4964 O.3       1 GTP        -0.7980
      5 O3B         7.9104    5.0150    0.8033 O.3       1 GTP        -0.7612
      6 PB          7.1737    4.6506    2.2140 P.3       1 GTP         1.5847
      7 O1B         8.2175    4.1643    3.1946 O.co2     1 GTP        -0.8859
      8 O2B         6.2107    5.7616    2.5689 O.co2     1 GTP        -0.8859
      9 O3A         6.2638    3.3900    1.7164 O.3       1 GTP        -0.7486
     10 PA          5.2202    2.4549    2.5568 P.3       1 GTP         1.5001
     11 O1A         5.9920    1.6905    3.6105 O.co2     1 GTP        -0.8487
     12 O2A         4.0108    3.2873    2.9229 O.co2     1 GTP        -0.8487
     13 O5'         4.7294    1.4427    1.3696 O.3       1 GTP        -0.5474
     14 C5'         4.0922    1.9801    0.2227 C.3       1 GTP         0.2547
     15 C4'         2.5944    2.0310    0.4653 C.3       1 GTP         0.0926
     16 O4'         1.9327    2.5740   -0.6889 O.3       1 GTP        -0.3593
     17 C3'         1.9685    0.6634    0.6767 C.3       1 GTP         0.0907
     18 O3'         2.1425    0.1975    1.9977 O.3       1 GTP        -0.5209
     19 C2'         0.5176    0.9128    0.3099 C.3       1 GTP         0.0305
     20 O2'        -0.2103    1.4454    1.4152 O.3       1 GTP        -0.5978
     21 C1'         0.6219    1.9765   -0.7844 C.3       1 GTP         0.2339
     22 N9          0.4237    1.4496   -2.1357 N.pl3     1 GTP        -0.1765
     23 C8          1.3988    0.9691   -2.9736 C.ar      1 GTP         0.4947
     24 N7          0.9092    0.5634   -4.1293 N.2       1 GTP        -0.5802
     25 C5         -0.4383    0.7914   -4.0325 C.ar      1 GTP         0.2279
     26 C6         -1.4217    0.5138   -5.0461 C.ar      1 GTP         0.6513
     27 O6         -1.1759    0.0306   -6.1417 O.2       1 GTP        -0.5111
     28 N1         -2.7543    0.8794   -4.6134 N.pl3     1 GTP        -0.4713
     29 C2         -3.0626    1.4402   -3.3523 C.ar      1 GTP         0.5256
     30 N2         -4.3747    1.7544   -3.0321 N.pl3     1 GTP        -0.8665
     31 N3         -2.0304    1.6759   -2.4233 N.pl3     1 GTP        -0.5398
     32 C4         -0.7497    1.3366   -2.8118 C.ar      1 GTP        -0.0275
     33 HOG3       10.0054    5.7958    2.4598 H         1 GTP         0.4161
     34 H5'         4.4843    2.9854    0.0380 H         1 GTP         0.0348
     35 H5''        4.3191    1.3446   -0.6392 H         1 GTP         0.0348
     36 H4'         2.3752    2.7029    1.3156 H         1 GTP         0.1215
     37 H3'         2.4336   -0.1217   -0.0015 H         1 GTP         0.0576
     38 HO3'        3.0987    0.1465    2.1461 H         1 GTP         0.3842
     39 H2'         0.0316    0.0155   -0.0339 H         1 GTP         0.0252
     40 HO2'       -0.1608    0.7921    2.1351 H         1 GTP         0.4224
     41 H1'        -0.1474    2.7798   -0.6651 H         1 GTP         0.0745
     42 H8          2.4413    0.9409   -2.6872 H         1 GTP         0.1522
     43 HN1        -3.5236    0.7214   -5.2629 H         1 GTP         0.3518
     44 HN21       -4.5350    2.1409   -2.1461 H         1 GTP         0.4761
     45 HN22       -5.0542    1.5695   -3.7134 H         1 GTP         0.4761
     46 H46        -2.2462    2.0786   -1.5136 H         1 GTP         0.5030
@<TRIPOS>BOND
     1    1    2 2
     2    1    3 1
     3    1    4 1
     4    1    5 1
     5    4   33 1
     6    5    6 1
     7    6    7 2
     8    6    8 1
     9    6    9 1
    10    9   10 1
    11   10   11 2
    12   10   12 1
    13   10   13 1
    14   13   14 1
    15   14   15 1
    16   14   34 1
    17   14   35 1
    18   15   16 1
    19   15   17 1
    20   15   36 1
    21   16   21 1
    22   17   18 1
    23   17   19 1
    24   17   37 1
    25   18   38 1
    26   19   20 1
    27   19   21 1
    28   19   39 1
    29   20   40 1
    30   21   22 1
    31   21   41 1
    32   22   23 ar
    33   22   32 ar
    34   23   24 ar
    35   23   42 1
    36   24   25 ar
    37   25   26 ar
    38   25   32 ar
    39   26   27 2
    40   26   28 ar
    41   28   29 ar
    42   28   43 1
    43   29   30 1
    44   29   31 ar
    45   30   44 1
    46   30   45 1
    47   31   32 ar
    48   31   46 1
@<TRIPOS>SUBSTRUCTURE
     1 GTP         1 GROUP 0 A     ****
@<TRIPOS>MOLECULE
[[[5-(2-amino-6-oxo-1,3-dihydropurin-2-ylium-9-yl)-3,4-dihydroxy-tetrahydrofuran-2-yl]methoxy-oxido-phosphoryl]oxy-oxido-phosphoryl] hydrogen phosphate
   46    48     1     0     0
SMALL
USER_CHARGES

@<TRIPOS>ATOM
      1 PG         -2.5446    4.1848   -2.5264 P.3       1 GTP         1.5400
      2 O1G        -1.0546    4.3368   -2.7368 O.co2     1 GTP        -0.8909
      3 O2G        -3.1505    2.8372   -2.2033 O.co2     1 GTP        -0.8909
      4 O3G        -3.3175    4.8028   -3.8251 O.3       1 GTP        -0.7980
      5 O3B        -3.0364    5.2676   -1.4085 O.3       1 GTP        -0.7612
      6 PB         -2.6935    5.3543    0.1854 P.3       1 GTP         1.5847
      7 O1B        -1.1911    5.3598    0.3585 O.co2     1 GTP        -0.8859
      8 O2B        -3.5676    6.4123    0.8211 O.co2     1 GTP        -0.8859
      9 O3A        -3.2920    3.9119    0.6609 O.3       1 GTP        -0.7486
     10 PA         -3.3347    3.2338    2.1468 P.3       1 GTP         1.5001
     11 O1A        -4.0274    4.1866    3.0968 O.co2     1 GTP        -0.8487
     12 O2A        -3.7889    1.7968    2.0106 O.co2     1 GTP        -0.8487
     13 O5'        -1.7336    3.1724    2.4750 O.3       1 GTP        -0.5474
     14 C5'        -0.8811    2.4285    1.6206 C.3       1 GTP         0.2547
     15 C4'        -0.1994    1.3333    2.4288 C.3       1 GTP         0.0926
     16 O4'        -1.1285    0.2356    2.5840 O.3       1 GTP        -0.3593
     17 C3'         1.0324    0.7610    1.7344 C.3       1 GTP         0.0907
     18 O3'         1.9175    0.2377    2.7247 O.3       1 GTP        -0.5209
     19 C2'         0.4468   -0.3802    0.9263 C.3       1 GTP         0.0305
     20 O2'         1.3993   -1.3703    0.5961 O.3       1 GTP        -0.5978
     21 C1'        -0.6159   -0.9100    1.8769 C.3       1 GTP         0.2339
     22 N9         -1.7127   -1.6108    1.2130 N.pl3     1 GTP        -0.1765
     23 C8         -3.0389   -1.2578    1.2391 C.ar      1 GTP         0.4947
     24 N7         -3.7909   -2.0880    0.5425 N.2       1 GTP        -0.5802
     25 C5         -2.9127   -3.0150    0.0458 C.ar      1 GTP         0.2279
     26 C6         -3.2467   -4.1411   -0.7860 C.ar      1 GTP         0.6513
     27 O6         -4.3761   -4.4189   -1.1621 O.2       1 GTP        -0.5111
     28 N1         -2.0748   -4.9191   -1.1296 N.pl3     1 GTP        -0.4713
     29 C2         -0.7595   -4.6181   -0.7058 C.ar      1 GTP         0.5256
     30 N2          0.2985   -5.4268   -1.0920 N.pl3     1 GTP        -0.8665
     31 N3         -0.5304   -3.4919    0.1084 N.pl3     1 GTP        -0.5398
     32 C4         -1.6318   -2.7332    0.4512 C.ar      1 GTP        -0.0275
     33 HOG3       -4.2980    4.7787   -3.8401 H         1 GTP         0.4161
     34 H5'        -1.4800    1.9927    0.8146 H         1 GTP         0.0348
     35 H5''       -0.1367    3.1040    1.1872 H         1 GTP         0.0348
     36 H4'         0.0403    1.7078    3.4343 H         1 GTP         0.1215
     37 H3'         1.5907    1.4859    1.1353 H         1 GTP         0.0576
     38 HO3'        2.6839   -0.1150    2.2479 H         1 GTP         0.3842
     39 H2'        -0.0017    0.0018    0.0005 H         1 GTP         0.0252
     40 HO2'        2.0953   -0.9375    0.0709 H         1 GTP         0.4224
     41 H1'        -0.1998   -1.6319    2.6178 H         1 GTP         0.0745
     42 H8         -3.3933   -0.3909    1.7800 H         1 GTP         0.1522
     43 HN1        -2.2071   -5.7408   -1.7178 H         1 GTP         0.3518
     44 HN21        1.1896   -5.1751   -0.7715 H         1 GTP         0.4761
     45 HN22        0.0846   -6.1966   -1.6593 H         1 GTP         0.4761
     46 H46         0.4142   -3.2695    0.4160 H         1 GTP         0.5030
@<TRIPOS>BOND
     1    1    2 2
     2    1    3 1
     3    1    4 1
     4    1    5 1
     5    4   33 1
     6    5    6 1
     7    6    7 2
     8    6    8 1
     9    6    9 1
    10    9   10 1
    11   10   11 2
    12   10   12 1
    13   10   13 1
    14   13   14 1
    15   14   15 1
    16   14   34 1
    17   14   35 1
    18   15   16 1
    19   15   17 1
    20   15   36 1
    21   16   21 1
    22   17   18 1
    23   17   19 1
    24   17   37 1
    25   18   38 1
    26   19   20 1
    27   19   21 1
    28   19   39 1
    29   20   40 1
    30   21   22 1
    31   21   41 1
    32   22   23 ar
    33   22   32 ar
    34   23   24 ar
    35   23   42 1
    36   24   25 ar
    37   25   26 ar
    38   25   32 ar
    39   26   27 2
    40   26   28 ar
    41   28   29 ar
    42   28   43 1
    43   29   30 1
    44   29   31 ar
    45   30   44 1
    46   30   45 1
    47   31   32 ar
    48   31   46 1
@<TRIPOS>SUBSTRUCTURE
     1 GTP         1 GROUP 0 A     ****
@<TRIPOS>MOLECULE
[[[5-(2-amino-6-oxo-1,3-dihydropurin-2-ylium-9-yl)-3,4-dihydroxy-tetrahydrofuran-2-yl]methoxy-oxido-phosphoryl]oxy-oxido-phosphoryl] hydrogen phosphate
   46    48     1     0     0
SMALL
USER_CHARGES

@<TRIPOS>ATOM
      1 PG         -6.4651    2.3631   -1.4325 P.3       1 GTP         1.5400
      2 O1G        -7.7150    2.9655   -0.8305 O.co2     1 GTP        -0.8909
      3 O2G        -6.1429    2.5457   -2.8990 O.co2     1 GTP        -0.8909
      4 O3G        -6.4429    0.7664   -1.0917 O.3       1 GTP        -0.7980
      5 O3B        -5.1740    2.8224   -0.5460 O.3       1 GTP        -0.7612
      6 PB         -4.5154    4.3030   -0.3467 P.3       1 GTP         1.5847
      7 O1B        -3.9508    4.7648   -1.6716 O.co2     1 GTP        -0.8859
      8 O2B        -5.4696    5.1640    0.4507 O.co2     1 GTP        -0.8859
      9 O3A        -3.2920    3.9119    0.6609 O.3       1 GTP        -0.7486
     10 PA         -3.3347    3.2338    2.1468 P.3       1 GTP         1.5001
     11 O1A        -4.0274    4.1866    3.0968 O.co2     1 GTP        -0.8487
     12 O2A        -3.7889    1.7968    2.0106 O.co2     1 GTP        -0.8487
     13 O5'        -1.7336    3.1724    2.4750 O.3       1 GTP        -0.5474
     14 C5'        -0.8811    2.4285    1.6206 C.3       1 GTP         0.2547
     15 C4'        -0.1994    1.3333    2.4288 C.3       1 GTP         0.0926
     16 O4'        -1.1285    0.2356    2.5840 O.3       1 GTP        -0.3593
     17 C3'         1.0324    0.7610    1.7344 C.3       1 GTP         0.0907
     18 O3'         1.9175    0.2377    2.7247 O.3       1 GTP        -0.5209
     19 C2'         0.4468   -0.3802    0.9263 C.3       1 GTP         0.0305
     20 O2'         1.3993   -1.3703    0.5961 O.3       1 GTP        -0.5978
     21 C1'        -0.6159   -0.9100    1.8769 C.3       1 GTP         0.2339
     22 N9         -1.7127   -1.6108    1.2130 N.pl3     1 GTP        -0.1765
     23 C8         -3.0389   -1.2578    1.2391 C.ar      1 GTP         0.4947
     24 N7         -3.7909   -2.0880    0.5425 N.2       1 GTP        -0.5802
     25 C5         -2.9127   -3.0150    0.0458 C.ar      1 GTP         0.2279
     26 C6         -3.2467   -4.1411   -0.7860 C.ar      1 GTP         0.6513
     27 O6         -4.3761   -4.4189   -1.1621 O.2       1 GTP        -0.5111
     28 N1         -2.0748   -4.9191   -1.1296 N.pl3     1 GTP        -0.4713
     29 C2         -0.7595   -4.6181   -0.7058 C.ar      1 GTP         0.5256
     30 N2          0.2985   -5.4268   -1.0920 N.pl3     1 GTP        -0.8665
     31 N3         -0.5304   -3.4919    0.1084 N.pl3     1 GTP        -0.5398
     32 C4         -1.6318   -2.7332    0.4512 C.ar      1 GTP        -0.0275
     33 HOG3       -5.6886    0.2301   -1.4168 H         1 GTP         0.4161
     34 H5'        -1.4800    1.9927    0.8146 H         1 GTP         0.0348
     35 H5''       -0.1367    3.1040    1.1872 H         1 GTP         0.0348
     36 H4'         0.0403    1.7078    3.4343 H         1 GTP         0.1215
     37 H3'         1.5907    1.4859    1.1353 H         1 GTP         0.0576
     38 HO3'        2.1521    0.9800    3.3017 H         1 GTP         0.3842
     39 H2'        -0.0017    0.0018    0.0005 H         1 GTP         0.0252
     40 HO2'        1.7495   -1.7243    1.4324 H         1 GTP         0.4224
     41 H1'        -0.1998   -1.6319    2.6178 H         1 GTP         0.0745
     42 H8         -3.3933   -0.3909    1.7800 H         1 GTP         0.1522
     43 HN1        -2.2071   -5.7408   -1.7178 H         1 GTP         0.3518
     44 HN21        0.0848   -6.1964   -1.6597 H         1 GTP         0.4761
     45 HN22        1.1896   -5.1747   -0.7719 H         1 GTP         0.4761
     46 H46         0.4142   -3.2695    0.4160 H         1 GTP         0.5030
@<TRIPOS>BOND
     1    1    2 2
     2    1    3 1
     3    1    4 1
     4    1    5 1
     5    4   33 1
     6    5    6 1
     7    6    7 2
     8    6    8 1
     9    6    9 1
    10    9   10 1
    11   10   11 2
    12   10   12 1
    13   10   13 1
    14   13   14 1
    15   14   15 1
    16   14   34 1
    17   14   35 1
    18   15   16 1
    19   15   17 1
    20   15   36 1
    21   16   21 1
    22   17   18 1
    23   17   19 1
    24   17   37 1
    25   18   38 1
    26   19   20 1
    27   19   21 1
    28   19   39 1
    29   20   40 1
    30   21   22 1
    31   21   41 1
    32   22   23 ar
    33   22   32 ar
    34   23   24 ar
    35   23   42 1
    36   24   25 ar
    37   25   26 ar
    38   25   32 ar
    39   26   27 2
    40   26   28 ar
    41   28   29 ar
    42   28   43 1
    43   29   30 1
    44   29   31 ar
    45   30   44 1
    46   30   45 1
    47   31   32 ar
    48   31   46 1
@<TRIPOS>SUBSTRUCTURE
     1 GTP         1 GROUP 0 A     ****
@<TRIPOS>MOLECULE
[[[5-(2-amino-6-oxo-1,3-dihydropurin-2-ylium-9-yl)-3,4-dihydroxy-tetrahydrofuran-2-yl]methoxy-oxido-phosphoryl]oxy-oxido-phosphoryl] hydrogen phosphate
   46    48     1     0     0
SMALL
USER_CHARGES

@<TRIPOS>ATOM
      1 PG         -4.7887    5.0528    2.5656 P.3       1 GTP         1.5400
      2 O1G        -5.3316    4.1135    1.5118 O.co2     1 GTP        -0.8909
      3 O2G        -4.1513    4.5186    3.8289 O.co2     1 GTP        -0.8909
      4 O3G        -5.9687    6.1011    2.9835 O.3       1 GTP        -0.7980
      5 O3B        -3.7615    6.1064    1.8596 O.3       1 GTP        -0.7612
      6 PB         -2.3073    5.8438    1.1654 P.3       1 GTP         1.5847
      7 O1B        -2.4611    4.7732    0.1082 O.co2     1 GTP        -0.8859
      8 O2B        -1.6609    7.1755    0.8555 O.co2     1 GTP        -0.8859
      9 O3A        -1.5104    5.2300    2.4511 O.3       1 GTP        -0.7486
     10 PA          0.0330    4.7083    2.5757 P.3       1 GTP         1.5001
     11 O1A         0.9597    5.8217    2.1376 O.co2     1 GTP        -0.8487
     12 O2A         0.2074    4.0270    3.9155 O.co2     1 GTP        -0.8487
     13 O5'         0.0178    3.5131    1.4595 O.3       1 GTP        -0.5474
     14 C5'        -0.8811    2.4285    1.6206 C.3       1 GTP         0.2547
     15 C4'        -0.1994    1.3333    2.4288 C.3       1 GTP         0.0926
     16 O4'        -1.1285    0.2356    2.5840 O.3       1 GTP        -0.3593
     17 C3'         1.0324    0.7610    1.7344 C.3       1 GTP         0.0907
     18 O3'         1.9175    0.2377    2.7247 O.3       1 GTP        -0.5209
     19 C2'         0.4468   -0.3802    0.9263 C.3       1 GTP         0.0305
     20 O2'         1.3993   -1.3703    0.5961 O.3       1 GTP        -0.5978
     21 C1'        -0.6159   -0.9100    1.8769 C.3       1 GTP         0.2339
     22 N9         -1.7127   -1.6108    1.2130 N.pl3     1 GTP        -0.1765
     23 C8         -1.7789   -2.9564    0.9503 C.ar      1 GTP         0.4947
     24 N7         -2.8980   -3.2916    0.3377 N.2       1 GTP        -0.5802
     25 C5         -3.5824   -2.1127    0.2000 C.ar      1 GTP         0.2279
     26 C6         -4.8740   -1.9471   -0.4133 C.ar      1 GTP         0.6513
     27 O6         -5.5366   -2.8529   -0.8978 O.2       1 GTP        -0.5111
     28 N1         -5.3036   -0.5645   -0.3916 N.pl3     1 GTP        -0.4713
     29 C2         -4.5545    0.4997    0.1619 C.ar      1 GTP         0.5256
     30 N2         -5.0561    1.7921    0.1348 N.pl3     1 GTP        -0.8665
     31 N3         -3.2977    0.2393    0.7420 N.pl3     1 GTP        -0.5398
     32 C4         -2.8643   -1.0716    0.7336 C.ar      1 GTP        -0.0275
     33 HOG3       -5.7707    6.7803    3.6630 H         1 GTP         0.4161
     34 H5'        -1.7771    2.7849    2.1387 H         1 GTP         0.0348
     35 H5''       -1.1654    2.0541    0.6320 H         1 GTP         0.0348
     36 H4'         0.0403    1.7078    3.4343 H         1 GTP         0.1215
     37 H3'         1.5907    1.4859    1.1353 H         1 GTP         0.0576
     38 HO3'        2.6839   -0.1150    2.2479 H         1 GTP         0.3842
     39 H2'        -0.0017    0.0018    0.0005 H         1 GTP         0.0252
     40 HO2'        0.9369   -2.0558    0.0825 H         1 GTP         0.4224
     41 H1'        -0.1998   -1.6319    2.6178 H         1 GTP         0.0745
     42 H8         -0.9852   -3.6367    1.2276 H         1 GTP         0.1522
     43 HN1        -6.2089   -0.3428   -0.8039 H         1 GTP         0.3518
     44 HN21       -4.4981    2.4933    0.5311 H         1 GTP         0.4761
     45 HN22       -5.9352    1.9183   -0.2793 H         1 GTP         0.4761
     46 H46        -2.7541    1.0010    1.1428 H         1 GTP         0.5030
@<TRIPOS>BOND
     1    1    2 2
     2    1    3 1
     3    1    4 1
     4    1    5 1
     5    4   33 1
     6    5    6 1
     7    6    7 2
     8    6    8 1
     9    6    9 1
    10    9   10 1
    11   10   11 2
    12   10   12 1
    13   10   13 1
    14   13   14 1
    15   14   15 1
    16   14   34 1
    17   14   35 1
    18   15   16 1
    19   15   17 1
    20   15   36 1
    21   16   21 1
    22   17   18 1
    23   17   19 1
    24   17   37 1
    25   18   38 1
    26   19   20 1
    27   19   21 1
    28   19   39 1
    29   20   40 1
    30   21   22 1
    31   21   41 1
    32   22   23 ar
    33   22   32 ar
    34   23   24 ar
    35   23   42 1
    36   24   25 ar
    37   25   26 ar
    38   25   32 ar
    39   26   27 2
    40   26   28 ar
    41   28   29 ar
    42   28   43 1
    43   29   30 1
    44   29   31 ar
    45   30   44 1
    46   30   45 1
    47   31   32 ar
    48   31   46 1
@<TRIPOS>SUBSTRUCTURE
     1 GTP         1 GROUP 0 A     ****
@<TRIPOS>MOLECULE
[[[5-(2-amino-6-oxo-1,3-dihydropurin-2-ylium-9-yl)-3,4-dihydroxy-tetrahydrofuran-2-yl]methoxy-oxido-phosphoryl]oxy-oxido-phosphoryl] hydrogen phosphate
   46    48     1     0     0
SMALL
USER_CHARGES

@<TRIPOS>ATOM
      1 PG         -3.5556    4.4048    5.0834 P.3       1 GTP         1.5400
      2 O1G        -4.2040    4.5437    3.7241 O.co2     1 GTP        -0.8909
      3 O2G        -3.2881    3.0415    5.6814 O.co2     1 GTP        -0.8909
      4 O3G        -4.4132    5.2837    6.1594 O.3       1 GTP        -0.7980
      5 O3B        -2.1728    5.2717    5.1033 O.3       1 GTP        -0.7612
      6 PB         -0.7829    5.0427    4.2780 P.3       1 GTP         1.5847
      7 O1B         0.1413    6.2082    4.5519 O.co2     1 GTP        -0.8859
      8 O2B        -0.3291    3.6119    4.4633 O.co2     1 GTP        -0.8859
      9 O3A        -1.3614    5.1517    2.7554 O.3       1 GTP        -0.7486
     10 PA         -0.5790    5.0299    1.3261 P.3       1 GTP         1.5001
     11 O1A        -1.5962    5.0956    0.2075 O.co2     1 GTP        -0.8487
     12 O2A         0.6189    5.9541    1.3494 O.co2     1 GTP        -0.8487
     13 O5'         0.0178    3.5131    1.4595 O.3       1 GTP        -0.5474
     14 C5'        -0.8811    2.4285    1.6206 C.3       1 GTP         0.2547
     15 C4'        -0.1994    1.3333    2.4288 C.3       1 GTP         0.0926
     16 O4'        -1.1285    0.2356    2.5840 O.3       1 GTP        -0.3593
     17 C3'         1.0324    0.7610    1.7344 C.3       1 GTP         0.0907
     18 O3'         1.9175    0.2377    2.7247 O.3       1 GTP        -0.5209
     19 C2'         0.4468   -0.3802    0.9263 C.3       1 GTP         0.0305
     20 O2'         1.3993   -1.3703    0.5961 O.3       1 GTP        -0.5978
     21 C1'        -0.6159   -0.9100    1.8769 C.3       1 GTP         0.2339
     22 N9         -1.7127   -1.6108    1.2130 N.pl3     1 GTP        -0.1765
     23 C8         -1.7789   -2.9564    0.9503 C.ar      1 GTP         0.4947
     24 N7         -2.8980   -3.2916    0.3377 N.2       1 GTP        -0.5802
     25 C5         -3.5824   -2.1127    0.2000 C.ar      1 GTP         0.2279
     26 C6         -4.8740   -1.9471   -0.4133 C.ar      1 GTP         0.6513
     27 O6         -5.5366   -2.8529   -0.8978 O.2       1 GTP        -0.5111
     28 N1         -5.3036   -0.5645   -0.3916 N.pl3     1 GTP        -0.4713
     29 C2         -4.5545    0.4997    0.1619 C.ar      1 GTP         0.5256
     30 N2         -5.0561    1.7921    0.1348 N.pl3     1 GTP        -0.8665
     31 N3         -3.2977    0.2393    0.7420 N.pl3     1 GTP        -0.5398
     32 C4         -2.8643   -1.0716    0.7336 C.ar      1 GTP        -0.0275
     33 HOG3       -4.1166    5.2960    7.0944 H         1 GTP         0.4161
     34 H5'        -1.7771    2.7849    2.1387 H         1 GTP         0.0348
     35 H5''       -1.1654    2.0541    0.6320 H         1 GTP         0.0348
     36 H4'         0.0403    1.7078    3.4343 H         1 GTP         0.1215
     37 H3'         1.5907    1.4859    1.1353 H         1 GTP         0.0576
     38 HO3'        2.6839   -0.1150    2.2479 H         1 GTP         0.3842
     39 H2'        -0.0017    0.0018    0.0005 H         1 GTP         0.0252
     40 HO2'        2.0953   -0.9375    0.0709 H         1 GTP         0.4224
     41 H1'        -0.1998   -1.6319    2.6178 H         1 GTP         0.0745
     42 H8         -0.9852   -3.6367    1.2276 H         1 GTP         0.1522
     43 HN1        -6.2089   -0.3428   -0.8039 H         1 GTP         0.3518
     44 HN21       -5.9354    1.9184   -0.2788 H         1 GTP         0.4761
     45 HN22       -4.4982    2.4931    0.5316 H         1 GTP         0.4761
     46 H46        -2.7541    1.0010    1.1428 H         1 GTP         0.5030
@<TRIPOS>BOND
     1    1    2 2
     2    1    3 1
     3    1    4 1
     4    1    5 1
     5    4   33 1
     6    5    6 1
     7    6    7 2
     8    6    8 1
     9    6    9 1
    10    9   10 1
    11   10   11 2
    12   10   12 1
    13   10   13 1
    14   13   14 1
    15   14   15 1
    16   14   34 1
    17   14   35 1
    18   15   16 1
    19   15   17 1
    20   15   36 1
    21   16   21 1
    22   17   18 1
    23   17   19 1
    24   17   37 1
    25   18   38 1
    26   19   20 1
    27   19   21 1
    28   19   39 1
    29   20   40 1
    30   21   22 1
    31   21   41 1
    32   22   23 ar
    33   22   32 ar
    34   23   24 ar
    35   23   42 1
    36   24   25 ar
    37   25   26 ar
    38   25   32 ar
    39   26   27 2
    40   26   28 ar
    41   28   29 ar
    42   28   43 1
    43   29   30 1
    44   29   31 ar
    45   30   44 1
    46   30   45 1
    47   31   32 ar
    48   31   46 1
@<TRIPOS>SUBSTRUCTURE
     1 GTP         1 GROUP 0 A     ****
@<TRIPOS>MOLECULE
[[[5-(2-amino-6-oxo-1,3-dihydropurin-2-ylium-9-yl)-3,4-dihydroxy-tetrahydrofuran-2-yl]methoxy-oxido-phosphoryl]oxy-oxido-phosphoryl] hydrogen phosphate
   46    48     1     0     0
SMALL
USER_CHARGES

@<TRIPOS>ATOM
      1 PG         -0.1980    1.8308    8.0212 P.3       1 GTP         1.5400
      2 O1G        -1.5586    2.0197    8.6541 O.co2     1 GTP        -0.8909
      3 O2G         0.4807    0.4791    8.0261 O.co2     1 GTP        -0.8909
      4 O3G         0.8281    2.9285    8.6601 O.3       1 GTP        -0.7980
      5 O3B        -0.2412    2.3954    6.4904 O.3       1 GTP        -0.7612
      6 PB         -0.7141    3.8526    5.9260 P.3       1 GTP         1.5847
      7 O1B        -2.1965    4.0129    6.1794 O.co2     1 GTP        -0.8859
      8 O2B         0.2827    4.9003    6.3690 O.co2     1 GTP        -0.8859
      9 O3A        -0.4561    3.6124    4.3321 O.3       1 GTP        -0.7486
     10 PA         -0.6907    4.6220    3.0690 P.3       1 GTP         1.5001
     11 O1A        -2.1703    4.9168    2.9501 O.co2     1 GTP        -0.8487
     12 O2A         0.3260    5.7400    3.1472 O.co2     1 GTP        -0.8487
     13 O5'        -0.2062    3.6557    1.8417 O.3       1 GTP        -0.5474
     14 C5'        -0.8811    2.4285    1.6206 C.3       1 GTP         0.2547
     15 C4'        -0.1994    1.3333    2.4288 C.3       1 GTP         0.0926
     16 O4'        -1.1285    0.2356    2.5840 O.3       1 GTP        -0.3593
     17 C3'         1.0324    0.7610    1.7344 C.3       1 GTP         0.0907
     18 O3'         1.9175    0.2377    2.7247 O.3       1 GTP        -0.5209
     19 C2'         0.4468   -0.3802    0.9263 C.3       1 GTP         0.0305
     20 O2'         1.3993   -1.3703    0.5961 O.3       1 GTP        -0.5978
     21 C1'        -0.6159   -0.9100    1.8769 C.3       1 GTP         0.2339
     22 N9         -1.7127   -1.6108    1.2130 N.pl3     1 GTP        -0.1765
     23 C8         -2.5534   -1.0907    0.2607 C.ar      1 GTP         0.4947
     24 N7         -3.4469   -1.9695   -0.1508 N.2       1 GTP        -0.5802
     25 C5         -3.1705   -3.1041    0.5657 C.ar      1 GTP         0.2279
     26 C6         -3.8738   -4.3568    0.4777 C.ar      1 GTP         0.6513
     27 O6         -4.8240   -4.5720   -0.2607 O.2       1 GTP        -0.5111
     28 N1         -3.3198   -5.3462    1.3780 N.pl3     1 GTP        -0.4713
     29 C2         -2.2226   -5.1203    2.2413 C.ar      1 GTP         0.5256
     30 N2         -1.7649   -6.1367    3.0659 N.pl3     1 GTP        -0.8665
     31 N3         -1.5969   -3.8585    2.2574 N.pl3     1 GTP        -0.5398
     32 C4         -2.1068   -2.8965    1.4082 C.ar      1 GTP        -0.0275
     33 HOG3        1.7584    2.9344    8.3489 H         1 GTP         0.4161
     34 H5'        -1.9256    2.5380    1.9293 H         1 GTP         0.0348
     35 H5''       -0.8474    2.1930    0.5521 H         1 GTP         0.0348
     36 H4'         0.0403    1.7078    3.4343 H         1 GTP         0.1215
     37 H3'         1.5907    1.4859    1.1353 H         1 GTP         0.0576
     38 HO3'        2.6839   -0.1150    2.2479 H         1 GTP         0.3842
     39 H2'        -0.0017    0.0018    0.0005 H         1 GTP         0.0252
     40 HO2'        2.0953   -0.9375    0.0709 H         1 GTP         0.4224
     41 H1'        -0.1998   -1.6319    2.6178 H         1 GTP         0.0745
     42 H8         -2.4657   -0.0713   -0.0897 H         1 GTP         0.1522
     43 HN1        -3.7505   -6.2699    1.3904 H         1 GTP         0.3518
     44 HN21       -1.0023   -5.9289    3.6451 H         1 GTP         0.4761
     45 HN22       -2.2347   -6.9951    3.0150 H         1 GTP         0.4761
     46 H46        -0.8062   -3.6900    2.8760 H         1 GTP         0.5030
@<TRIPOS>BOND
     1    1    2 2
     2    1    3 1
     3    1    4 1
     4    1    5 1
     5    4   33 1
     6    5    6 1
     7    6    7 2
     8    6    8 1
     9    6    9 1
    10    9   10 1
    11   10   11 2
    12   10   12 1
    13   10   13 1
    14   13   14 1
    15   14   15 1
    16   14   34 1
    17   14   35 1
    18   15   16 1
    19   15   17 1
    20   15   36 1
    21   16   21 1
    22   17   18 1
    23   17   19 1
    24   17   37 1
    25   18   38 1
    26   19   20 1
    27   19   21 1
    28   19   39 1
    29   20   40 1
    30   21   22 1
    31   21   41 1
    32   22   23 ar
    33   22   32 ar
    34   23   24 ar
    35   23   42 1
    36   24   25 ar
    37   25   26 ar
    38   25   32 ar
    39   26   27 2
    40   26   28 ar
    41   28   29 ar
    42   28   43 1
    43   29   30 1
    44   29   31 ar
    45   30   44 1
    46   30   45 1
    47   31   32 ar
    48   31   46 1
@<TRIPOS>SUBSTRUCTURE
     1 GTP         1 GROUP 0 A     ****
@<TRIPOS>MOLECULE
[[[5-(2-amino-6-oxo-1,3-dihydropurin-2-ylium-9-yl)-3,4-dihydroxy-tetrahydrofuran-2-yl]methoxy-oxido-phosphoryl]oxy-oxido-phosphoryl] hydrogen phosphate
   46    48     1     0     0
SMALL
USER_CHARGES

@<TRIPOS>ATOM
      1 PG          0.7623    4.9246    4.9166 P.3       1 GTP         1.5400
      2 O1G         0.7388    6.4226    5.1237 O.co2     1 GTP        -0.8909
      3 O2G        -0.5178    4.1507    4.6928 O.co2     1 GTP        -0.8909
      4 O3G         1.5703    4.2417    6.1603 O.3       1 GTP        -0.7980
      5 O3B         1.8111    4.5706    3.7172 O.3       1 GTP        -0.7612
      6 PB          3.3775    4.9947    3.5385 P.3       1 GTP         1.5847
      7 O1B         3.4563    6.4944    3.3592 O.co2     1 GTP        -0.8859
      8 O2B         4.2049    4.2774    4.5818 O.co2     1 GTP        -0.8859
      9 O3A         3.6874    4.2583    2.1149 O.3       1 GTP        -0.7486
     10 PA          5.0664    4.2077    1.2399 P.3       1 GTP         1.5001
     11 O1A         5.3976    5.6084    0.7722 O.co2     1 GTP        -0.8487
     12 O2A         6.0829    3.3711    1.9859 O.co2     1 GTP        -0.8487
     13 O5'         4.5670    3.2937   -0.0211 O.3       1 GTP        -0.5474
     14 C5'         4.0922    1.9801    0.2227 C.3       1 GTP         0.2547
     15 C4'         2.5944    2.0310    0.4653 C.3       1 GTP         0.0926
     16 O4'         1.9327    2.5740   -0.6889 O.3       1 GTP        -0.3593
     17 C3'         1.9685    0.6634    0.6767 C.3       1 GTP         0.0907
     18 O3'         2.1425    0.1975    1.9977 O.3       1 GTP        -0.5209
     19 C2'         0.5176    0.9128    0.3099 C.3       1 GTP         0.0305
     20 O2'        -0.2103    1.4454    1.4152 O.3       1 GTP        -0.5978
     21 C1'         0.6219    1.9765   -0.7844 C.3       1 GTP         0.2339
     22 N9          0.4237    1.4496   -2.1357 N.pl3     1 GTP        -0.1765
     23 C8          1.3988    0.9691   -2.9736 C.ar      1 GTP         0.4947
     24 N7          0.9092    0.5634   -4.1293 N.2       1 GTP        -0.5802
     25 C5         -0.4383    0.7914   -4.0325 C.ar      1 GTP         0.2279
     26 C6         -1.4217    0.5138   -5.0461 C.ar      1 GTP         0.6513
     27 O6         -1.1759    0.0306   -6.1417 O.2       1 GTP        -0.5111
     28 N1         -2.7543    0.8794   -4.6134 N.pl3     1 GTP        -0.4713
     29 C2         -3.0626    1.4402   -3.3523 C.ar      1 GTP         0.5256
     30 N2         -4.3747    1.7544   -3.0321 N.pl3     1 GTP        -0.8665
     31 N3         -2.0304    1.6759   -2.4233 N.pl3     1 GTP        -0.5398
     32 C4         -0.7497    1.3366   -2.8118 C.ar      1 GTP        -0.0275
     33 HOG3        1.6725    3.2662    6.1713 H         1 GTP         0.4161
     34 H5'         4.3179    1.3548   -0.6470 H         1 GTP         0.0348
     35 H5''        4.6083    1.5737    1.0983 H         1 GTP         0.0348
     36 H4'         2.3752    2.7029    1.3156 H         1 GTP         0.1215
     37 H3'         2.4336   -0.1217   -0.0015 H         1 GTP         0.0576
     38 HO3'        1.7160   -0.6716    2.0397 H         1 GTP         0.3842
     39 H2'         0.0316    0.0155   -0.0339 H         1 GTP         0.0252
     40 HO2'       -0.1608    0.7921    2.1351 H         1 GTP         0.4224
     41 H1'        -0.1474    2.7798   -0.6651 H         1 GTP         0.0745
     42 H8          2.4413    0.9409   -2.6872 H         1 GTP         0.1522
     43 HN1        -3.5236    0.7214   -5.2629 H         1 GTP         0.3518
     44 HN21       -4.5350    2.1409   -2.1461 H         1 GTP         0.4761
     45 HN22       -5.0542    1.5695   -3.7134 H         1 GTP         0.4761
     46 H46        -2.2462    2.0786   -1.5136 H         1 GTP         0.5030
@<TRIPOS>BOND
     1    1    2 2
     2    1    3 1
     3    1    4 1
     4    1    5 1
     5    4   33 1
     6    5    6 1
     7    6    7 2
     8    6    8 1
     9    6    9 1
    10    9   10 1
    11   10   11 2
    12   10   12 1
    13   10   13 1
    14   13   14 1
    15   14   15 1
    16   14   34 1
    17   14   35 1
    18   15   16 1
    19   15   17 1
    20   15   36 1
    21   16   21 1
    22   17   18 1
    23   17   19 1
    24   17   37 1
    25   18   38 1
    26   19   20 1
    27   19   21 1
    28   19   39 1
    29   20   40 1
    30   21   22 1
    31   21   41 1
    32   22   23 ar
    33   22   32 ar
    34   23   24 ar
    35   23   42 1
    36   24   25 ar
    37   25   26 ar
    38   25   32 ar
    39   26   27 2
    40   26   28 ar
    41   28   29 ar
    42   28   43 1
    43   29   30 1
    44   29   31 ar
    45   30   44 1
    46   30   45 1
    47   31   32 ar
    48   31   46 1
@<TRIPOS>SUBSTRUCTURE
     1 GTP         1 GROUP 0 A     ****
@<TRIPOS>MOLECULE
[[[5-(2-amino-6-oxo-1,3-dihydropurin-2-ylium-9-yl)-3,4-dihydroxy-tetrahydrofuran-2-yl]methoxy-oxido-phosphoryl]oxy-oxido-phosphoryl] hydrogen phosphate
   46    48     1     0     0
SMALL
USER_CHARGES

@<TRIPOS>ATOM
      1 PG         -3.4551   -2.5985    4.7662 P.3       1 GTP         1.5400
      2 O1G        -4.3899   -3.3130    3.8159 O.co2     1 GTP        -0.8909
      3 O2G        -2.1607   -3.2409    5.2130 O.co2     1 GTP        -0.8909
      4 O3G        -4.3002   -2.1585    6.0922 O.3       1 GTP        -0.7980
      5 O3B        -3.1314   -1.1119    4.1755 O.3       1 GTP        -0.7612
      6 PB         -4.1527    0.0701    3.7008 P.3       1 GTP         1.5847
      7 O1B        -4.9120   -0.4057    2.4823 O.co2     1 GTP        -0.8859
      8 O2B        -4.8681    0.6208    4.9143 O.co2     1 GTP        -0.8859
      9 O3A        -3.0595    1.1979    3.2560 O.3       1 GTP        -0.7486
     10 PA         -3.2890    2.7005    2.6567 P.3       1 GTP         1.5001
     11 O1A        -3.9629    2.5881    1.3064 O.co2     1 GTP        -0.8487
     12 O2A        -3.8662    3.5746    3.7487 O.co2     1 GTP        -0.8487
     13 O5'        -1.7336    3.1724    2.4750 O.3       1 GTP        -0.5474
     14 C5'        -0.8811    2.4285    1.6206 C.3       1 GTP         0.2547
     15 C4'        -0.1994    1.3333    2.4288 C.3       1 GTP         0.0926
     16 O4'        -1.1285    0.2356    2.5840 O.3       1 GTP        -0.3593
     17 C3'         1.0324    0.7610    1.7344 C.3       1 GTP         0.0907
     18 O3'         1.9175    0.2377    2.7247 O.3       1 GTP        -0.5209
     19 C2'         0.4468   -0.3802    0.9263 C.3       1 GTP         0.0305
     20 O2'         1.3993   -1.3703    0.5961 O.3       1 GTP        -0.5978
     21 C1'        -0.6159   -0.9100    1.8769 C.3       1 GTP         0.2339
     22 N9         -1.7127   -1.6108    1.2130 N.pl3     1 GTP        -0.1765
     23 C8         -2.5534   -1.0907    0.2607 C.ar      1 GTP         0.4947
     24 N7         -3.4469   -1.9695   -0.1508 N.2       1 GTP        -0.5802
     25 C5         -3.1705   -3.1041    0.5657 C.ar      1 GTP         0.2279
     26 C6         -3.8738   -4.3568    0.4777 C.ar      1 GTP         0.6513
     27 O6         -4.8240   -4.5720   -0.2607 O.2       1 GTP        -0.5111
     28 N1         -3.3198   -5.3462    1.3780 N.pl3     1 GTP        -0.4713
     29 C2         -2.2226   -5.1203    2.2413 C.ar      1 GTP         0.5256
     30 N2         -1.7649   -6.1367    3.0659 N.pl3     1 GTP        -0.8665
     31 N3         -1.5969   -3.8585    2.2574 N.pl3     1 GTP        -0.5398
     32 C4         -2.1068   -2.8965    1.4082 C.ar      1 GTP        -0.0275
     33 HOG3       -3.8299   -1.6807    6.8083 H         1 GTP         0.4161
     34 H5'        -1.4800    1.9927    0.8146 H         1 GTP         0.0348
     35 H5''       -0.1367    3.1040    1.1872 H         1 GTP         0.0348
     36 H4'         0.0403    1.7078    3.4343 H         1 GTP         0.1215
     37 H3'         1.5907    1.4859    1.1353 H         1 GTP         0.0576
     38 HO3'        2.6839   -0.1150    2.2479 H         1 GTP         0.3842
     39 H2'        -0.0017    0.0018    0.0005 H         1 GTP         0.0252
     40 HO2'        2.0953   -0.9375    0.0709 H         1 GTP         0.4224
     41 H1'        -0.1998   -1.6319    2.6178 H         1 GTP         0.0745
     42 H8         -2.4657   -0.0713   -0.0897 H         1 GTP         0.1522
     43 HN1        -3.7505   -6.2699    1.3904 H         1 GTP         0.3518
     44 HN21       -1.0023   -5.9289    3.6451 H         1 GTP         0.4761
     45 HN22       -2.2347   -6.9951    3.0150 H         1 GTP         0.4761
     46 H46        -0.8062   -3.6900    2.8760 H         1 GTP         0.5030
@<TRIPOS>BOND
     1    1    2 2
     2    1    3 1
     3    1    4 1
     4    1    5 1
     5    4   33 1
     6    5    6 1
     7    6    7 2
     8    6    8 1
     9    6    9 1
    10    9   10 1
    11   10   11 2
    12   10   12 1
    13   10   13 1
    14   13   14 1
    15   14   15 1
    16   14   34 1
    17   14   35 1
    18   15   16 1
    19   15   17 1
    20   15   36 1
    21   16   21 1
    22   17   18 1
    23   17   19 1
    24   17   37 1
    25   18   38 1
    26   19   20 1
    27   19   21 1
    28   19   39 1
    29   20   40 1
    30   21   22 1
    31   21   41 1
    32   22   23 ar
    33   22   32 ar
    34   23   24 ar
    35   23   42 1
    36   24   25 ar
    37   25   26 ar
    38   25   32 ar
    39   26   27 2
    40   26   28 ar
    41   28   29 ar
    42   28   43 1
    43   29   30 1
    44   29   31 ar
    45   30   44 1
    46   30   45 1
    47   31   32 ar
    48   31   46 1
@<TRIPOS>SUBSTRUCTURE
     1 GTP         1 GROUP 0 A     ****
@<TRIPOS>MOLECULE
[[[5-(2-amino-6-oxo-1,3-dihydropurin-2-ylium-9-yl)-3,4-dihydroxy-tetrahydrofuran-2-yl]methoxy-oxido-phosphoryl]oxy-oxido-phosphoryl] hydrogen phosphate
   46    48     1     0     0
SMALL
USER_CHARGES

@<TRIPOS>ATOM
      1 PG         -4.1520    5.5344   -3.0104 P.3       1 GTP         1.5400
      2 O1G        -5.1765    6.6140   -2.7419 O.co2     1 GTP        -0.8909
      3 O2G        -2.9457    5.8068   -3.8812 O.co2     1 GTP        -0.8909
      4 O3G        -4.9249    4.2190   -3.5921 O.3       1 GTP        -0.7980
      5 O3B        -3.6478    4.9147   -1.5871 O.3       1 GTP        -0.7612
      6 PB         -4.5154    4.3030   -0.3467 P.3       1 GTP         1.5847
      7 O1B        -5.3377    5.4153    0.2649 O.co2     1 GTP        -0.8859
      8 O2B        -5.1465    2.9992   -0.7819 O.co2     1 GTP        -0.8859
      9 O3A        -3.2920    3.9119    0.6609 O.3       1 GTP        -0.7486
     10 PA         -3.3347    3.2338    2.1468 P.3       1 GTP         1.5001
     11 O1A        -4.0274    4.1866    3.0968 O.co2     1 GTP        -0.8487
     12 O2A        -3.7889    1.7968    2.0106 O.co2     1 GTP        -0.8487
     13 O5'        -1.7336    3.1724    2.4750 O.3       1 GTP        -0.5474
     14 C5'        -0.8811    2.4285    1.6206 C.3       1 GTP         0.2547
     15 C4'        -0.1994    1.3333    2.4288 C.3       1 GTP         0.0926
     16 O4'        -1.1285    0.2356    2.5840 O.3       1 GTP        -0.3593
     17 C3'         1.0324    0.7610    1.7344 C.3       1 GTP         0.0907
     18 O3'         1.9175    0.2377    2.7247 O.3       1 GTP        -0.5209
     19 C2'         0.4468   -0.3802    0.9263 C.3       1 GTP         0.0305
     20 O2'         1.3993   -1.3703    0.5961 O.3       1 GTP        -0.5978
     21 C1'        -0.6159   -0.9100    1.8769 C.3       1 GTP         0.2339
     22 N9         -1.7127   -1.6108    1.2130 N.pl3     1 GTP        -0.1765
     23 C8         -3.0389   -1.2578    1.2391 C.ar      1 GTP         0.4947
     24 N7         -3.7909   -2.0880    0.5425 N.2       1 GTP        -0.5802
     25 C5         -2.9127   -3.0150    0.0458 C.ar      1 GTP         0.2279
     26 C6         -3.2467   -4.1411   -0.7860 C.ar      1 GTP         0.6513
     27 O6         -4.3761   -4.4189   -1.1621 O.2       1 GTP        -0.5111
     28 N1         -2.0748   -4.9191   -1.1296 N.pl3     1 GTP        -0.4713
     29 C2         -0.7595   -4.6181   -0.7058 C.ar      1 GTP         0.5256
     30 N2          0.2985   -5.4268   -1.0920 N.pl3     1 GTP        -0.8665
     31 N3         -0.5304   -3.4919    0.1084 N.pl3     1 GTP        -0.5398
     32 C4         -1.6318   -2.7332    0.4512 C.ar      1 GTP        -0.0275
     33 HOG3       -4.3927    3.4262   -3.8170 H         1 GTP         0.4161
     34 H5'        -1.4800    1.9927    0.8146 H         1 GTP         0.0348
     35 H5''       -0.1367    3.1040    1.1872 H         1 GTP         0.0348
     36 H4'         0.0403    1.7078    3.4343 H         1 GTP         0.1215
     37 H3'         1.5907    1.4859    1.1353 H         1 GTP         0.0576
     38 HO3'        2.1521    0.9800    3.3017 H         1 GTP         0.3842
     39 H2'        -0.0017    0.0018    0.0005 H         1 GTP         0.0252
     40 HO2'        1.7495   -1.7243    1.4324 H         1 GTP         0.4224
     41 H1'        -0.1998   -1.6319    2.6178 H         1 GTP         0.0745
     42 H8         -3.3933   -0.3909    1.7800 H         1 GTP         0.1522
     43 HN1        -2.2071   -5.7408   -1.7178 H         1 GTP         0.3518
     44 HN21        0.0848   -6.1964   -1.6597 H         1 GTP         0.4761
     45 HN22        1.1896   -5.1747   -0.7719 H         1 GTP         0.4761
     46 H46         0.4142   -3.2695    0.4160 H         1 GTP         0.5030
@<TRIPOS>BOND
     1    1    2 2
     2    1    3 1
     3    1    4 1
     4    1    5 1
     5    4   33 1
     6    5    6 1
     7    6    7 2
     8    6    8 1
     9    6    9 1
    10    9   10 1
    11   10   11 2
    12   10   12 1
    13   10   13 1
    14   13   14 1
    15   14   15 1
    16   14   34 1
    17   14   35 1
    18   15   16 1
    19   15   17 1
    20   15   36 1
    21   16   21 1
    22   17   18 1
    23   17   19 1
    24   17   37 1
    25   18   38 1
    26   19   20 1
    27   19   21 1
    28   19   39 1
    29   20   40 1
    30   21   22 1
    31   21   41 1
    32   22   23 ar
    33   22   32 ar
    34   23   24 ar
    35   23   42 1
    36   24   25 ar
    37   25   26 ar
    38   25   32 ar
    39   26   27 2
    40   26   28 ar
    41   28   29 ar
    42   28   43 1
    43   29   30 1
    44   29   31 ar
    45   30   44 1
    46   30   45 1
    47   31   32 ar
    48   31   46 1
@<TRIPOS>SUBSTRUCTURE
     1 GTP         1 GROUP 0 A     ****
@<TRIPOS>MOLECULE
[[[5-(2-amino-6-oxo-1,3-dihydropurin-2-ylium-9-yl)-3,4-dihydroxy-tetrahydrofuran-2-yl]methoxy-oxido-phosphoryl]oxy-oxido-phosphoryl] hydrogen phosphate
   46    48     1     0     0
SMALL
USER_CHARGES

@<TRIPOS>ATOM
      1 PG         -3.8640    2.1931   -2.1161 P.3       1 GTP         1.5400
      2 O1G        -2.4696    2.5285   -1.6359 O.co2     1 GTP        -0.8909
      3 O2G        -4.2658    0.7624   -2.3981 O.co2     1 GTP        -0.8909
      4 O3G        -4.1872    3.0928   -3.4396 O.3       1 GTP        -0.7980
      5 O3B        -4.9512    2.8564   -1.0954 O.3       1 GTP        -0.7612
      6 PB         -5.2692    2.5047    0.4669 P.3       1 GTP         1.5847
      7 O1B        -6.2726    3.5058    0.9947 O.co2     1 GTP        -0.8859
      8 O2B        -5.4914    1.0148    0.6018 O.co2     1 GTP        -0.8859
      9 O3A        -3.8007    2.8142    1.1092 O.3       1 GTP        -0.7486
     10 PA         -3.2890    2.7005    2.6567 P.3       1 GTP         1.5001
     11 O1A        -4.0468    3.7072    3.4949 O.co2     1 GTP        -0.8487
     12 O2A        -3.2398    1.2387    3.0445 O.co2     1 GTP        -0.8487
     13 O5'        -1.7336    3.1724    2.4750 O.3       1 GTP        -0.5474
     14 C5'        -0.8811    2.4285    1.6206 C.3       1 GTP         0.2547
     15 C4'        -0.1994    1.3333    2.4288 C.3       1 GTP         0.0926
     16 O4'        -1.1285    0.2356    2.5840 O.3       1 GTP        -0.3593
     17 C3'         1.0324    0.7610    1.7344 C.3       1 GTP         0.0907
     18 O3'         1.9175    0.2377    2.7247 O.3       1 GTP        -0.5209
     19 C2'         0.4468   -0.3802    0.9263 C.3       1 GTP         0.0305
     20 O2'         1.3993   -1.3703    0.5961 O.3       1 GTP        -0.5978
     21 C1'        -0.6159   -0.9100    1.8769 C.3       1 GTP         0.2339
     22 N9         -1.7127   -1.6108    1.2130 N.pl3     1 GTP        -0.1765
     23 C8         -2.8692   -1.0463    0.7355 C.ar      1 GTP         0.4947
     24 N7         -3.6707   -1.9381    0.1856 N.2       1 GTP        -0.5802
     25 C5         -3.0027   -3.1275    0.3134 C.ar      1 GTP         0.2279
     26 C6         -3.4659   -4.4142   -0.1355 C.ar      1 GTP         0.6513
     27 O6         -4.5328   -4.6133   -0.6980 O.2       1 GTP        -0.5111
     28 N1         -2.5102   -5.4606    0.1612 N.pl3     1 GTP        -0.4713
     29 C2         -1.2711   -5.2547    0.8113 C.ar      1 GTP         0.5256
     30 N2         -0.4228   -6.3256    1.0482 N.pl3     1 GTP        -0.8665
     31 N3         -0.9033   -3.9563    1.2146 N.pl3     1 GTP        -0.5398
     32 C4         -1.7979   -2.9400    0.9438 C.ar      1 GTP        -0.0275
     33 HOG3       -5.0613    2.9890   -3.8727 H         1 GTP         0.4161
     34 H5'        -1.4800    1.9927    0.8146 H         1 GTP         0.0348
     35 H5''       -0.1367    3.1040    1.1872 H         1 GTP         0.0348
     36 H4'         0.0403    1.7078    3.4343 H         1 GTP         0.1215
     37 H3'         1.5907    1.4859    1.1353 H         1 GTP         0.0576
     38 HO3'        2.6839   -0.1150    2.2479 H         1 GTP         0.3842
     39 H2'        -0.0017    0.0018    0.0005 H         1 GTP         0.0252
     40 HO2'        2.0953   -0.9375    0.0709 H         1 GTP         0.4224
     41 H1'        -0.1998   -1.6319    2.6178 H         1 GTP         0.0745
     42 H8         -3.0691    0.0134    0.8177 H         1 GTP         0.1522
     43 HN1        -2.7468   -6.4119   -0.1177 H         1 GTP         0.3518
     44 HN21        0.4233   -6.1297    1.5018 H         1 GTP         0.4761
     45 HN22       -0.7261   -7.2071    0.7466 H         1 GTP         0.4761
     46 H46        -0.0124   -3.8015    1.6821 H         1 GTP         0.5030
@<TRIPOS>BOND
     1    1    2 2
     2    1    3 1
     3    1    4 1
     4    1    5 1
     5    4   33 1
     6    5    6 1
     7    6    7 2
     8    6    8 1
     9    6    9 1
    10    9   10 1
    11   10   11 2
    12   10   12 1
    13   10   13 1
    14   13   14 1
    15   14   15 1
    16   14   34 1
    17   14   35 1
    18   15   16 1
    19   15   17 1
    20   15   36 1
    21   16   21 1
    22   17   18 1
    23   17   19 1
    24   17   37 1
    25   18   38 1
    26   19   20 1
    27   19   21 1
    28   19   39 1
    29   20   40 1
    30   21   22 1
    31   21   41 1
    32   22   23 ar
    33   22   32 ar
    34   23   24 ar
    35   23   42 1
    36   24   25 ar
    37   25   26 ar
    38   25   32 ar
    39   26   27 2
    40   26   28 ar
    41   28   29 ar
    42   28   43 1
    43   29   30 1
    44   29   31 ar
    45   30   44 1
    46   30   45 1
    47   31   32 ar
    48   31   46 1
@<TRIPOS>SUBSTRUCTURE
     1 GTP         1 GROUP 0 A     ****
@<TRIPOS>MOLECULE
[[[5-(2-amino-6-oxo-1,3-dihydropurin-2-ylium-9-yl)-3,4-dihydroxy-tetrahydrofuran-2-yl]methoxy-oxido-phosphoryl]oxy-oxido-phosphoryl] hydrogen phosphate
   46    48     1     0     0
SMALL
USER_CHARGES

@<TRIPOS>ATOM
      1 PG          4.3858    1.0941   -1.8824 P.3       1 GTP         1.5400
      2 O1G         5.5980    1.9949   -1.9619 O.co2     1 GTP        -0.8909
      3 O2G         4.5115   -0.3386   -1.4140 O.co2     1 GTP        -0.8909
      4 O3G         3.6380    1.1012   -3.3338 O.3       1 GTP        -0.7980
      5 O3B         3.2279    1.8378   -1.0048 O.3       1 GTP        -0.7612
      6 PB          2.5751    3.3239   -1.1804 P.3       1 GTP         1.5847
      7 O1B         3.6451    4.3584   -0.9113 O.co2     1 GTP        -0.8859
      8 O2B         1.7466    3.3524   -2.4455 O.co2     1 GTP        -0.8859
      9 O3A         1.5192    3.2949    0.0642 O.3       1 GTP        -0.7486
     10 PA          0.4655    4.4361    0.5710 P.3       1 GTP         1.5001
     11 O1A         1.2462    5.6408    1.0501 O.co2     1 GTP        -0.8487
     12 O2A        -0.6317    4.5752   -0.4617 O.co2     1 GTP        -0.8487
     13 O5'        -0.2062    3.6557    1.8417 O.3       1 GTP        -0.5474
     14 C5'        -0.8811    2.4285    1.6206 C.3       1 GTP         0.2547
     15 C4'        -0.1994    1.3333    2.4288 C.3       1 GTP         0.0926
     16 O4'        -1.1285    0.2356    2.5840 O.3       1 GTP        -0.3593
     17 C3'         1.0324    0.7610    1.7344 C.3       1 GTP         0.0907
     18 O3'         1.9175    0.2377    2.7247 O.3       1 GTP        -0.5209
     19 C2'         0.4468   -0.3802    0.9263 C.3       1 GTP         0.0305
     20 O2'         1.3993   -1.3703    0.5961 O.3       1 GTP        -0.5978
     21 C1'        -0.6159   -0.9100    1.8769 C.3       1 GTP         0.2339
     22 N9         -1.7127   -1.6108    1.2130 N.pl3     1 GTP        -0.1765
     23 C8         -2.5534   -1.0907    0.2607 C.ar      1 GTP         0.4947
     24 N7         -3.4469   -1.9695   -0.1508 N.2       1 GTP        -0.5802
     25 C5         -3.1705   -3.1041    0.5657 C.ar      1 GTP         0.2279
     26 C6         -3.8738   -4.3568    0.4777 C.ar      1 GTP         0.6513
     27 O6         -4.8240   -4.5720   -0.2607 O.2       1 GTP        -0.5111
     28 N1         -3.3198   -5.3462    1.3780 N.pl3     1 GTP        -0.4713
     29 C2         -2.2226   -5.1203    2.2413 C.ar      1 GTP         0.5256
     30 N2         -1.7649   -6.1367    3.0659 N.pl3     1 GTP        -0.8665
     31 N3         -1.5969   -3.8585    2.2574 N.pl3     1 GTP        -0.5398
     32 C4         -2.1068   -2.8965    1.4082 C.ar      1 GTP        -0.0275
     33 HOG3        2.8273    0.5601   -3.4441 H         1 GTP         0.4161
     34 H5'        -1.9256    2.5380    1.9293 H         1 GTP         0.0348
     35 H5''       -0.8474    2.1930    0.5521 H         1 GTP         0.0348
     36 H4'         0.0403    1.7078    3.4343 H         1 GTP         0.1215
     37 H3'         1.5907    1.4859    1.1353 H         1 GTP         0.0576
     38 HO3'        2.6839   -0.1150    2.2479 H         1 GTP         0.3842
     39 H2'        -0.0017    0.0018    0.0005 H         1 GTP         0.0252
     40 HO2'        2.0953   -0.9375    0.0709 H         1 GTP         0.4224
     41 H1'        -0.1998   -1.6319    2.6178 H         1 GTP         0.0745
     42 H8         -2.4657   -0.0713   -0.0897 H         1 GTP         0.1522
     43 HN1        -3.7505   -6.2699    1.3904 H         1 GTP         0.3518
     44 HN21       -1.0023   -5.9289    3.6451 H         1 GTP         0.4761
     45 HN22       -2.2347   -6.9951    3.0150 H         1 GTP         0.4761
     46 H46        -0.8062   -3.6900    2.8760 H         1 GTP         0.5030
@<TRIPOS>BOND
     1    1    2 2
     2    1    3 1
     3    1    4 1
     4    1    5 1
     5    4   33 1
     6    5    6 1
     7    6    7 2
     8    6    8 1
     9    6    9 1
    10    9   10 1
    11   10   11 2
    12   10   12 1
    13   10   13 1
    14   13   14 1
    15   14   15 1
    16   14   34 1
    17   14   35 1
    18   15   16 1
    19   15   17 1
    20   15   36 1
    21   16   21 1
    22   17   18 1
    23   17   19 1
    24   17   37 1
    25   18   38 1
    26   19   20 1
    27   19   21 1
    28   19   39 1
    29   20   40 1
    30   21   22 1
    31   21   41 1
    32   22   23 ar
    33   22   32 ar
    34   23   24 ar
    35   23   42 1
    36   24   25 ar
    37   25   26 ar
    38   25   32 ar
    39   26   27 2
    40   26   28 ar
    41   28   29 ar
    42   28   43 1
    43   29   30 1
    44   29   31 ar
    45   30   44 1
    46   30   45 1
    47   31   32 ar
    48   31   46 1
@<TRIPOS>SUBSTRUCTURE
     1 GTP         1 GROUP 0 A     ****
@<TRIPOS>MOLECULE
[[[5-(2-amino-6-oxo-1,3-dihydropurin-2-ylium-9-yl)-3,4-dihydroxy-tetrahydrofuran-2-yl]methoxy-oxido-phosphoryl]oxy-oxido-phosphoryl] hydrogen phosphate
   46    48     1     0     0
SMALL
USER_CHARGES

@<TRIPOS>ATOM
      1 PG          3.0033   -0.3816   -2.7160 P.3       1 GTP         1.5400
      2 O1G         4.2824    0.2390   -3.2318 O.co2     1 GTP        -0.8909
      3 O2G         3.0125   -1.7370   -2.0446 O.co2     1 GTP        -0.8909
      4 O3G         1.9148   -0.4132   -3.9326 O.3       1 GTP        -0.7980
      5 O3B         2.2503    0.6874   -1.7392 O.3       1 GTP        -0.7612
      6 PB          1.8242    2.2386   -2.0178 P.3       1 GTP         1.5847
      7 O1B         3.0805    3.0630   -2.1905 O.co2     1 GTP        -0.8859
      8 O2B         0.7109    2.2682   -3.0411 O.co2     1 GTP        -0.8859
      9 O3A         1.1387    2.5846   -0.5772 O.3       1 GTP        -0.7486
     10 PA          0.4528    3.9705   -0.0493 P.3       1 GTP         1.5001
     11 O1A         1.5160    5.0455    0.0159 O.co2     1 GTP        -0.8487
     12 O2A        -0.8379    4.1916   -0.8075 O.co2     1 GTP        -0.8487
     13 O5'         0.0178    3.5131    1.4595 O.3       1 GTP        -0.5474
     14 C5'        -0.8811    2.4285    1.6206 C.3       1 GTP         0.2547
     15 C4'        -0.1994    1.3333    2.4288 C.3       1 GTP         0.0926
     16 O4'        -1.1285    0.2356    2.5840 O.3       1 GTP        -0.3593
     17 C3'         1.0324    0.7610    1.7344 C.3       1 GTP         0.0907
     18 O3'         1.9175    0.2377    2.7247 O.3       1 GTP        -0.5209
     19 C2'         0.4468   -0.3802    0.9263 C.3       1 GTP         0.0305
     20 O2'         1.3993   -1.3703    0.5961 O.3       1 GTP        -0.5978
     21 C1'        -0.6159   -0.9100    1.8769 C.3       1 GTP         0.2339
     22 N9         -1.7127   -1.6108    1.2130 N.pl3     1 GTP        -0.1765
     23 C8         -1.7789   -2.9564    0.9503 C.ar      1 GTP         0.4947
     24 N7         -2.8980   -3.2916    0.3377 N.2       1 GTP        -0.5802
     25 C5         -3.5824   -2.1127    0.2000 C.ar      1 GTP         0.2279
     26 C6         -4.8740   -1.9471   -0.4133 C.ar      1 GTP         0.6513
     27 O6         -5.5366   -2.8529   -0.8978 O.2       1 GTP        -0.5111
     28 N1         -5.3036   -0.5645   -0.3916 N.pl3     1 GTP        -0.4713
     29 C2         -4.5545    0.4997    0.1619 C.ar      1 GTP         0.5256
     30 N2         -5.0561    1.7921    0.1348 N.pl3     1 GTP        -0.8665
     31 N3         -3.2977    0.2393    0.7420 N.pl3     1 GTP        -0.5398
     32 C4         -2.8643   -1.0716    0.7336 C.ar      1 GTP        -0.0275
     33 HOG3        1.0267   -0.7901   -3.7549 H         1 GTP         0.4161
     34 H5'        -1.7771    2.7849    2.1387 H         1 GTP         0.0348
     35 H5''       -1.1654    2.0541    0.6320 H         1 GTP         0.0348
     36 H4'         0.0403    1.7078    3.4343 H         1 GTP         0.1215
     37 H3'         1.5907    1.4859    1.1353 H         1 GTP         0.0576
     38 HO3'        2.6839   -0.1150    2.2479 H         1 GTP         0.3842
     39 H2'        -0.0017    0.0018    0.0005 H         1 GTP         0.0252
     40 HO2'        2.0953   -0.9375    0.0709 H         1 GTP         0.4224
     41 H1'        -0.1998   -1.6319    2.6178 H         1 GTP         0.0745
     42 H8         -0.9852   -3.6367    1.2276 H         1 GTP         0.1522
     43 HN1        -6.2089   -0.3428   -0.8039 H         1 GTP         0.3518
     44 HN21       -4.4981    2.4933    0.5311 H         1 GTP         0.4761
     45 HN22       -5.9352    1.9183   -0.2793 H         1 GTP         0.4761
     46 H46        -2.7541    1.0010    1.1428 H         1 GTP         0.5030
@<TRIPOS>BOND
     1    1    2 2
     2    1    3 1
     3    1    4 1
     4    1    5 1
     5    4   33 1
     6    5    6 1
     7    6    7 2
     8    6    8 1
     9    6    9 1
    10    9   10 1
    11   10   11 2
    12   10   12 1
    13   10   13 1
    14   13   14 1
    15   14   15 1
    16   14   34 1
    17   14   35 1
    18   15   16 1
    19   15   17 1
    20   15   36 1
    21   16   21 1
    22   17   18 1
    23   17   19 1
    24   17   37 1
    25   18   38 1
    26   19   20 1
    27   19   21 1
    28   19   39 1
    29   20   40 1
    30   21   22 1
    31   21   41 1
    32   22   23 ar
    33   22   32 ar
    34   23   24 ar
    35   23   42 1
    36   24   25 ar
    37   25   26 ar
    38   25   32 ar
    39   26   27 2
    40   26   28 ar
    41   28   29 ar
    42   28   43 1
    43   29   30 1
    44   29   31 ar
    45   30   44 1
    46   30   45 1
    47   31   32 ar
    48   31   46 1
@<TRIPOS>SUBSTRUCTURE
     1 GTP         1 GROUP 0 A     ****
@<TRIPOS>MOLECULE
[[[5-(2-amino-6-oxo-1,3-dihydropurin-2-ylium-9-yl)-3,4-dihydroxy-tetrahydrofuran-2-yl]methoxy-oxido-phosphoryl]oxy-oxido-phosphoryl] hydrogen phosphate
   46    48     1     0     0
SMALL
USER_CHARGES

@<TRIPOS>ATOM
      1 PG          3.0033   -0.3816   -2.7160 P.3       1 GTP         1.5400
      2 O1G         3.3185   -1.6325   -1.9265 O.co2     1 GTP        -0.8909
      3 O2G         2.2545   -0.4586   -4.0279 O.co2     1 GTP        -0.8909
      4 O3G         4.3919    0.4420   -2.9592 O.3       1 GTP        -0.7980
      5 O3B         2.2503    0.6874   -1.7392 O.3       1 GTP        -0.7612
      6 PB          1.8242    2.2386   -2.0178 P.3       1 GTP         1.5847
      7 O1B         3.0805    3.0630   -2.1905 O.co2     1 GTP        -0.8859
      8 O2B         0.7109    2.2682   -3.0411 O.co2     1 GTP        -0.8859
      9 O3A         1.1387    2.5846   -0.5772 O.3       1 GTP        -0.7486
     10 PA          0.4528    3.9705   -0.0493 P.3       1 GTP         1.5001
     11 O1A         1.5160    5.0455    0.0159 O.co2     1 GTP        -0.8487
     12 O2A        -0.8379    4.1916   -0.8075 O.co2     1 GTP        -0.8487
     13 O5'         0.0178    3.5131    1.4595 O.3       1 GTP        -0.5474
     14 C5'        -0.8811    2.4285    1.6206 C.3       1 GTP         0.2547
     15 C4'        -0.1994    1.3333    2.4288 C.3       1 GTP         0.0926
     16 O4'        -1.1285    0.2356    2.5840 O.3       1 GTP        -0.3593
     17 C3'         1.0324    0.7610    1.7344 C.3       1 GTP         0.0907
     18 O3'         1.9175    0.2377    2.7247 O.3       1 GTP        -0.5209
     19 C2'         0.4468   -0.3802    0.9263 C.3       1 GTP         0.0305
     20 O2'         1.3993   -1.3703    0.5961 O.3       1 GTP        -0.5978
     21 C1'        -0.6159   -0.9100    1.8769 C.3       1 GTP         0.2339
     22 N9         -1.7127   -1.6108    1.2130 N.pl3     1 GTP        -0.1765
     23 C8         -1.6092   -2.7449    0.4467 C.ar      1 GTP         0.4947
     24 N7         -2.7778   -3.1416   -0.0191 N.2       1 GTP        -0.5802
     25 C5         -3.6725   -2.2253    0.4675 C.ar      1 GTP         0.2279
     26 C6         -5.0932   -2.2202    0.2371 C.ar      1 GTP         0.6513
     27 O6         -5.6933   -3.0474   -0.4337 O.2       1 GTP        -0.5111
     28 N1         -5.7390   -1.1061    0.8992 N.pl3     1 GTP        -0.4713
     29 C2         -5.0661   -0.1368    1.6789 C.ar      1 GTP         0.5256
     30 N2         -5.7774    0.8934    2.2749 N.pl3     1 GTP        -0.8665
     31 N3         -3.6705   -0.2251    1.8481 N.pl3     1 GTP        -0.5398
     32 C4         -3.0303   -1.2785    1.2262 C.ar      1 GTP        -0.0275
     33 HOG3        4.3536    1.2842   -3.4607 H         1 GTP         0.4161
     34 H5'        -1.7771    2.7849    2.1387 H         1 GTP         0.0348
     35 H5''       -1.1654    2.0541    0.6320 H         1 GTP         0.0348
     36 H4'         0.0403    1.7078    3.4343 H         1 GTP         0.1215
     37 H3'         1.5907    1.4859    1.1353 H         1 GTP         0.0576
     38 HO3'        2.6839   -0.1150    2.2479 H         1 GTP         0.3842
     39 H2'        -0.0017    0.0018    0.0005 H         1 GTP         0.0252
     40 HO2'        2.0953   -0.9375    0.0709 H         1 GTP         0.4224
     41 H1'        -0.1998   -1.6319    2.6178 H         1 GTP         0.0745
     42 H8         -0.6610   -3.2324    0.2653 H         1 GTP         0.1522
     43 HN1        -6.7487   -1.0139    0.7961 H         1 GTP         0.3518
     44 HN21       -5.2644    1.5388    2.8044 H         1 GTP         0.4761
     45 HN22       -6.7459    0.9078    2.1265 H         1 GTP         0.4761
     46 H46        -3.1807    0.4690    2.4089 H         1 GTP         0.5030
@<TRIPOS>BOND
     1    1    2 2
     2    1    3 1
     3    1    4 1
     4    1    5 1
     5    4   33 1
     6    5    6 1
     7    6    7 2
     8    6    8 1
     9    6    9 1
    10    9   10 1
    11   10   11 2
    12   10   12 1
    13   10   13 1
    14   13   14 1
    15   14   15 1
    16   14   34 1
    17   14   35 1
    18   15   16 1
    19   15   17 1
    20   15   36 1
    21   16   21 1
    22   17   18 1
    23   17   19 1
    24   17   37 1
    25   18   38 1
    26   19   20 1
    27   19   21 1
    28   19   39 1
    29   20   40 1
    30   21   22 1
    31   21   41 1
    32   22   23 ar
    33   22   32 ar
    34   23   24 ar
    35   23   42 1
    36   24   25 ar
    37   25   26 ar
    38   25   32 ar
    39   26   27 2
    40   26   28 ar
    41   28   29 ar
    42   28   43 1
    43   29   30 1
    44   29   31 ar
    45   30   44 1
    46   30   45 1
    47   31   32 ar
    48   31   46 1
@<TRIPOS>SUBSTRUCTURE
     1 GTP         1 GROUP 0 A     ****
@<TRIPOS>MOLECULE
[[[5-(2-amino-6-oxo-1,3-dihydropurin-2-ylium-9-yl)-3,4-dihydroxy-tetrahydrofuran-2-yl]methoxy-oxido-phosphoryl]oxy-oxido-phosphoryl] hydrogen phosphate
   46    48     1     0     0
SMALL
USER_CHARGES

@<TRIPOS>ATOM
      1 PG          1.7489    2.6735    7.5209 P.3       1 GTP         1.5400
      2 O1G         0.9686    2.9703    8.7820 O.co2     1 GTP        -0.8909
      3 O2G         2.5398    1.3919    7.3798 O.co2     1 GTP        -0.8909
      4 O3G         2.7435    3.9324    7.2180 O.3       1 GTP        -0.7980
      5 O3B         0.7572    2.8275    6.2339 O.3       1 GTP        -0.7612
      6 PB         -0.1989    4.0755    5.7937 P.3       1 GTP         1.5847
      7 O1B        -1.2854    4.2439    6.8323 O.co2     1 GTP        -0.8859
      8 O2B         0.6710    5.2353    5.3628 O.co2     1 GTP        -0.8859
      9 O3A        -0.8402    3.4461    4.4308 O.3       1 GTP        -0.7486
     10 PA         -1.9156    4.0918    3.3837 P.3       1 GTP         1.5001
     11 O1A        -3.2320    4.2955    4.1021 O.co2     1 GTP        -0.8487
     12 O2A        -1.2462    5.2272    2.6405 O.co2     1 GTP        -0.8487
     13 O5'        -2.0401    2.8620    2.3128 O.3       1 GTP        -0.5474
     14 C5'        -0.8811    2.4285    1.6206 C.3       1 GTP         0.2547
     15 C4'        -0.1994    1.3333    2.4288 C.3       1 GTP         0.0926
     16 O4'        -1.1285    0.2356    2.5840 O.3       1 GTP        -0.3593
     17 C3'         1.0324    0.7610    1.7344 C.3       1 GTP         0.0907
     18 O3'         1.9175    0.2377    2.7247 O.3       1 GTP        -0.5209
     19 C2'         0.4468   -0.3802    0.9263 C.3       1 GTP         0.0305
     20 O2'         1.3993   -1.3703    0.5961 O.3       1 GTP        -0.5978
     21 C1'        -0.6159   -0.9100    1.8769 C.3       1 GTP         0.2339
     22 N9         -1.7127   -1.6108    1.2130 N.pl3     1 GTP        -0.1765
     23 C8         -1.6311   -2.3341    0.0493 C.ar      1 GTP         0.4947
     24 N7         -2.7933   -2.8506   -0.3007 N.2       1 GTP        -0.5802
     25 C5         -3.6607   -2.4436    0.6786 C.ar      1 GTP         0.2279
     26 C6         -5.0651   -2.7506    0.7505 C.ar      1 GTP         0.6513
     27 O6         -5.6735   -3.4256   -0.0671 O.2       1 GTP        -0.5111
     28 N1         -5.6834   -2.1585    1.9182 N.pl3     1 GTP        -0.4713
     29 C2         -5.0007   -1.3738    2.8765 C.ar      1 GTP         0.5256
     30 N2         -5.6847   -0.8521    3.9640 N.pl3     1 GTP        -0.8665
     31 N3         -3.6227   -1.1271    2.7212 N.pl3     1 GTP        -0.5398
     32 C4         -3.0090   -1.6802    1.6149 C.ar      1 GTP        -0.0275
     33 HOG3        3.3213    3.8910    6.4264 H         1 GTP         0.4161
     34 H5'        -1.1767    2.0502    0.6368 H         1 GTP         0.0348
     35 H5''       -0.2080    3.2814    1.4876 H         1 GTP         0.0348
     36 H4'         0.0403    1.7078    3.4343 H         1 GTP         0.1215
     37 H3'         1.5907    1.4859    1.1353 H         1 GTP         0.0576
     38 HO3'        2.1521    0.9800    3.3017 H         1 GTP         0.3842
     39 H2'        -0.0017    0.0018    0.0005 H         1 GTP         0.0252
     40 HO2'        2.0953   -0.9375    0.0709 H         1 GTP         0.4224
     41 H1'        -0.1998   -1.6319    2.6178 H         1 GTP         0.0745
     42 H8         -0.7029   -2.4474   -0.4941 H         1 GTP         0.1522
     43 HN1        -6.6800   -2.3183    2.0594 H         1 GTP         0.3518
     44 HN21       -5.1660   -0.3153    4.5987 H         1 GTP         0.4761
     45 HN22       -6.6415   -1.0545    4.0252 H         1 GTP         0.4761
     46 H46        -3.1256   -0.5638    3.4080 H         1 GTP         0.5030
@<TRIPOS>BOND
     1    1    2 2
     2    1    3 1
     3    1    4 1
     4    1    5 1
     5    4   33 1
     6    5    6 1
     7    6    7 2
     8    6    8 1
     9    6    9 1
    10    9   10 1
    11   10   11 2
    12   10   12 1
    13   10   13 1
    14   13   14 1
    15   14   15 1
    16   14   34 1
    17   14   35 1
    18   15   16 1
    19   15   17 1
    20   15   36 1
    21   16   21 1
    22   17   18 1
    23   17   19 1
    24   17   37 1
    25   18   38 1
    26   19   20 1
    27   19   21 1
    28   19   39 1
    29   20   40 1
    30   21   22 1
    31   21   41 1
    32   22   23 ar
    33   22   32 ar
    34   23   24 ar
    35   23   42 1
    36   24   25 ar
    37   25   26 ar
    38   25   32 ar
    39   26   27 2
    40   26   28 ar
    41   28   29 ar
    42   28   43 1
    43   29   30 1
    44   29   31 ar
    45   30   44 1
    46   30   45 1
    47   31   32 ar
    48   31   46 1
@<TRIPOS>SUBSTRUCTURE
     1 GTP         1 GROUP 0 A     ****
@<TRIPOS>MOLECULE
[[[5-(2-amino-6-oxo-1,3-dihydropurin-2-ylium-9-yl)-3,4-dihydroxy-tetrahydrofuran-2-yl]methoxy-oxido-phosphoryl]oxy-oxido-phosphoryl] hydrogen phosphate
   46    48     1     0     0
SMALL
USER_CHARGES

@<TRIPOS>ATOM
      1 PG         -5.9294    2.7971   -2.4005 P.3       1 GTP         1.5400
      2 O1G        -5.2006    3.3835   -3.5890 O.co2     1 GTP        -0.8909
      3 O2G        -6.5628    1.4256   -2.4765 O.co2     1 GTP        -0.8909
      4 O3G        -7.0624    3.8648   -1.9084 O.3       1 GTP        -0.7980
      5 O3B        -4.9512    2.8564   -1.0954 O.3       1 GTP        -0.7612
      6 PB         -5.2692    2.5047    0.4669 P.3       1 GTP         1.5847
      7 O1B        -6.2726    3.5058    0.9947 O.co2     1 GTP        -0.8859
      8 O2B        -5.4914    1.0148    0.6018 O.co2     1 GTP        -0.8859
      9 O3A        -3.8007    2.8142    1.1092 O.3       1 GTP        -0.7486
     10 PA         -3.2890    2.7005    2.6567 P.3       1 GTP         1.5001
     11 O1A        -4.0468    3.7072    3.4949 O.co2     1 GTP        -0.8487
     12 O2A        -3.2398    1.2387    3.0445 O.co2     1 GTP        -0.8487
     13 O5'        -1.7336    3.1724    2.4750 O.3       1 GTP        -0.5474
     14 C5'        -0.8811    2.4285    1.6206 C.3       1 GTP         0.2547
     15 C4'        -0.1994    1.3333    2.4288 C.3       1 GTP         0.0926
     16 O4'        -1.1285    0.2356    2.5840 O.3       1 GTP        -0.3593
     17 C3'         1.0324    0.7610    1.7344 C.3       1 GTP         0.0907
     18 O3'         1.9175    0.2377    2.7247 O.3       1 GTP        -0.5209
     19 C2'         0.4468   -0.3802    0.9263 C.3       1 GTP         0.0305
     20 O2'         1.3993   -1.3703    0.5961 O.3       1 GTP        -0.5978
     21 C1'        -0.6159   -0.9100    1.8769 C.3       1 GTP         0.2339
     22 N9         -1.7127   -1.6108    1.2130 N.pl3     1 GTP        -0.1765
     23 C8         -2.5534   -1.0907    0.2607 C.ar      1 GTP         0.4947
     24 N7         -3.4469   -1.9695   -0.1508 N.2       1 GTP        -0.5802
     25 C5         -3.1705   -3.1041    0.5657 C.ar      1 GTP         0.2279
     26 C6         -3.8738   -4.3568    0.4777 C.ar      1 GTP         0.6513
     27 O6         -4.8240   -4.5720   -0.2607 O.2       1 GTP        -0.5111
     28 N1         -3.3198   -5.3462    1.3780 N.pl3     1 GTP        -0.4713
     29 C2         -2.2226   -5.1203    2.2413 C.ar      1 GTP         0.5256
     30 N2         -1.7649   -6.1367    3.0659 N.pl3     1 GTP        -0.8665
     31 N3         -1.5969   -3.8585    2.2574 N.pl3     1 GTP        -0.5398
     32 C4         -2.1068   -2.8965    1.4082 C.ar      1 GTP        -0.0275
     33 HOG3       -7.6242    3.6284   -1.1398 H         1 GTP         0.4161
     34 H5'        -1.4800    1.9927    0.8146 H         1 GTP         0.0348
     35 H5''       -0.1367    3.1040    1.1872 H         1 GTP         0.0348
     36 H4'         0.0403    1.7078    3.4343 H         1 GTP         0.1215
     37 H3'         1.5907    1.4859    1.1353 H         1 GTP         0.0576
     38 HO3'        2.6839   -0.1150    2.2479 H         1 GTP         0.3842
     39 H2'        -0.0017    0.0018    0.0005 H         1 GTP         0.0252
     40 HO2'        2.0953   -0.9375    0.0709 H         1 GTP         0.4224
     41 H1'        -0.1998   -1.6319    2.6178 H         1 GTP         0.0745
     42 H8         -2.4657   -0.0713   -0.0897 H         1 GTP         0.1522
     43 HN1        -3.7505   -6.2699    1.3904 H         1 GTP         0.3518
     44 HN21       -1.0023   -5.9289    3.6451 H         1 GTP         0.4761
     45 HN22       -2.2347   -6.9951    3.0150 H         1 GTP         0.4761
     46 H46        -0.8062   -3.6900    2.8760 H         1 GTP         0.5030
@<TRIPOS>BOND
     1    1    2 2
     2    1    3 1
     3    1    4 1
     4    1    5 1
     5    4   33 1
     6    5    6 1
     7    6    7 2
     8    6    8 1
     9    6    9 1
    10    9   10 1
    11   10   11 2
    12   10   12 1
    13   10   13 1
    14   13   14 1
    15   14   15 1
    16   14   34 1
    17   14   35 1
    18   15   16 1
    19   15   17 1
    20   15   36 1
    21   16   21 1
    22   17   18 1
    23   17   19 1
    24   17   37 1
    25   18   38 1
    26   19   20 1
    27   19   21 1
    28   19   39 1
    29   20   40 1
    30   21   22 1
    31   21   41 1
    32   22   23 ar
    33   22   32 ar
    34   23   24 ar
    35   23   42 1
    36   24   25 ar
    37   25   26 ar
    38   25   32 ar
    39   26   27 2
    40   26   28 ar
    41   28   29 ar
    42   28   43 1
    43   29   30 1
    44   29   31 ar
    45   30   44 1
    46   30   45 1
    47   31   32 ar
    48   31   46 1
@<TRIPOS>SUBSTRUCTURE
     1 GTP         1 GROUP 0 A     ****
@<TRIPOS>MOLECULE
[[[5-(2-amino-6-oxo-1,3-dihydropurin-2-ylium-9-yl)-3,4-dihydroxy-tetrahydrofuran-2-yl]methoxy-oxido-phosphoryl]oxy-oxido-phosphoryl] hydrogen phosphate
   46    48     1     0     0
SMALL
USER_CHARGES

@<TRIPOS>ATOM
      1 PG          0.3637    1.2845    6.5918 P.3       1 GTP         1.5400
      2 O1G        -0.4456    1.2665    7.8694 O.co2     1 GTP        -0.8909
      3 O2G        -0.1453    0.6054    5.3398 O.co2     1 GTP        -0.8909
      4 O3G         1.8598    0.7175    6.9174 O.3       1 GTP        -0.7980
      5 O3B         0.7572    2.8275    6.2339 O.3       1 GTP        -0.7612
      6 PB         -0.1989    4.0755    5.7937 P.3       1 GTP         1.5847
      7 O1B        -1.2854    4.2439    6.8323 O.co2     1 GTP        -0.8859
      8 O2B         0.6710    5.2353    5.3628 O.co2     1 GTP        -0.8859
      9 O3A        -0.8402    3.4461    4.4308 O.3       1 GTP        -0.7486
     10 PA         -1.9156    4.0918    3.3837 P.3       1 GTP         1.5001
     11 O1A        -3.2320    4.2955    4.1021 O.co2     1 GTP        -0.8487
     12 O2A        -1.2462    5.2272    2.6405 O.co2     1 GTP        -0.8487
     13 O5'        -2.0401    2.8620    2.3128 O.3       1 GTP        -0.5474
     14 C5'        -0.8811    2.4285    1.6206 C.3       1 GTP         0.2547
     15 C4'        -0.1994    1.3333    2.4288 C.3       1 GTP         0.0926
     16 O4'        -1.1285    0.2356    2.5840 O.3       1 GTP        -0.3593
     17 C3'         1.0324    0.7610    1.7344 C.3       1 GTP         0.0907
     18 O3'         1.9175    0.2377    2.7247 O.3       1 GTP        -0.5209
     19 C2'         0.4468   -0.3802    0.9263 C.3       1 GTP         0.0305
     20 O2'         1.3993   -1.3703    0.5961 O.3       1 GTP        -0.5978
     21 C1'        -0.6159   -0.9100    1.8769 C.3       1 GTP         0.2339
     22 N9         -1.7127   -1.6108    1.2130 N.pl3     1 GTP        -0.1765
     23 C8         -2.8692   -1.0463    0.7355 C.ar      1 GTP         0.4947
     24 N7         -3.6707   -1.9381    0.1856 N.2       1 GTP        -0.5802
     25 C5         -3.0027   -3.1275    0.3134 C.ar      1 GTP         0.2279
     26 C6         -3.4659   -4.4142   -0.1355 C.ar      1 GTP         0.6513
     27 O6         -4.5328   -4.6133   -0.6980 O.2       1 GTP        -0.5111
     28 N1         -2.5102   -5.4606    0.1612 N.pl3     1 GTP        -0.4713
     29 C2         -1.2711   -5.2547    0.8113 C.ar      1 GTP         0.5256
     30 N2         -0.4228   -6.3256    1.0482 N.pl3     1 GTP        -0.8665
     31 N3         -0.9033   -3.9563    1.2146 N.pl3     1 GTP        -0.5398
     32 C4         -1.7979   -2.9400    0.9438 C.ar      1 GTP        -0.0275
     33 HOG3        2.5096    0.6665    6.1843 H         1 GTP         0.4161
     34 H5'        -1.1767    2.0502    0.6368 H         1 GTP         0.0348
     35 H5''       -0.2080    3.2814    1.4876 H         1 GTP         0.0348
     36 H4'         0.0403    1.7078    3.4343 H         1 GTP         0.1215
     37 H3'         1.5907    1.4859    1.1353 H         1 GTP         0.0576
     38 HO3'        2.6839   -0.1150    2.2479 H         1 GTP         0.3842
     39 H2'        -0.0017    0.0018    0.0005 H         1 GTP         0.0252
     40 HO2'        2.0953   -0.9375    0.0709 H         1 GTP         0.4224
     41 H1'        -0.1998   -1.6319    2.6178 H         1 GTP         0.0745
     42 H8         -3.0691    0.0134    0.8177 H         1 GTP         0.1522
     43 HN1        -2.7468   -6.4119   -0.1177 H         1 GTP         0.3518
     44 HN21        0.4233   -6.1297    1.5018 H         1 GTP         0.4761
     45 HN22       -0.7261   -7.2071    0.7466 H         1 GTP         0.4761
     46 H46        -0.0124   -3.8015    1.6821 H         1 GTP         0.5030
@<TRIPOS>BOND
     1    1    2 2
     2    1    3 1
     3    1    4 1
     4    1    5 1
     5    4   33 1
     6    5    6 1
     7    6    7 2
     8    6    8 1
     9    6    9 1
    10    9   10 1
    11   10   11 2
    12   10   12 1
    13   10   13 1
    14   13   14 1
    15   14   15 1
    16   14   34 1
    17   14   35 1
    18   15   16 1
    19   15   17 1
    20   15   36 1
    21   16   21 1
    22   17   18 1
    23   17   19 1
    24   17   37 1
    25   18   38 1
    26   19   20 1
    27   19   21 1
    28   19   39 1
    29   20   40 1
    30   21   22 1
    31   21   41 1
    32   22   23 ar
    33   22   32 ar
    34   23   24 ar
    35   23   42 1
    36   24   25 ar
    37   25   26 ar
    38   25   32 ar
    39   26   27 2
    40   26   28 ar
    41   28   29 ar
    42   28   43 1
    43   29   30 1
    44   29   31 ar
    45   30   44 1
    46   30   45 1
    47   31   32 ar
    48   31   46 1
@<TRIPOS>SUBSTRUCTURE
     1 GTP         1 GROUP 0 A     ****
@<TRIPOS>MOLECULE
[[[5-(2-amino-6-oxo-1,3-dihydropurin-2-ylium-9-yl)-3,4-dihydroxy-tetrahydrofuran-2-yl]methoxy-oxido-phosphoryl]oxy-oxido-phosphoryl] hydrogen phosphate
   46    48     1     0     0
SMALL
USER_CHARGES

@<TRIPOS>ATOM
      1 PG          0.4103    2.3718   -4.6113 P.3       1 GTP         1.5400
      2 O1G         1.2687    3.4337   -5.2618 O.co2     1 GTP        -0.8909
      3 O2G         0.5494    0.9160   -4.9970 O.co2     1 GTP        -0.8909
      4 O3G        -1.1566    2.8027   -4.7698 O.3       1 GTP        -0.7980
      5 O3B         0.5395    2.5041   -2.9897 O.3       1 GTP        -0.7612
      6 PB          1.8242    2.2386   -2.0178 P.3       1 GTP         1.5847
      7 O1B         2.1761    0.7686   -2.0698 O.co2     1 GTP        -0.8859
      8 O2B         2.8617    3.3104   -2.2679 O.co2     1 GTP        -0.8859
      9 O3A         1.1387    2.5846   -0.5772 O.3       1 GTP        -0.7486
     10 PA          0.4528    3.9705   -0.0493 P.3       1 GTP         1.5001
     11 O1A         1.5160    5.0455    0.0159 O.co2     1 GTP        -0.8487
     12 O2A        -0.8379    4.1916   -0.8075 O.co2     1 GTP        -0.8487
     13 O5'         0.0178    3.5131    1.4595 O.3       1 GTP        -0.5474
     14 C5'        -0.8811    2.4285    1.6206 C.3       1 GTP         0.2547
     15 C4'        -0.1994    1.3333    2.4288 C.3       1 GTP         0.0926
     16 O4'        -1.1285    0.2356    2.5840 O.3       1 GTP        -0.3593
     17 C3'         1.0324    0.7610    1.7344 C.3       1 GTP         0.0907
     18 O3'         1.9175    0.2377    2.7247 O.3       1 GTP        -0.5209
     19 C2'         0.4468   -0.3802    0.9263 C.3       1 GTP         0.0305
     20 O2'         1.3993   -1.3703    0.5961 O.3       1 GTP        -0.5978
     21 C1'        -0.6159   -0.9100    1.8769 C.3       1 GTP         0.2339
     22 N9         -1.7127   -1.6108    1.2130 N.pl3     1 GTP        -0.1765
     23 C8         -3.0389   -1.2578    1.2391 C.ar      1 GTP         0.4947
     24 N7         -3.7909   -2.0880    0.5425 N.2       1 GTP        -0.5802
     25 C5         -2.9127   -3.0150    0.0458 C.ar      1 GTP         0.2279
     26 C6         -3.2467   -4.1411   -0.7860 C.ar      1 GTP         0.6513
     27 O6         -4.3761   -4.4189   -1.1621 O.2       1 GTP        -0.5111
     28 N1         -2.0748   -4.9191   -1.1296 N.pl3     1 GTP        -0.4713
     29 C2         -0.7595   -4.6181   -0.7058 C.ar      1 GTP         0.5256
     30 N2          0.2985   -5.4268   -1.0920 N.pl3     1 GTP        -0.8665
     31 N3         -0.5304   -3.4919    0.1084 N.pl3     1 GTP        -0.5398
     32 C4         -1.6318   -2.7332    0.4512 C.ar      1 GTP        -0.0275
     33 HOG3       -1.8437    2.2108   -4.3958 H         1 GTP         0.4161
     34 H5'        -1.7771    2.7849    2.1387 H         1 GTP         0.0348
     35 H5''       -1.1654    2.0541    0.6320 H         1 GTP         0.0348
     36 H4'         0.0403    1.7078    3.4343 H         1 GTP         0.1215
     37 H3'         1.5907    1.4859    1.1353 H         1 GTP         0.0576
     38 HO3'        2.6839   -0.1150    2.2479 H         1 GTP         0.3842
     39 H2'        -0.0017    0.0018    0.0005 H         1 GTP         0.0252
     40 HO2'        2.0953   -0.9375    0.0709 H         1 GTP         0.4224
     41 H1'        -0.1998   -1.6319    2.6178 H         1 GTP         0.0745
     42 H8         -3.3933   -0.3909    1.7800 H         1 GTP         0.1522
     43 HN1        -2.2071   -5.7408   -1.7178 H         1 GTP         0.3518
     44 HN21        1.1896   -5.1751   -0.7715 H         1 GTP         0.4761
     45 HN22        0.0846   -6.1966   -1.6593 H         1 GTP         0.4761
     46 H46         0.4142   -3.2695    0.4160 H         1 GTP         0.5030
@<TRIPOS>BOND
     1    1    2 2
     2    1    3 1
     3    1    4 1
     4    1    5 1
     5    4   33 1
     6    5    6 1
     7    6    7 2
     8    6    8 1
     9    6    9 1
    10    9   10 1
    11   10   11 2
    12   10   12 1
    13   10   13 1
    14   13   14 1
    15   14   15 1
    16   14   34 1
    17   14   35 1
    18   15   16 1
    19   15   17 1
    20   15   36 1
    21   16   21 1
    22   17   18 1
    23   17   19 1
    24   17   37 1
    25   18   38 1
    26   19   20 1
    27   19   21 1
    28   19   39 1
    29   20   40 1
    30   21   22 1
    31   21   41 1
    32   22   23 ar
    33   22   32 ar
    34   23   24 ar
    35   23   42 1
    36   24   25 ar
    37   25   26 ar
    38   25   32 ar
    39   26   27 2
    40   26   28 ar
    41   28   29 ar
    42   28   43 1
    43   29   30 1
    44   29   31 ar
    45   30   44 1
    46   30   45 1
    47   31   32 ar
    48   31   46 1
@<TRIPOS>SUBSTRUCTURE
     1 GTP         1 GROUP 0 A     ****
@<TRIPOS>MOLECULE
[[[5-(2-amino-6-oxo-1,3-dihydropurin-2-ylium-9-yl)-3,4-dihydroxy-tetrahydrofuran-2-yl]methoxy-oxido-phosphoryl]oxy-oxido-phosphoryl] hydrogen phosphate
   46    48     1     0     0
SMALL
USER_CHARGES

@<TRIPOS>ATOM
      1 PG          5.8211    1.8201   -5.9005 P.3       1 GTP         1.5400
      2 O1G         7.0539    0.9727   -5.6777 O.co2     1 GTP        -0.8909
      3 O2G         4.6751    1.3169   -6.7497 O.co2     1 GTP        -0.8909
      4 O3G         6.2890    3.2764   -6.4714 O.3       1 GTP        -0.7980
      5 O3B         5.2369    2.2985   -4.4536 O.3       1 GTP        -0.7612
      6 PB          4.0288    3.3404   -4.1061 P.3       1 GTP         1.5847
      7 O1B         4.4364    4.7242   -4.5604 O.co2     1 GTP        -0.8859
      8 O2B         2.7117    2.7257   -4.5243 O.co2     1 GTP        -0.8859
      9 O3A         4.0785    3.2648   -2.4762 O.3       1 GTP        -0.7486
     10 PA          5.2953    3.6262   -1.4472 P.3       1 GTP         1.5001
     11 O1A         6.4381    2.6638   -1.6881 O.co2     1 GTP        -0.8487
     12 O2A         5.5162    5.1230   -1.4650 O.co2     1 GTP        -0.8487
     13 O5'         4.5670    3.2937   -0.0211 O.3       1 GTP        -0.5474
     14 C5'         4.0922    1.9801    0.2227 C.3       1 GTP         0.2547
     15 C4'         2.5944    2.0310    0.4653 C.3       1 GTP         0.0926
     16 O4'         1.9327    2.5740   -0.6889 O.3       1 GTP        -0.3593
     17 C3'         1.9685    0.6634    0.6767 C.3       1 GTP         0.0907
     18 O3'         2.1425    0.1975    1.9977 O.3       1 GTP        -0.5209
     19 C2'         0.5176    0.9128    0.3099 C.3       1 GTP         0.0305
     20 O2'        -0.2103    1.4454    1.4152 O.3       1 GTP        -0.5978
     21 C1'         0.6219    1.9765   -0.7844 C.3       1 GTP         0.2339
     22 N9          0.4237    1.4496   -2.1357 N.pl3     1 GTP        -0.1765
     23 C8          1.3988    0.9691   -2.9736 C.ar      1 GTP         0.4947
     24 N7          0.9092    0.5634   -4.1293 N.2       1 GTP        -0.5802
     25 C5         -0.4383    0.7914   -4.0325 C.ar      1 GTP         0.2279
     26 C6         -1.4217    0.5138   -5.0461 C.ar      1 GTP         0.6513
     27 O6         -1.1759    0.0306   -6.1417 O.2       1 GTP        -0.5111
     28 N1         -2.7543    0.8794   -4.6134 N.pl3     1 GTP        -0.4713
     29 C2         -3.0626    1.4402   -3.3523 C.ar      1 GTP         0.5256
     30 N2         -4.3747    1.7544   -3.0321 N.pl3     1 GTP        -0.8665
     31 N3         -2.0304    1.6759   -2.4233 N.pl3     1 GTP        -0.5398
     32 C4         -0.7497    1.3366   -2.8118 C.ar      1 GTP        -0.0275
     33 HOG3        5.5984    3.9449   -6.6676 H         1 GTP         0.4161
     34 H5'         4.3179    1.3548   -0.6470 H         1 GTP         0.0348
     35 H5''        4.6083    1.5737    1.0983 H         1 GTP         0.0348
     36 H4'         2.3752    2.7029    1.3156 H         1 GTP         0.1215
     37 H3'         2.4336   -0.1217   -0.0015 H         1 GTP         0.0576
     38 HO3'        1.7160   -0.6716    2.0397 H         1 GTP         0.3842
     39 H2'         0.0316    0.0155   -0.0339 H         1 GTP         0.0252
     40 HO2'       -0.1608    0.7921    2.1351 H         1 GTP         0.4224
     41 H1'        -0.1474    2.7798   -0.6651 H         1 GTP         0.0745
     42 H8          2.4413    0.9409   -2.6872 H         1 GTP         0.1522
     43 HN1        -3.5236    0.7214   -5.2629 H         1 GTP         0.3518
     44 HN21       -4.5350    2.1409   -2.1461 H         1 GTP         0.4761
     45 HN22       -5.0542    1.5695   -3.7134 H         1 GTP         0.4761
     46 H46        -2.2462    2.0786   -1.5136 H         1 GTP         0.5030
@<TRIPOS>BOND
     1    1    2 2
     2    1    3 1
     3    1    4 1
     4    1    5 1
     5    4   33 1
     6    5    6 1
     7    6    7 2
     8    6    8 1
     9    6    9 1
    10    9   10 1
    11   10   11 2
    12   10   12 1
    13   10   13 1
    14   13   14 1
    15   14   15 1
    16   14   34 1
    17   14   35 1
    18   15   16 1
    19   15   17 1
    20   15   36 1
    21   16   21 1
    22   17   18 1
    23   17   19 1
    24   17   37 1
    25   18   38 1
    26   19   20 1
    27   19   21 1
    28   19   39 1
    29   20   40 1
    30   21   22 1
    31   21   41 1
    32   22   23 ar
    33   22   32 ar
    34   23   24 ar
    35   23   42 1
    36   24   25 ar
    37   25   26 ar
    38   25   32 ar
    39   26   27 2
    40   26   28 ar
    41   28   29 ar
    42   28   43 1
    43   29   30 1
    44   29   31 ar
    45   30   44 1
    46   30   45 1
    47   31   32 ar
    48   31   46 1
@<TRIPOS>SUBSTRUCTURE
     1 GTP         1 GROUP 0 A     ****
@<TRIPOS>MOLECULE
[[[5-(2-amino-6-oxo-1,3-dihydropurin-2-ylium-9-yl)-3,4-dihydroxy-tetrahydrofuran-2-yl]methoxy-oxido-phosphoryl]oxy-oxido-phosphoryl] hydrogen phosphate
   46    48     1     0     0
SMALL
USER_CHARGES

@<TRIPOS>ATOM
      1 PG          4.1589    3.6660   -3.1382 P.3       1 GTP         1.5400
      2 O1G         5.1075    2.4901   -3.2083 O.co2     1 GTP        -0.8909
      3 O2G         3.4931    4.2030   -4.3857 O.co2     1 GTP        -0.8909
      4 O3G         4.9168    4.8995   -2.3832 O.3       1 GTP        -0.7980
      5 O3B         3.0128    3.3580   -2.0178 O.3       1 GTP        -0.7612
      6 PB          1.8242    2.2386   -2.0178 P.3       1 GTP         1.5847
      7 O1B         0.8527    2.5631   -3.1306 O.co2     1 GTP        -0.8859
      8 O2B         2.4408    0.8644   -1.8807 O.co2     1 GTP        -0.8859
      9 O3A         1.1387    2.5846   -0.5772 O.3       1 GTP        -0.7486
     10 PA          0.4528    3.9705   -0.0493 P.3       1 GTP         1.5001
     11 O1A         1.5160    5.0455    0.0159 O.co2     1 GTP        -0.8487
     12 O2A        -0.8379    4.1916   -0.8075 O.co2     1 GTP        -0.8487
     13 O5'         0.0178    3.5131    1.4595 O.3       1 GTP        -0.5474
     14 C5'        -0.8811    2.4285    1.6206 C.3       1 GTP         0.2547
     15 C4'        -0.1994    1.3333    2.4288 C.3       1 GTP         0.0926
     16 O4'        -1.1285    0.2356    2.5840 O.3       1 GTP        -0.3593
     17 C3'         1.0324    0.7610    1.7344 C.3       1 GTP         0.0907
     18 O3'         1.9175    0.2377    2.7247 O.3       1 GTP        -0.5209
     19 C2'         0.4468   -0.3802    0.9263 C.3       1 GTP         0.0305
     20 O2'         1.3993   -1.3703    0.5961 O.3       1 GTP        -0.5978
     21 C1'        -0.6159   -0.9100    1.8769 C.3       1 GTP         0.2339
     22 N9         -1.7127   -1.6108    1.2130 N.pl3     1 GTP        -0.1765
     23 C8         -3.0389   -1.2578    1.2391 C.ar      1 GTP         0.4947
     24 N7         -3.7909   -2.0880    0.5425 N.2       1 GTP        -0.5802
     25 C5         -2.9127   -3.0150    0.0458 C.ar      1 GTP         0.2279
     26 C6         -3.2467   -4.1411   -0.7860 C.ar      1 GTP         0.6513
     27 O6         -4.3761   -4.4189   -1.1621 O.2       1 GTP        -0.5111
     28 N1         -2.0748   -4.9191   -1.1296 N.pl3     1 GTP        -0.4713
     29 C2         -0.7595   -4.6181   -0.7058 C.ar      1 GTP         0.5256
     30 N2          0.2985   -5.4268   -1.0920 N.pl3     1 GTP        -0.8665
     31 N3         -0.5304   -3.4919    0.1084 N.pl3     1 GTP        -0.5398
     32 C4         -1.6318   -2.7332    0.4512 C.ar      1 GTP        -0.0275
     33 HOG3        4.4288    5.7413   -2.2588 H         1 GTP         0.4161
     34 H5'        -1.7771    2.7849    2.1387 H         1 GTP         0.0348
     35 H5''       -1.1654    2.0541    0.6320 H         1 GTP         0.0348
     36 H4'         0.0403    1.7078    3.4343 H         1 GTP         0.1215
     37 H3'         1.5907    1.4859    1.1353 H         1 GTP         0.0576
     38 HO3'        2.6839   -0.1150    2.2479 H         1 GTP         0.3842
     39 H2'        -0.0017    0.0018    0.0005 H         1 GTP         0.0252
     40 HO2'        2.0953   -0.9375    0.0709 H         1 GTP         0.4224
     41 H1'        -0.1998   -1.6319    2.6178 H         1 GTP         0.0745
     42 H8         -3.3933   -0.3909    1.7800 H         1 GTP         0.1522
     43 HN1        -2.2071   -5.7408   -1.7178 H         1 GTP         0.3518
     44 HN21        1.1896   -5.1751   -0.7715 H         1 GTP         0.4761
     45 HN22        0.0846   -6.1966   -1.6593 H         1 GTP         0.4761
     46 H46         0.4142   -3.2695    0.4160 H         1 GTP         0.5030
@<TRIPOS>BOND
     1    1    2 2
     2    1    3 1
     3    1    4 1
     4    1    5 1
     5    4   33 1
     6    5    6 1
     7    6    7 2
     8    6    8 1
     9    6    9 1
    10    9   10 1
    11   10   11 2
    12   10   12 1
    13   10   13 1
    14   13   14 1
    15   14   15 1
    16   14   34 1
    17   14   35 1
    18   15   16 1
    19   15   17 1
    20   15   36 1
    21   16   21 1
    22   17   18 1
    23   17   19 1
    24   17   37 1
    25   18   38 1
    26   19   20 1
    27   19   21 1
    28   19   39 1
    29   20   40 1
    30   21   22 1
    31   21   41 1
    32   22   23 ar
    33   22   32 ar
    34   23   24 ar
    35   23   42 1
    36   24   25 ar
    37   25   26 ar
    38   25   32 ar
    39   26   27 2
    40   26   28 ar
    41   28   29 ar
    42   28   43 1
    43   29   30 1
    44   29   31 ar
    45   30   44 1
    46   30   45 1
    47   31   32 ar
    48   31   46 1
@<TRIPOS>SUBSTRUCTURE
     1 GTP         1 GROUP 0 A     ****
@<TRIPOS>MOLECULE
[[[5-(2-amino-6-oxo-1,3-dihydropurin-2-ylium-9-yl)-3,4-dihydroxy-tetrahydrofuran-2-yl]methoxy-oxido-phosphoryl]oxy-oxido-phosphoryl] hydrogen phosphate
   46    48     1     0     0
SMALL
USER_CHARGES

@<TRIPOS>ATOM
      1 PG          3.0033   -0.3816   -2.7160 P.3       1 GTP         1.5400
      2 O1G         2.0900   -0.7187   -3.8735 O.co2     1 GTP        -0.8909
      3 O2G         4.4211    0.0874   -2.9556 O.co2     1 GTP        -0.8909
      4 O3G         3.0445   -1.6584   -1.6991 O.3       1 GTP        -0.7980
      5 O3B         2.2503    0.6874   -1.7392 O.3       1 GTP        -0.7612
      6 PB          1.8242    2.2386   -2.0178 P.3       1 GTP         1.5847
      7 O1B         3.0805    3.0630   -2.1905 O.co2     1 GTP        -0.8859
      8 O2B         0.7109    2.2682   -3.0411 O.co2     1 GTP        -0.8859
      9 O3A         1.1387    2.5846   -0.5772 O.3       1 GTP        -0.7486
     10 PA          0.4528    3.9705   -0.0493 P.3       1 GTP         1.5001
     11 O1A         1.5160    5.0455    0.0159 O.co2     1 GTP        -0.8487
     12 O2A        -0.8379    4.1916   -0.8075 O.co2     1 GTP        -0.8487
     13 O5'         0.0178    3.5131    1.4595 O.3       1 GTP        -0.5474
     14 C5'        -0.8811    2.4285    1.6206 C.3       1 GTP         0.2547
     15 C4'        -0.1994    1.3333    2.4288 C.3       1 GTP         0.0926
     16 O4'        -1.1285    0.2356    2.5840 O.3       1 GTP        -0.3593
     17 C3'         1.0324    0.7610    1.7344 C.3       1 GTP         0.0907
     18 O3'         1.9175    0.2377    2.7247 O.3       1 GTP        -0.5209
     19 C2'         0.4468   -0.3802    0.9263 C.3       1 GTP         0.0305
     20 O2'         1.3993   -1.3703    0.5961 O.3       1 GTP        -0.5978
     21 C1'        -0.6159   -0.9100    1.8769 C.3       1 GTP         0.2339
     22 N9         -1.7127   -1.6108    1.2130 N.pl3     1 GTP        -0.1765
     23 C8         -3.0389   -1.2578    1.2391 C.ar      1 GTP         0.4947
     24 N7         -3.7909   -2.0880    0.5425 N.2       1 GTP        -0.5802
     25 C5         -2.9127   -3.0150    0.0458 C.ar      1 GTP         0.2279
     26 C6         -3.2467   -4.1411   -0.7860 C.ar      1 GTP         0.6513
     27 O6         -4.3761   -4.4189   -1.1621 O.2       1 GTP        -0.5111
     28 N1         -2.0748   -4.9191   -1.1296 N.pl3     1 GTP        -0.4713
     29 C2         -0.7595   -4.6181   -0.7058 C.ar      1 GTP         0.5256
     30 N2          0.2985   -5.4268   -1.0920 N.pl3     1 GTP        -0.8665
     31 N3         -0.5304   -3.4919    0.1084 N.pl3     1 GTP        -0.5398
     32 C4         -1.6318   -2.7332    0.4512 C.ar      1 GTP        -0.0275
     33 HOG3        3.5983   -1.5948   -0.8920 H         1 GTP         0.4161
     34 H5'        -1.7771    2.7849    2.1387 H         1 GTP         0.0348
     35 H5''       -1.1654    2.0541    0.6320 H         1 GTP         0.0348
     36 H4'         0.0403    1.7078    3.4343 H         1 GTP         0.1215
     37 H3'         1.5907    1.4859    1.1353 H         1 GTP         0.0576
     38 HO3'        2.6839   -0.1150    2.2479 H         1 GTP         0.3842
     39 H2'        -0.0017    0.0018    0.0005 H         1 GTP         0.0252
     40 HO2'        2.0953   -0.9375    0.0709 H         1 GTP         0.4224
     41 H1'        -0.1998   -1.6319    2.6178 H         1 GTP         0.0745
     42 H8         -3.3933   -0.3909    1.7800 H         1 GTP         0.1522
     43 HN1        -2.2071   -5.7408   -1.7178 H         1 GTP         0.3518
     44 HN21        0.0848   -6.1964   -1.6597 H         1 GTP         0.4761
     45 HN22        1.1896   -5.1747   -0.7719 H         1 GTP         0.4761
     46 H46         0.4142   -3.2695    0.4160 H         1 GTP         0.5030
@<TRIPOS>BOND
     1    1    2 2
     2    1    3 1
     3    1    4 1
     4    1    5 1
     5    4   33 1
     6    5    6 1
     7    6    7 2
     8    6    8 1
     9    6    9 1
    10    9   10 1
    11   10   11 2
    12   10   12 1
    13   10   13 1
    14   13   14 1
    15   14   15 1
    16   14   34 1
    17   14   35 1
    18   15   16 1
    19   15   17 1
    20   15   36 1
    21   16   21 1
    22   17   18 1
    23   17   19 1
    24   17   37 1
    25   18   38 1
    26   19   20 1
    27   19   21 1
    28   19   39 1
    29   20   40 1
    30   21   22 1
    31   21   41 1
    32   22   23 ar
    33   22   32 ar
    34   23   24 ar
    35   23   42 1
    36   24   25 ar
    37   25   26 ar
    38   25   32 ar
    39   26   27 2
    40   26   28 ar
    41   28   29 ar
    42   28   43 1
    43   29   30 1
    44   29   31 ar
    45   30   44 1
    46   30   45 1
    47   31   32 ar
    48   31   46 1
@<TRIPOS>SUBSTRUCTURE
     1 GTP         1 GROUP 0 A     ****
@<TRIPOS>MOLECULE
[[[5-(2-amino-6-oxo-1,3-dihydropurin-2-ylium-9-yl)-3,4-dihydroxy-tetrahydrofuran-2-yl]methoxy-oxido-phosphoryl]oxy-oxido-phosphoryl] hydrogen phosphate
   46    48     1     0     0
SMALL
USER_CHARGES

@<TRIPOS>ATOM
      1 PG          0.4103    2.3718   -4.6113 P.3       1 GTP         1.5400
      2 O1G         1.2687    3.4337   -5.2618 O.co2     1 GTP        -0.8909
      3 O2G         0.5494    0.9160   -4.9970 O.co2     1 GTP        -0.8909
      4 O3G        -1.1566    2.8027   -4.7698 O.3       1 GTP        -0.7980
      5 O3B         0.5395    2.5041   -2.9897 O.3       1 GTP        -0.7612
      6 PB          1.8242    2.2386   -2.0178 P.3       1 GTP         1.5847
      7 O1B         2.1761    0.7686   -2.0698 O.co2     1 GTP        -0.8859
      8 O2B         2.8617    3.3104   -2.2679 O.co2     1 GTP        -0.8859
      9 O3A         1.1387    2.5846   -0.5772 O.3       1 GTP        -0.7486
     10 PA          0.4528    3.9705   -0.0493 P.3       1 GTP         1.5001
     11 O1A         1.5160    5.0455    0.0159 O.co2     1 GTP        -0.8487
     12 O2A        -0.8379    4.1916   -0.8075 O.co2     1 GTP        -0.8487
     13 O5'         0.0178    3.5131    1.4595 O.3       1 GTP        -0.5474
     14 C5'        -0.8811    2.4285    1.6206 C.3       1 GTP         0.2547
     15 C4'        -0.1994    1.3333    2.4288 C.3       1 GTP         0.0926
     16 O4'        -1.1285    0.2356    2.5840 O.3       1 GTP        -0.3593
     17 C3'         1.0324    0.7610    1.7344 C.3       1 GTP         0.0907
     18 O3'         1.9175    0.2377    2.7247 O.3       1 GTP        -0.5209
     19 C2'         0.4468   -0.3802    0.9263 C.3       1 GTP         0.0305
     20 O2'         1.3993   -1.3703    0.5961 O.3       1 GTP        -0.5978
     21 C1'        -0.6159   -0.9100    1.8769 C.3       1 GTP         0.2339
     22 N9         -1.7127   -1.6108    1.2130 N.pl3     1 GTP        -0.1765
     23 C8         -1.6092   -2.7449    0.4467 C.ar      1 GTP         0.4947
     24 N7         -2.7778   -3.1416   -0.0191 N.2       1 GTP        -0.5802
     25 C5         -3.6725   -2.2253    0.4675 C.ar      1 GTP         0.2279
     26 C6         -5.0932   -2.2202    0.2371 C.ar      1 GTP         0.6513
     27 O6         -5.6933   -3.0474   -0.4337 O.2       1 GTP        -0.5111
     28 N1         -5.7390   -1.1061    0.8992 N.pl3     1 GTP        -0.4713
     29 C2         -5.0661   -0.1368    1.6789 C.ar      1 GTP         0.5256
     30 N2         -5.7774    0.8934    2.2749 N.pl3     1 GTP        -0.8665
     31 N3         -3.6705   -0.2251    1.8481 N.pl3     1 GTP        -0.5398
     32 C4         -3.0303   -1.2785    1.2262 C.ar      1 GTP        -0.0275
     33 HOG3       -1.8437    2.2108   -4.3958 H         1 GTP         0.4161
     34 H5'        -1.7771    2.7849    2.1387 H         1 GTP         0.0348
     35 H5''       -1.1654    2.0541    0.6320 H         1 GTP         0.0348
     36 H4'         0.0403    1.7078    3.4343 H         1 GTP         0.1215
     37 H3'         1.5907    1.4859    1.1353 H         1 GTP         0.0576
     38 HO3'        2.6839   -0.1150    2.2479 H         1 GTP         0.3842
     39 H2'        -0.0017    0.0018    0.0005 H         1 GTP         0.0252
     40 HO2'        2.0953   -0.9375    0.0709 H         1 GTP         0.4224
     41 H1'        -0.1998   -1.6319    2.6178 H         1 GTP         0.0745
     42 H8         -0.6610   -3.2324    0.2653 H         1 GTP         0.1522
     43 HN1        -6.7487   -1.0139    0.7961 H         1 GTP         0.3518
     44 HN21       -5.2644    1.5388    2.8044 H         1 GTP         0.4761
     45 HN22       -6.7459    0.9078    2.1265 H         1 GTP         0.4761
     46 H46        -3.1807    0.4690    2.4089 H         1 GTP         0.5030
@<TRIPOS>BOND
     1    1    2 2
     2    1    3 1
     3    1    4 1
     4    1    5 1
     5    4   33 1
     6    5    6 1
     7    6    7 2
     8    6    8 1
     9    6    9 1
    10    9   10 1
    11   10   11 2
    12   10   12 1
    13   10   13 1
    14   13   14 1
    15   14   15 1
    16   14   34 1
    17   14   35 1
    18   15   16 1
    19   15   17 1
    20   15   36 1
    21   16   21 1
    22   17   18 1
    23   17   19 1
    24   17   37 1
    25   18   38 1
    26   19   20 1
    27   19   21 1
    28   19   39 1
    29   20   40 1
    30   21   22 1
    31   21   41 1
    32   22   23 ar
    33   22   32 ar
    34   23   24 ar
    35   23   42 1
    36   24   25 ar
    37   25   26 ar
    38   25   32 ar
    39   26   27 2
    40   26   28 ar
    41   28   29 ar
    42   28   43 1
    43   29   30 1
    44   29   31 ar
    45   30   44 1
    46   30   45 1
    47   31   32 ar
    48   31   46 1
@<TRIPOS>SUBSTRUCTURE
     1 GTP         1 GROUP 0 A     ****
@<TRIPOS>MOLECULE
[[[5-(2-amino-6-oxo-1,3-dihydropurin-2-ylium-9-yl)-3,4-dihydroxy-tetrahydrofuran-2-yl]methoxy-oxido-phosphoryl]oxy-oxido-phosphoryl] hydrogen phosphate
   46    48     1     0     0
SMALL
USER_CHARGES

@<TRIPOS>ATOM
      1 PG          4.1589    3.6660   -3.1382 P.3       1 GTP         1.5400
      2 O1G         5.1075    2.4901   -3.2083 O.co2     1 GTP        -0.8909
      3 O2G         3.4931    4.2030   -4.3857 O.co2     1 GTP        -0.8909
      4 O3G         4.9168    4.8995   -2.3832 O.3       1 GTP        -0.7980
      5 O3B         3.0128    3.3580   -2.0178 O.3       1 GTP        -0.7612
      6 PB          1.8242    2.2386   -2.0178 P.3       1 GTP         1.5847
      7 O1B         0.8527    2.5631   -3.1306 O.co2     1 GTP        -0.8859
      8 O2B         2.4408    0.8644   -1.8807 O.co2     1 GTP        -0.8859
      9 O3A         1.1387    2.5846   -0.5772 O.3       1 GTP        -0.7486
     10 PA          0.4528    3.9705   -0.0493 P.3       1 GTP         1.5001
     11 O1A         1.5160    5.0455    0.0159 O.co2     1 GTP        -0.8487
     12 O2A        -0.8379    4.1916   -0.8075 O.co2     1 GTP        -0.8487
     13 O5'         0.0178    3.5131    1.4595 O.3       1 GTP        -0.5474
     14 C5'        -0.8811    2.4285    1.6206 C.3       1 GTP         0.2547
     15 C4'        -0.1994    1.3333    2.4288 C.3       1 GTP         0.0926
     16 O4'        -1.1285    0.2356    2.5840 O.3       1 GTP        -0.3593
     17 C3'         1.0324    0.7610    1.7344 C.3       1 GTP         0.0907
     18 O3'         1.9175    0.2377    2.7247 O.3       1 GTP        -0.5209
     19 C2'         0.4468   -0.3802    0.9263 C.3       1 GTP         0.0305
     20 O2'         1.3993   -1.3703    0.5961 O.3       1 GTP        -0.5978
     21 C1'        -0.6159   -0.9100    1.8769 C.3       1 GTP         0.2339
     22 N9         -1.7127   -1.6108    1.2130 N.pl3     1 GTP        -0.1765
     23 C8         -1.6092   -2.7449    0.4467 C.ar      1 GTP         0.4947
     24 N7         -2.7778   -3.1416   -0.0191 N.2       1 GTP        -0.5802
     25 C5         -3.6725   -2.2253    0.4675 C.ar      1 GTP         0.2279
     26 C6         -5.0932   -2.2202    0.2371 C.ar      1 GTP         0.6513
     27 O6         -5.6933   -3.0474   -0.4337 O.2       1 GTP        -0.5111
     28 N1         -5.7390   -1.1061    0.8992 N.pl3     1 GTP        -0.4713
     29 C2         -5.0661   -0.1368    1.6789 C.ar      1 GTP         0.5256
     30 N2         -5.7774    0.8934    2.2749 N.pl3     1 GTP        -0.8665
     31 N3         -3.6705   -0.2251    1.8481 N.pl3     1 GTP        -0.5398
     32 C4         -3.0303   -1.2785    1.2262 C.ar      1 GTP        -0.0275
     33 HOG3        4.4288    5.7413   -2.2588 H         1 GTP         0.4161
     34 H5'        -1.7771    2.7849    2.1387 H         1 GTP         0.0348
     35 H5''       -1.1654    2.0541    0.6320 H         1 GTP         0.0348
     36 H4'         0.0403    1.7078    3.4343 H         1 GTP         0.1215
     37 H3'         1.5907    1.4859    1.1353 H         1 GTP         0.0576
     38 HO3'        2.6839   -0.1150    2.2479 H         1 GTP         0.3842
     39 H2'        -0.0017    0.0018    0.0005 H         1 GTP         0.0252
     40 HO2'        2.0953   -0.9375    0.0709 H         1 GTP         0.4224
     41 H1'        -0.1998   -1.6319    2.6178 H         1 GTP         0.0745
     42 H8         -0.6610   -3.2324    0.2653 H         1 GTP         0.1522
     43 HN1        -6.7487   -1.0139    0.7961 H         1 GTP         0.3518
     44 HN21       -5.2644    1.5388    2.8044 H         1 GTP         0.4761
     45 HN22       -6.7459    0.9078    2.1265 H         1 GTP         0.4761
     46 H46        -3.1807    0.4690    2.4089 H         1 GTP         0.5030
@<TRIPOS>BOND
     1    1    2 2
     2    1    3 1
     3    1    4 1
     4    1    5 1
     5    4   33 1
     6    5    6 1
     7    6    7 2
     8    6    8 1
     9    6    9 1
    10    9   10 1
    11   10   11 2
    12   10   12 1
    13   10   13 1
    14   13   14 1
    15   14   15 1
    16   14   34 1
    17   14   35 1
    18   15   16 1
    19   15   17 1
    20   15   36 1
    21   16   21 1
    22   17   18 1
    23   17   19 1
    24   17   37 1
    25   18   38 1
    26   19   20 1
    27   19   21 1
    28   19   39 1
    29   20   40 1
    30   21   22 1
    31   21   41 1
    32   22   23 ar
    33   22   32 ar
    34   23   24 ar
    35   23   42 1
    36   24   25 ar
    37   25   26 ar
    38   25   32 ar
    39   26   27 2
    40   26   28 ar
    41   28   29 ar
    42   28   43 1
    43   29   30 1
    44   29   31 ar
    45   30   44 1
    46   30   45 1
    47   31   32 ar
    48   31   46 1
@<TRIPOS>SUBSTRUCTURE
     1 GTP         1 GROUP 0 A     ****
@<TRIPOS>MOLECULE
[[[5-(2-amino-6-oxo-1,3-dihydropurin-2-ylium-9-yl)-3,4-dihydroxy-tetrahydrofuran-2-yl]methoxy-oxido-phosphoryl]oxy-oxido-phosphoryl] hydrogen phosphate
   46    48     1     0     0
SMALL
USER_CHARGES

@<TRIPOS>ATOM
      1 PG          5.2752   -1.2275    3.5734 P.3       1 GTP         1.5400
      2 O1G         6.4752   -0.7614    4.3673 O.co2     1 GTP        -0.8909
      3 O2G         4.2384   -0.2423    3.0814 O.co2     1 GTP        -0.8909
      4 O3G         4.5163   -2.3992    4.4203 O.3       1 GTP        -0.7980
      5 O3B         5.7893   -2.1279    2.3130 O.3       1 GTP        -0.7612
      6 PB          6.6479   -1.6892    0.9954 P.3       1 GTP         1.5847
      7 O1B         7.9163   -1.0021    1.4500 O.co2     1 GTP        -0.8859
      8 O2B         6.6793   -2.8446    0.0199 O.co2     1 GTP        -0.8859
      9 O3A         5.6224   -0.5833    0.3709 O.3       1 GTP        -0.7486
     10 PA          5.7602    0.3298   -0.9771 P.3       1 GTP         1.5001
     11 O1A         6.9313    1.2734   -0.8079 O.co2     1 GTP        -0.8487
     12 O2A         5.6513   -0.5728   -2.1867 O.co2     1 GTP        -0.8487
     13 O5'         4.3516    1.1575   -0.9026 O.3       1 GTP        -0.5474
     14 C5'         4.0922    1.9801    0.2227 C.3       1 GTP         0.2547
     15 C4'         2.5944    2.0310    0.4653 C.3       1 GTP         0.0926
     16 O4'         1.9327    2.5740   -0.6889 O.3       1 GTP        -0.3593
     17 C3'         1.9685    0.6634    0.6767 C.3       1 GTP         0.0907
     18 O3'         2.1425    0.1975    1.9977 O.3       1 GTP        -0.5209
     19 C2'         0.5176    0.9128    0.3099 C.3       1 GTP         0.0305
     20 O2'        -0.2103    1.4454    1.4152 O.3       1 GTP        -0.5978
     21 C1'         0.6219    1.9765   -0.7844 C.3       1 GTP         0.2339
     22 N9          0.4237    1.4496   -2.1357 N.pl3     1 GTP        -0.1765
     23 C8          1.3988    0.9691   -2.9736 C.ar      1 GTP         0.4947
     24 N7          0.9092    0.5634   -4.1293 N.2       1 GTP        -0.5802
     25 C5         -0.4383    0.7914   -4.0325 C.ar      1 GTP         0.2279
     26 C6         -1.4217    0.5138   -5.0461 C.ar      1 GTP         0.6513
     27 O6         -1.1759    0.0306   -6.1417 O.2       1 GTP        -0.5111
     28 N1         -2.7543    0.8794   -4.6134 N.pl3     1 GTP        -0.4713
     29 C2         -3.0626    1.4402   -3.3523 C.ar      1 GTP         0.5256
     30 N2         -4.3747    1.7544   -3.0321 N.pl3     1 GTP        -0.8665
     31 N3         -2.0304    1.6759   -2.4233 N.pl3     1 GTP        -0.5398
     32 C4         -0.7497    1.3366   -2.8118 C.ar      1 GTP        -0.0275
     33 HOG3        3.7117   -2.8072    4.0350 H         1 GTP         0.4161
     34 H5'         4.6069    1.5618    1.0936 H         1 GTP         0.0348
     35 H5''        4.4824    2.9837    0.0254 H         1 GTP         0.0348
     36 H4'         2.3752    2.7029    1.3156 H         1 GTP         0.1215
     37 H3'         2.4336   -0.1217   -0.0015 H         1 GTP         0.0576
     38 HO3'        1.7160   -0.6716    2.0397 H         1 GTP         0.3842
     39 H2'         0.0316    0.0155   -0.0339 H         1 GTP         0.0252
     40 HO2'       -0.1608    0.7921    2.1351 H         1 GTP         0.4224
     41 H1'        -0.1474    2.7798   -0.6651 H         1 GTP         0.0745
     42 H8          2.4413    0.9409   -2.6872 H         1 GTP         0.1522
     43 HN1        -3.5236    0.7214   -5.2629 H         1 GTP         0.3518
     44 HN21       -4.5350    2.1409   -2.1461 H         1 GTP         0.4761
     45 HN22       -5.0542    1.5695   -3.7134 H         1 GTP         0.4761
     46 H46        -2.2462    2.0786   -1.5136 H         1 GTP         0.5030
@<TRIPOS>BOND
     1    1    2 2
     2    1    3 1
     3    1    4 1
     4    1    5 1
     5    4   33 1
     6    5    6 1
     7    6    7 2
     8    6    8 1
     9    6    9 1
    10    9   10 1
    11   10   11 2
    12   10   12 1
    13   10   13 1
    14   13   14 1
    15   14   15 1
    16   14   34 1
    17   14   35 1
    18   15   16 1
    19   15   17 1
    20   15   36 1
    21   16   21 1
    22   17   18 1
    23   17   19 1
    24   17   37 1
    25   18   38 1
    26   19   20 1
    27   19   21 1
    28   19   39 1
    29   20   40 1
    30   21   22 1
    31   21   41 1
    32   22   23 ar
    33   22   32 ar
    34   23   24 ar
    35   23   42 1
    36   24   25 ar
    37   25   26 ar
    38   25   32 ar
    39   26   27 2
    40   26   28 ar
    41   28   29 ar
    42   28   43 1
    43   29   30 1
    44   29   31 ar
    45   30   44 1
    46   30   45 1
    47   31   32 ar
    48   31   46 1
@<TRIPOS>SUBSTRUCTURE
     1 GTP         1 GROUP 0 A     ****
@<TRIPOS>MOLECULE
[[[5-(2-amino-6-oxo-1,3-dihydropurin-2-ylium-9-yl)-3,4-dihydroxy-tetrahydrofuran-2-yl]methoxy-oxido-phosphoryl]oxy-oxido-phosphoryl] hydrogen phosphate
   46    48     1     0     0
SMALL
USER_CHARGES

@<TRIPOS>ATOM
      1 PG          6.6127    0.9247   -3.7078 P.3       1 GTP         1.5400
      2 O1G         6.1734    0.4720   -2.3332 O.co2     1 GTP        -0.8909
      3 O2G         5.7040    0.7644   -4.9062 O.co2     1 GTP        -0.8909
      4 O3G         8.0489    0.2269   -4.0492 O.3       1 GTP        -0.7980
      5 O3B         7.1072    2.4777   -3.6228 O.3       1 GTP        -0.7612
      6 PB          6.2505    3.8327   -3.3132 P.3       1 GTP         1.5847
      7 O1B         7.2079    4.9991   -3.2123 O.co2     1 GTP        -0.8859
      8 O2B         5.0457    3.8740   -4.2265 O.co2     1 GTP        -0.8859
      9 O3A         5.6920    3.4554   -1.8264 O.3       1 GTP        -0.7486
     10 PA          4.7368    4.3145   -0.8169 P.3       1 GTP         1.5001
     11 O1A         5.4741    5.5682   -0.3987 O.co2     1 GTP        -0.8487
     12 O2A         3.3462    4.3857   -1.4093 O.co2     1 GTP        -0.8487
     13 O5'         4.6405    3.2699    0.4378 O.3       1 GTP        -0.5474
     14 C5'         4.0922    1.9801    0.2227 C.3       1 GTP         0.2547
     15 C4'         2.5944    2.0310    0.4653 C.3       1 GTP         0.0926
     16 O4'         1.9327    2.5740   -0.6889 O.3       1 GTP        -0.3593
     17 C3'         1.9685    0.6634    0.6767 C.3       1 GTP         0.0907
     18 O3'         2.1425    0.1975    1.9977 O.3       1 GTP        -0.5209
     19 C2'         0.5176    0.9128    0.3099 C.3       1 GTP         0.0305
     20 O2'        -0.2103    1.4454    1.4152 O.3       1 GTP        -0.5978
     21 C1'         0.6219    1.9765   -0.7844 C.3       1 GTP         0.2339
     22 N9          0.4237    1.4496   -2.1357 N.pl3     1 GTP        -0.1765
     23 C8          1.3988    0.9691   -2.9736 C.ar      1 GTP         0.4947
     24 N7          0.9092    0.5634   -4.1293 N.2       1 GTP        -0.5802
     25 C5         -0.4383    0.7914   -4.0325 C.ar      1 GTP         0.2279
     26 C6         -1.4217    0.5138   -5.0461 C.ar      1 GTP         0.6513
     27 O6         -1.1759    0.0306   -6.1417 O.2       1 GTP        -0.5111
     28 N1         -2.7543    0.8794   -4.6134 N.pl3     1 GTP        -0.4713
     29 C2         -3.0626    1.4402   -3.3523 C.ar      1 GTP         0.5256
     30 N2         -4.3747    1.7544   -3.0321 N.pl3     1 GTP        -0.8665
     31 N3         -2.0304    1.6759   -2.4233 N.pl3     1 GTP        -0.5398
     32 C4         -0.7497    1.3366   -2.8118 C.ar      1 GTP        -0.0275
     33 HOG3        8.4696    0.4231   -4.9133 H         1 GTP         0.4161
     34 H5'         4.3028    1.6728   -0.8066 H         1 GTP         0.0348
     35 H5''        4.5677    1.2738    0.9106 H         1 GTP         0.0348
     36 H4'         2.3752    2.7029    1.3156 H         1 GTP         0.1215
     37 H3'         2.4336   -0.1217   -0.0015 H         1 GTP         0.0576
     38 HO3'        1.7160   -0.6716    2.0397 H         1 GTP         0.3842
     39 H2'         0.0316    0.0155   -0.0339 H         1 GTP         0.0252
     40 HO2'       -0.1608    0.7921    2.1351 H         1 GTP         0.4224
     41 H1'        -0.1474    2.7798   -0.6651 H         1 GTP         0.0745
     42 H8          2.4413    0.9409   -2.6872 H         1 GTP         0.1522
     43 HN1        -3.5236    0.7214   -5.2629 H         1 GTP         0.3518
     44 HN21       -4.5350    2.1409   -2.1461 H         1 GTP         0.4761
     45 HN22       -5.0542    1.5695   -3.7134 H         1 GTP         0.4761
     46 H46        -2.2462    2.0786   -1.5136 H         1 GTP         0.5030
@<TRIPOS>BOND
     1    1    2 2
     2    1    3 1
     3    1    4 1
     4    1    5 1
     5    4   33 1
     6    5    6 1
     7    6    7 2
     8    6    8 1
     9    6    9 1
    10    9   10 1
    11   10   11 2
    12   10   12 1
    13   10   13 1
    14   13   14 1
    15   14   15 1
    16   14   34 1
    17   14   35 1
    18   15   16 1
    19   15   17 1
    20   15   36 1
    21   16   21 1
    22   17   18 1
    23   17   19 1
    24   17   37 1
    25   18   38 1
    26   19   20 1
    27   19   21 1
    28   19   39 1
    29   20   40 1
    30   21   22 1
    31   21   41 1
    32   22   23 ar
    33   22   32 ar
    34   23   24 ar
    35   23   42 1
    36   24   25 ar
    37   25   26 ar
    38   25   32 ar
    39   26   27 2
    40   26   28 ar
    41   28   29 ar
    42   28   43 1
    43   29   30 1
    44   29   31 ar
    45   30   44 1
    46   30   45 1
    47   31   32 ar
    48   31   46 1
@<TRIPOS>SUBSTRUCTURE
     1 GTP         1 GROUP 0 A     ****
@<TRIPOS>MOLECULE
[[[5-(2-amino-6-oxo-1,3-dihydropurin-2-ylium-9-yl)-3,4-dihydroxy-tetrahydrofuran-2-yl]methoxy-oxido-phosphoryl]oxy-oxido-phosphoryl] hydrogen phosphate
   46    48     1     0     0
SMALL
USER_CHARGES

@<TRIPOS>ATOM
      1 PG          4.5257    4.4055   -5.6456 P.3       1 GTP         1.5400
      2 O1G         4.9774    5.8274   -5.8940 O.co2     1 GTP        -0.8909
      3 O2G         4.9960    3.2743   -6.5327 O.co2     1 GTP        -0.8909
      4 O3G         2.8938    4.3810   -5.5957 O.3       1 GTP        -0.7980
      5 O3B         4.8259    4.0170   -4.0891 O.3       1 GTP        -0.7612
      6 PB          6.2505    3.8327   -3.3132 P.3       1 GTP         1.5847
      7 O1B         6.9714    2.6395   -3.8999 O.co2     1 GTP        -0.8859
      8 O2B         6.9230    5.1818   -3.1895 O.co2     1 GTP        -0.8859
      9 O3A         5.6920    3.4554   -1.8264 O.3       1 GTP        -0.7486
     10 PA          4.7368    4.3145   -0.8169 P.3       1 GTP         1.5001
     11 O1A         5.4741    5.5682   -0.3987 O.co2     1 GTP        -0.8487
     12 O2A         3.3462    4.3857   -1.4093 O.co2     1 GTP        -0.8487
     13 O5'         4.6405    3.2699    0.4378 O.3       1 GTP        -0.5474
     14 C5'         4.0922    1.9801    0.2227 C.3       1 GTP         0.2547
     15 C4'         2.5944    2.0310    0.4653 C.3       1 GTP         0.0926
     16 O4'         1.9327    2.5740   -0.6889 O.3       1 GTP        -0.3593
     17 C3'         1.9685    0.6634    0.6767 C.3       1 GTP         0.0907
     18 O3'         2.1425    0.1975    1.9977 O.3       1 GTP        -0.5209
     19 C2'         0.5176    0.9128    0.3099 C.3       1 GTP         0.0305
     20 O2'        -0.2103    1.4454    1.4152 O.3       1 GTP        -0.5978
     21 C1'         0.6219    1.9765   -0.7844 C.3       1 GTP         0.2339
     22 N9          0.4237    1.4496   -2.1357 N.pl3     1 GTP        -0.1765
     23 C8          1.3988    0.9691   -2.9736 C.ar      1 GTP         0.4947
     24 N7          0.9092    0.5634   -4.1293 N.2       1 GTP        -0.5802
     25 C5         -0.4383    0.7914   -4.0325 C.ar      1 GTP         0.2279
     26 C6         -1.4217    0.5138   -5.0461 C.ar      1 GTP         0.6513
     27 O6         -1.1759    0.0306   -6.1417 O.2       1 GTP        -0.5111
     28 N1         -2.7543    0.8794   -4.6134 N.pl3     1 GTP        -0.4713
     29 C2         -3.0626    1.4402   -3.3523 C.ar      1 GTP         0.5256
     30 N2         -4.3747    1.7544   -3.0321 N.pl3     1 GTP        -0.8665
     31 N3         -2.0304    1.6759   -2.4233 N.pl3     1 GTP        -0.5398
     32 C4         -0.7497    1.3366   -2.8118 C.ar      1 GTP        -0.0275
     33 HOG3        2.4443    3.5229   -5.4408 H         1 GTP         0.4161
     34 H5'         4.3028    1.6728   -0.8066 H         1 GTP         0.0348
     35 H5''        4.5677    1.2738    0.9106 H         1 GTP         0.0348
     36 H4'         2.3752    2.7029    1.3156 H         1 GTP         0.1215
     37 H3'         2.4336   -0.1217   -0.0015 H         1 GTP         0.0576
     38 HO3'        1.7160   -0.6716    2.0397 H         1 GTP         0.3842
     39 H2'         0.0316    0.0155   -0.0339 H         1 GTP         0.0252
     40 HO2'       -0.1608    0.7921    2.1351 H         1 GTP         0.4224
     41 H1'        -0.1474    2.7798   -0.6651 H         1 GTP         0.0745
     42 H8          2.4413    0.9409   -2.6872 H         1 GTP         0.1522
     43 HN1        -3.5236    0.7214   -5.2629 H         1 GTP         0.3518
     44 HN21       -4.5350    2.1409   -2.1461 H         1 GTP         0.4761
     45 HN22       -5.0542    1.5695   -3.7134 H         1 GTP         0.4761
     46 H46        -2.2462    2.0786   -1.5136 H         1 GTP         0.5030
@<TRIPOS>BOND
     1    1    2 2
     2    1    3 1
     3    1    4 1
     4    1    5 1
     5    4   33 1
     6    5    6 1
     7    6    7 2
     8    6    8 1
     9    6    9 1
    10    9   10 1
    11   10   11 2
    12   10   12 1
    13   10   13 1
    14   13   14 1
    15   14   15 1
    16   14   34 1
    17   14   35 1
    18   15   16 1
    19   15   17 1
    20   15   36 1
    21   16   21 1
    22   17   18 1
    23   17   19 1
    24   17   37 1
    25   18   38 1
    26   19   20 1
    27   19   21 1
    28   19   39 1
    29   20   40 1
    30   21   22 1
    31   21   41 1
    32   22   23 ar
    33   22   32 ar
    34   23   24 ar
    35   23   42 1
    36   24   25 ar
    37   25   26 ar
    38   25   32 ar
    39   26   27 2
    40   26   28 ar
    41   28   29 ar
    42   28   43 1
    43   29   30 1
    44   29   31 ar
    45   30   44 1
    46   30   45 1
    47   31   32 ar
    48   31   46 1
@<TRIPOS>SUBSTRUCTURE
     1 GTP         1 GROUP 0 A     ****
@<TRIPOS>MOLECULE
[[[5-(2-amino-6-oxo-1,3-dihydropurin-2-ylium-9-yl)-3,4-dihydroxy-tetrahydrofuran-2-yl]methoxy-oxido-phosphoryl]oxy-oxido-phosphoryl] hydrogen phosphate
   46    48     1     0     0
SMALL
USER_CHARGES

@<TRIPOS>ATOM
      1 PG         -6.4507    1.4468    6.0921 P.3       1 GTP         1.5400
      2 O1G        -7.5809    0.9383    5.2253 O.co2     1 GTP        -0.8909
      3 O2G        -6.0698    0.7333    7.3702 O.co2     1 GTP        -0.8909
      4 O3G        -6.7291    3.0179    6.4386 O.3       1 GTP        -0.7980
      5 O3B        -5.1159    1.6303    5.1708 O.3       1 GTP        -0.7612
      6 PB         -4.2010    0.5060    4.4195 P.3       1 GTP         1.5847
      7 O1B        -3.5336   -0.3557    5.4681 O.co2     1 GTP        -0.8859
      8 O2B        -4.9973   -0.1007    3.2857 O.co2     1 GTP        -0.8859
      9 O3A        -3.0915    1.4872    3.7332 O.3       1 GTP        -0.7486
     10 PA         -3.2890    2.7005    2.6567 P.3       1 GTP         1.5001
     11 O1A        -3.8147    2.1209    1.3614 O.co2     1 GTP        -0.8487
     12 O2A        -3.9964    3.8478    3.3444 O.co2     1 GTP        -0.8487
     13 O5'        -1.7336    3.1724    2.4750 O.3       1 GTP        -0.5474
     14 C5'        -0.8811    2.4285    1.6206 C.3       1 GTP         0.2547
     15 C4'        -0.1994    1.3333    2.4288 C.3       1 GTP         0.0926
     16 O4'        -1.1285    0.2356    2.5840 O.3       1 GTP        -0.3593
     17 C3'         1.0324    0.7610    1.7344 C.3       1 GTP         0.0907
     18 O3'         1.9175    0.2377    2.7247 O.3       1 GTP        -0.5209
     19 C2'         0.4468   -0.3802    0.9263 C.3       1 GTP         0.0305
     20 O2'         1.3993   -1.3703    0.5961 O.3       1 GTP        -0.5978
     21 C1'        -0.6159   -0.9100    1.8769 C.3       1 GTP         0.2339
     22 N9         -1.7127   -1.6108    1.2130 N.pl3     1 GTP        -0.1765
     23 C8         -3.0389   -1.2578    1.2391 C.ar      1 GTP         0.4947
     24 N7         -3.7909   -2.0880    0.5425 N.2       1 GTP        -0.5802
     25 C5         -2.9127   -3.0150    0.0458 C.ar      1 GTP         0.2279
     26 C6         -3.2467   -4.1411   -0.7860 C.ar      1 GTP         0.6513
     27 O6         -4.3761   -4.4189   -1.1621 O.2       1 GTP        -0.5111
     28 N1         -2.0748   -4.9191   -1.1296 N.pl3     1 GTP        -0.4713
     29 C2         -0.7595   -4.6181   -0.7058 C.ar      1 GTP         0.5256
     30 N2          0.2985   -5.4268   -1.0920 N.pl3     1 GTP        -0.8665
     31 N3         -0.5304   -3.4919    0.1084 N.pl3     1 GTP        -0.5398
     32 C4         -1.6318   -2.7332    0.4512 C.ar      1 GTP        -0.0275
     33 HOG3       -6.0795    3.4949    6.9978 H         1 GTP         0.4161
     34 H5'        -1.4800    1.9927    0.8146 H         1 GTP         0.0348
     35 H5''       -0.1367    3.1040    1.1872 H         1 GTP         0.0348
     36 H4'         0.0403    1.7078    3.4343 H         1 GTP         0.1215
     37 H3'         1.5907    1.4859    1.1353 H         1 GTP         0.0576
     38 HO3'        2.6839   -0.1150    2.2479 H         1 GTP         0.3842
     39 H2'        -0.0017    0.0018    0.0005 H         1 GTP         0.0252
     40 HO2'        2.0953   -0.9375    0.0709 H         1 GTP         0.4224
     41 H1'        -0.1998   -1.6319    2.6178 H         1 GTP         0.0745
     42 H8         -3.3933   -0.3909    1.7800 H         1 GTP         0.1522
     43 HN1        -2.2071   -5.7408   -1.7178 H         1 GTP         0.3518
     44 HN21        1.1896   -5.1751   -0.7715 H         1 GTP         0.4761
     45 HN22        0.0846   -6.1966   -1.6593 H         1 GTP         0.4761
     46 H46         0.4142   -3.2695    0.4160 H         1 GTP         0.5030
@<TRIPOS>BOND
     1    1    2 2
     2    1    3 1
     3    1    4 1
     4    1    5 1
     5    4   33 1
     6    5    6 1
     7    6    7 2
     8    6    8 1
     9    6    9 1
    10    9   10 1
    11   10   11 2
    12   10   12 1
    13   10   13 1
    14   13   14 1
    15   14   15 1
    16   14   34 1
    17   14   35 1
    18   15   16 1
    19   15   17 1
    20   15   36 1
    21   16   21 1
    22   17   18 1
    23   17   19 1
    24   17   37 1
    25   18   38 1
    26   19   20 1
    27   19   21 1
    28   19   39 1
    29   20   40 1
    30   21   22 1
    31   21   41 1
    32   22   23 ar
    33   22   32 ar
    34   23   24 ar
    35   23   42 1
    36   24   25 ar
    37   25   26 ar
    38   25   32 ar
    39   26   27 2
    40   26   28 ar
    41   28   29 ar
    42   28   43 1
    43   29   30 1
    44   29   31 ar
    45   30   44 1
    46   30   45 1
    47   31   32 ar
    48   31   46 1
@<TRIPOS>SUBSTRUCTURE
     1 GTP         1 GROUP 0 A     ****
@<TRIPOS>MOLECULE
[[[5-(2-amino-6-oxo-1,3-dihydropurin-2-ylium-9-yl)-3,4-dihydroxy-tetrahydrofuran-2-yl]methoxy-oxido-phosphoryl]oxy-oxido-phosphoryl] hydrogen phosphate
   46    48     1     0     0
SMALL
USER_CHARGES

@<TRIPOS>ATOM
      1 PG          0.3637    1.2845    6.5918 P.3       1 GTP         1.5400
      2 O1G        -0.4456    1.2665    7.8694 O.co2     1 GTP        -0.8909
      3 O2G        -0.1453    0.6054    5.3398 O.co2     1 GTP        -0.8909
      4 O3G         1.8598    0.7175    6.9174 O.3       1 GTP        -0.7980
      5 O3B         0.7572    2.8275    6.2339 O.3       1 GTP        -0.7612
      6 PB         -0.1989    4.0755    5.7937 P.3       1 GTP         1.5847
      7 O1B        -1.2854    4.2439    6.8323 O.co2     1 GTP        -0.8859
      8 O2B         0.6710    5.2353    5.3628 O.co2     1 GTP        -0.8859
      9 O3A        -0.8402    3.4461    4.4308 O.3       1 GTP        -0.7486
     10 PA         -1.9156    4.0918    3.3837 P.3       1 GTP         1.5001
     11 O1A        -3.2320    4.2955    4.1021 O.co2     1 GTP        -0.8487
     12 O2A        -1.2462    5.2272    2.6405 O.co2     1 GTP        -0.8487
     13 O5'        -2.0401    2.8620    2.3128 O.3       1 GTP        -0.5474
     14 C5'        -0.8811    2.4285    1.6206 C.3       1 GTP         0.2547
     15 C4'        -0.1994    1.3333    2.4288 C.3       1 GTP         0.0926
     16 O4'        -1.1285    0.2356    2.5840 O.3       1 GTP        -0.3593
     17 C3'         1.0324    0.7610    1.7344 C.3       1 GTP         0.0907
     18 O3'         1.9175    0.2377    2.7247 O.3       1 GTP        -0.5209
     19 C2'         0.4468   -0.3802    0.9263 C.3       1 GTP         0.0305
     20 O2'         1.3993   -1.3703    0.5961 O.3       1 GTP        -0.5978
     21 C1'        -0.6159   -0.9100    1.8769 C.3       1 GTP         0.2339
     22 N9         -1.7127   -1.6108    1.2130 N.pl3     1 GTP        -0.1765
     23 C8         -1.6092   -2.7449    0.4467 C.ar      1 GTP         0.4947
     24 N7         -2.7778   -3.1416   -0.0191 N.2       1 GTP        -0.5802
     25 C5         -3.6725   -2.2253    0.4675 C.ar      1 GTP         0.2279
     26 C6         -5.0932   -2.2202    0.2371 C.ar      1 GTP         0.6513
     27 O6         -5.6933   -3.0474   -0.4337 O.2       1 GTP        -0.5111
     28 N1         -5.7390   -1.1061    0.8992 N.pl3     1 GTP        -0.4713
     29 C2         -5.0661   -0.1368    1.6789 C.ar      1 GTP         0.5256
     30 N2         -5.7774    0.8934    2.2749 N.pl3     1 GTP        -0.8665
     31 N3         -3.6705   -0.2251    1.8481 N.pl3     1 GTP        -0.5398
     32 C4         -3.0303   -1.2785    1.2262 C.ar      1 GTP        -0.0275
     33 HOG3        2.5096    0.6665    6.1843 H         1 GTP         0.4161
     34 H5'        -1.1767    2.0502    0.6368 H         1 GTP         0.0348
     35 H5''       -0.2080    3.2814    1.4876 H         1 GTP         0.0348
     36 H4'         0.0403    1.7078    3.4343 H         1 GTP         0.1215
     37 H3'         1.5907    1.4859    1.1353 H         1 GTP         0.0576
     38 HO3'        2.1521    0.9800    3.3017 H         1 GTP         0.3842
     39 H2'        -0.0017    0.0018    0.0005 H         1 GTP         0.0252
     40 HO2'        2.0953   -0.9375    0.0709 H         1 GTP         0.4224
     41 H1'        -0.1998   -1.6319    2.6178 H         1 GTP         0.0745
     42 H8         -0.6610   -3.2324    0.2653 H         1 GTP         0.1522
     43 HN1        -6.7487   -1.0139    0.7961 H         1 GTP         0.3518
     44 HN21       -5.2644    1.5388    2.8044 H         1 GTP         0.4761
     45 HN22       -6.7459    0.9078    2.1265 H         1 GTP         0.4761
     46 H46        -3.1807    0.4690    2.4089 H         1 GTP         0.5030
@<TRIPOS>BOND
     1    1    2 2
     2    1    3 1
     3    1    4 1
     4    1    5 1
     5    4   33 1
     6    5    6 1
     7    6    7 2
     8    6    8 1
     9    6    9 1
    10    9   10 1
    11   10   11 2
    12   10   12 1
    13   10   13 1
    14   13   14 1
    15   14   15 1
    16   14   34 1
    17   14   35 1
    18   15   16 1
    19   15   17 1
    20   15   36 1
    21   16   21 1
    22   17   18 1
    23   17   19 1
    24   17   37 1
    25   18   38 1
    26   19   20 1
    27   19   21 1
    28   19   39 1
    29   20   40 1
    30   21   22 1
    31   21   41 1
    32   22   23 ar
    33   22   32 ar
    34   23   24 ar
    35   23   42 1
    36   24   25 ar
    37   25   26 ar
    38   25   32 ar
    39   26   27 2
    40   26   28 ar
    41   28   29 ar
    42   28   43 1
    43   29   30 1
    44   29   31 ar
    45   30   44 1
    46   30   45 1
    47   31   32 ar
    48   31   46 1
@<TRIPOS>SUBSTRUCTURE
     1 GTP         1 GROUP 0 A     ****
@<TRIPOS>MOLECULE
[[[5-(2-amino-6-oxo-1,3-dihydropurin-2-ylium-9-yl)-3,4-dihydroxy-tetrahydrofuran-2-yl]methoxy-oxido-phosphoryl]oxy-oxido-phosphoryl] hydrogen phosphate
   46    48     1     0     0
SMALL
USER_CHARGES

@<TRIPOS>ATOM
      1 PG          6.5935    0.9434   -3.7420 P.3       1 GTP         1.5400
      2 O1G         6.8095   -0.3191   -2.9378 O.co2     1 GTP        -0.8909
      3 O2G         5.1984    1.4281   -4.0682 O.co2     1 GTP        -0.8909
      4 O3G         7.4391    0.8230   -5.1335 O.3       1 GTP        -0.7980
      5 O3B         7.4290    2.1631   -3.0505 O.3       1 GTP        -0.7612
      6 PB          7.2096    2.8951   -1.6077 P.3       1 GTP         1.5847
      7 O1B         7.2074    1.8399   -0.5241 O.co2     1 GTP        -0.8859
      8 O2B         8.1082    4.1091   -1.5288 O.co2     1 GTP        -0.8859
      9 O3A         5.6920    3.4554   -1.8264 O.3       1 GTP        -0.7486
     10 PA          4.7368    4.3145   -0.8169 P.3       1 GTP         1.5001
     11 O1A         5.4741    5.5682   -0.3987 O.co2     1 GTP        -0.8487
     12 O2A         3.3462    4.3857   -1.4093 O.co2     1 GTP        -0.8487
     13 O5'         4.6405    3.2699    0.4378 O.3       1 GTP        -0.5474
     14 C5'         4.0922    1.9801    0.2227 C.3       1 GTP         0.2547
     15 C4'         2.5944    2.0310    0.4653 C.3       1 GTP         0.0926
     16 O4'         1.9327    2.5740   -0.6889 O.3       1 GTP        -0.3593
     17 C3'         1.9685    0.6634    0.6767 C.3       1 GTP         0.0907
     18 O3'         2.1425    0.1975    1.9977 O.3       1 GTP        -0.5209
     19 C2'         0.5176    0.9128    0.3099 C.3       1 GTP         0.0305
     20 O2'        -0.2103    1.4454    1.4152 O.3       1 GTP        -0.5978
     21 C1'         0.6219    1.9765   -0.7844 C.3       1 GTP         0.2339
     22 N9          0.4237    1.4496   -2.1357 N.pl3     1 GTP        -0.1765
     23 C8          1.3988    0.9691   -2.9736 C.ar      1 GTP         0.4947
     24 N7          0.9092    0.5634   -4.1293 N.2       1 GTP        -0.5802
     25 C5         -0.4383    0.7914   -4.0325 C.ar      1 GTP         0.2279
     26 C6         -1.4217    0.5138   -5.0461 C.ar      1 GTP         0.6513
     27 O6         -1.1759    0.0306   -6.1417 O.2       1 GTP        -0.5111
     28 N1         -2.7543    0.8794   -4.6134 N.pl3     1 GTP        -0.4713
     29 C2         -3.0626    1.4402   -3.3523 C.ar      1 GTP         0.5256
     30 N2         -4.3747    1.7544   -3.0321 N.pl3     1 GTP        -0.8665
     31 N3         -2.0304    1.6759   -2.4233 N.pl3     1 GTP        -0.5398
     32 C4         -0.7497    1.3366   -2.8118 C.ar      1 GTP        -0.0275
     33 HOG3        7.4013    1.5694   -5.7689 H         1 GTP         0.4161
     34 H5'         4.3028    1.6728   -0.8066 H         1 GTP         0.0348
     35 H5''        4.5677    1.2738    0.9106 H         1 GTP         0.0348
     36 H4'         2.3752    2.7029    1.3156 H         1 GTP         0.1215
     37 H3'         2.4336   -0.1217   -0.0015 H         1 GTP         0.0576
     38 HO3'        1.7160   -0.6716    2.0397 H         1 GTP         0.3842
     39 H2'         0.0316    0.0155   -0.0339 H         1 GTP         0.0252
     40 HO2'       -1.1270    1.5823    1.1180 H         1 GTP         0.4224
     41 H1'        -0.1474    2.7798   -0.6651 H         1 GTP         0.0745
     42 H8          2.4413    0.9409   -2.6872 H         1 GTP         0.1522
     43 HN1        -3.5236    0.7214   -5.2629 H         1 GTP         0.3518
     44 HN21       -4.5350    2.1409   -2.1461 H         1 GTP         0.4761
     45 HN22       -5.0542    1.5695   -3.7134 H         1 GTP         0.4761
     46 H46        -2.2462    2.0786   -1.5136 H         1 GTP         0.5030
@<TRIPOS>BOND
     1    1    2 2
     2    1    3 1
     3    1    4 1
     4    1    5 1
     5    4   33 1
     6    5    6 1
     7    6    7 2
     8    6    8 1
     9    6    9 1
    10    9   10 1
    11   10   11 2
    12   10   12 1
    13   10   13 1
    14   13   14 1
    15   14   15 1
    16   14   34 1
    17   14   35 1
    18   15   16 1
    19   15   17 1
    20   15   36 1
    21   16   21 1
    22   17   18 1
    23   17   19 1
    24   17   37 1
    25   18   38 1
    26   19   20 1
    27   19   21 1
    28   19   39 1
    29   20   40 1
    30   21   22 1
    31   21   41 1
    32   22   23 ar
    33   22   32 ar
    34   23   24 ar
    35   23   42 1
    36   24   25 ar
    37   25   26 ar
    38   25   32 ar
    39   26   27 2
    40   26   28 ar
    41   28   29 ar
    42   28   43 1
    43   29   30 1
    44   29   31 ar
    45   30   44 1
    46   30   45 1
    47   31   32 ar
    48   31   46 1
@<TRIPOS>SUBSTRUCTURE
     1 GTP         1 GROUP 0 A     ****
@<TRIPOS>MOLECULE
[[[5-(2-amino-6-oxo-1,3-dihydropurin-2-ylium-9-yl)-3,4-dihydroxy-tetrahydrofuran-2-yl]methoxy-oxido-phosphoryl]oxy-oxido-phosphoryl] hydrogen phosphate
   46    48     1     0     0
SMALL
USER_CHARGES

@<TRIPOS>ATOM
      1 PG         -5.7186   -0.5827   -6.5504 P.3       1 GTP         1.5400
      2 O1G        -5.1355   -1.6564   -7.4418 O.co2     1 GTP        -0.8909
      3 O2G        -6.9675   -0.8412   -5.7373 O.co2     1 GTP        -0.8909
      4 O3G        -5.9514    0.7636   -7.4443 O.3       1 GTP        -0.7980
      5 O3B        -4.5491   -0.0218   -5.5598 O.3       1 GTP        -0.7612
      6 PB         -3.7561   -0.7739   -4.3469 P.3       1 GTP         1.5847
      7 O1B        -4.7417   -1.0849   -3.2427 O.co2     1 GTP        -0.8859
      8 O2B        -2.8592   -1.8422   -4.9318 O.co2     1 GTP        -0.8859
      9 O3A        -2.7781    0.4459   -3.8774 O.3       1 GTP        -0.7486
     10 PA         -3.1544    1.9334   -3.3157 P.3       1 GTP         1.5001
     11 O1A        -3.8579    2.7038   -4.4119 O.co2     1 GTP        -0.8487
     12 O2A        -3.7702    1.7905   -1.9409 O.co2     1 GTP        -0.8487
     13 O5'        -1.6517    2.5335   -3.0776 O.3       1 GTP        -0.5474
     14 C5'        -0.7794    1.8744   -2.1748 C.3       1 GTP         0.2547
     15 C4'        -0.9699    2.4597   -0.7819 C.3       1 GTP         0.0926
     16 O4'        -2.1475    1.8640   -0.2014 O.3       1 GTP        -0.3593
     17 C3'         0.1697    2.1347    0.1695 C.3       1 GTP         0.0907
     18 O3'         0.1809    3.0982    1.2223 O.3       1 GTP        -0.5209
     19 C2'        -0.2543    0.7880    0.7187 C.3       1 GTP         0.0305
     20 O2'         0.3606    0.4944    1.9582 O.3       1 GTP        -0.5978
     21 C1'        -1.7682    0.9516    0.8548 C.3       1 GTP         0.2339
     22 N9         -2.5926   -0.2553    0.7436 N.pl3     1 GTP        -0.1765
     23 C8         -2.6522   -1.1045   -0.3332 C.ar      1 GTP         0.4947
     24 N7         -3.4878   -2.1056   -0.1345 N.2       1 GTP        -0.5802
     25 C5         -3.9877   -1.8935    1.1234 C.ar      1 GTP         0.2279
     26 C6         -4.9484   -2.7197    1.8061 C.ar      1 GTP         0.6513
     27 O6         -5.4494   -3.7339    1.3427 O.2       1 GTP        -0.5111
     28 N1         -5.2587   -2.2034    3.1228 N.pl3     1 GTP        -0.4713
     29 C2         -4.6930   -1.0328    3.6793 C.ar      1 GTP         0.5256
     30 N2         -5.0554   -0.6222    4.9532 N.pl3     1 GTP        -0.8665
     31 N3         -3.7586   -0.2880    2.9336 N.pl3     1 GTP        -0.5398
     32 C4         -3.4457   -0.7588    1.6739 C.ar      1 GTP        -0.0275
     33 HOG3       -5.1740    1.1774   -7.8765 H         1 GTP         0.4161
     34 H5'        -1.0114    0.8046   -2.1752 H         1 GTP         0.0348
     35 H5''        0.2524    2.0162   -2.5118 H         1 GTP         0.0348
     36 H4'        -1.1469    3.5409   -0.8522 H         1 GTP         0.1215
     37 H3'         1.1601    2.1310   -0.2934 H         1 GTP         0.0576
     38 HO3'        0.3098    3.9616    0.8017 H         1 GTP         0.3842
     39 H2'        -0.0024   -0.0091    0.0062 H         1 GTP         0.0252
     40 HO2'        1.3225    0.4909    1.8095 H         1 GTP         0.4224
     41 H1'        -2.0584    1.4255    1.8301 H         1 GTP         0.0745
     42 H8         -2.0670   -0.9414   -1.2280 H         1 GTP         0.1522
     43 HN1        -5.9317   -2.7196    3.6879 H         1 GTP         0.3518
     44 HN21       -5.7078   -1.1768    5.4295 H         1 GTP         0.4761
     45 HN22       -4.6345    0.1950    5.2925 H         1 GTP         0.4761
     46 H46        -3.3472    0.5550    3.3290 H         1 GTP         0.5030
@<TRIPOS>BOND
     1    1    2 2
     2    1    3 1
     3    1    4 1
     4    1    5 1
     5    4   33 1
     6    5    6 1
     7    6    7 2
     8    6    8 1
     9    6    9 1
    10    9   10 1
    11   10   11 2
    12   10   12 1
    13   10   13 1
    14   13   14 1
    15   14   15 1
    16   14   34 1
    17   14   35 1
    18   15   16 1
    19   15   17 1
    20   15   36 1
    21   16   21 1
    22   17   18 1
    23   17   19 1
    24   17   37 1
    25   18   38 1
    26   19   20 1
    27   19   21 1
    28   19   39 1
    29   20   40 1
    30   21   22 1
    31   21   41 1
    32   22   23 ar
    33   22   32 ar
    34   23   24 ar
    35   23   42 1
    36   24   25 ar
    37   25   26 ar
    38   25   32 ar
    39   26   27 2
    40   26   28 ar
    41   28   29 ar
    42   28   43 1
    43   29   30 1
    44   29   31 ar
    45   30   44 1
    46   30   45 1
    47   31   32 ar
    48   31   46 1
@<TRIPOS>SUBSTRUCTURE
     1 GTP         1 GROUP 0 A     ****
@<TRIPOS>MOLECULE
[[[5-(2-amino-6-oxo-1,3-dihydropurin-2-ylium-9-yl)-3,4-dihydroxy-tetrahydrofuran-2-yl]methoxy-oxido-phosphoryl]oxy-oxido-phosphoryl] hydrogen phosphate
   46    48     1     0     0
SMALL
USER_CHARGES

@<TRIPOS>ATOM
      1 PG         -5.0918    3.4627   -3.0385 P.3       1 GTP         1.5400
      2 O1G        -6.5661    3.7140   -2.8128 O.co2     1 GTP        -0.8909
      3 O2G        -4.2221    4.4970   -3.7178 O.co2     1 GTP        -0.8909
      4 O3G        -4.9225    2.0436   -3.8282 O.3       1 GTP        -0.7980
      5 O3B        -4.4019    3.0400   -1.6211 O.3       1 GTP        -0.7612
      6 PB         -4.8201    1.8698   -0.5622 P.3       1 GTP         1.5847
      7 O1B        -6.1683    2.2124    0.0316 O.co2     1 GTP        -0.8859
      8 O2B        -4.5505    0.5193   -1.1876 O.co2     1 GTP        -0.8859
      9 O3A        -3.6558    2.1022    0.5582 O.3       1 GTP        -0.7486
     10 PA         -3.3161    3.4234    1.4576 P.3       1 GTP         1.5001
     11 O1A        -2.8773    4.5400    0.5352 O.co2     1 GTP        -0.8487
     12 O2A        -4.4325    3.6284    2.4582 O.co2     1 GTP        -0.8487
     13 O5'        -2.0401    2.8620    2.3128 O.3       1 GTP        -0.5474
     14 C5'        -0.8811    2.4285    1.6206 C.3       1 GTP         0.2547
     15 C4'        -0.1994    1.3333    2.4288 C.3       1 GTP         0.0926
     16 O4'        -1.1285    0.2356    2.5840 O.3       1 GTP        -0.3593
     17 C3'         1.0324    0.7610    1.7344 C.3       1 GTP         0.0907
     18 O3'         1.9175    0.2377    2.7247 O.3       1 GTP        -0.5209
     19 C2'         0.4468   -0.3802    0.9263 C.3       1 GTP         0.0305
     20 O2'         1.3993   -1.3703    0.5961 O.3       1 GTP        -0.5978
     21 C1'        -0.6159   -0.9100    1.8769 C.3       1 GTP         0.2339
     22 N9         -1.7127   -1.6108    1.2130 N.pl3     1 GTP        -0.1765
     23 C8         -1.6092   -2.7449    0.4467 C.ar      1 GTP         0.4947
     24 N7         -2.7778   -3.1416   -0.0191 N.2       1 GTP        -0.5802
     25 C5         -3.6725   -2.2253    0.4675 C.ar      1 GTP         0.2279
     26 C6         -5.0932   -2.2202    0.2371 C.ar      1 GTP         0.6513
     27 O6         -5.6933   -3.0474   -0.4337 O.2       1 GTP        -0.5111
     28 N1         -5.7390   -1.1061    0.8992 N.pl3     1 GTP        -0.4713
     29 C2         -5.0661   -0.1368    1.6789 C.ar      1 GTP         0.5256
     30 N2         -5.7774    0.8934    2.2749 N.pl3     1 GTP        -0.8665
     31 N3         -3.6705   -0.2251    1.8481 N.pl3     1 GTP        -0.5398
     32 C4         -3.0303   -1.2785    1.2262 C.ar      1 GTP        -0.0275
     33 HOG3       -4.0172    1.7379   -4.0500 H         1 GTP         0.4161
     34 H5'        -1.1767    2.0502    0.6368 H         1 GTP         0.0348
     35 H5''       -0.2080    3.2814    1.4876 H         1 GTP         0.0348
     36 H4'         0.0403    1.7078    3.4343 H         1 GTP         0.1215
     37 H3'         1.5907    1.4859    1.1353 H         1 GTP         0.0576
     38 HO3'        2.6839   -0.1150    2.2479 H         1 GTP         0.3842
     39 H2'        -0.0017    0.0018    0.0005 H         1 GTP         0.0252
     40 HO2'        2.0953   -0.9375    0.0709 H         1 GTP         0.4224
     41 H1'        -0.1998   -1.6319    2.6178 H         1 GTP         0.0745
     42 H8         -0.6610   -3.2324    0.2653 H         1 GTP         0.1522
     43 HN1        -6.7487   -1.0139    0.7961 H         1 GTP         0.3518
     44 HN21       -5.2644    1.5388    2.8044 H         1 GTP         0.4761
     45 HN22       -6.7459    0.9078    2.1265 H         1 GTP         0.4761
     46 H46        -3.1807    0.4690    2.4089 H         1 GTP         0.5030
@<TRIPOS>BOND
     1    1    2 2
     2    1    3 1
     3    1    4 1
     4    1    5 1
     5    4   33 1
     6    5    6 1
     7    6    7 2
     8    6    8 1
     9    6    9 1
    10    9   10 1
    11   10   11 2
    12   10   12 1
    13   10   13 1
    14   13   14 1
    15   14   15 1
    16   14   34 1
    17   14   35 1
    18   15   16 1
    19   15   17 1
    20   15   36 1
    21   16   21 1
    22   17   18 1
    23   17   19 1
    24   17   37 1
    25   18   38 1
    26   19   20 1
    27   19   21 1
    28   19   39 1
    29   20   40 1
    30   21   22 1
    31   21   41 1
    32   22   23 ar
    33   22   32 ar
    34   23   24 ar
    35   23   42 1
    36   24   25 ar
    37   25   26 ar
    38   25   32 ar
    39   26   27 2
    40   26   28 ar
    41   28   29 ar
    42   28   43 1
    43   29   30 1
    44   29   31 ar
    45   30   44 1
    46   30   45 1
    47   31   32 ar
    48   31   46 1
@<TRIPOS>SUBSTRUCTURE
     1 GTP         1 GROUP 0 A     ****
@<TRIPOS>MOLECULE
[[[5-(2-amino-6-oxo-1,3-dihydropurin-2-ylium-9-yl)-3,4-dihydroxy-tetrahydrofuran-2-yl]methoxy-oxido-phosphoryl]oxy-oxido-phosphoryl] hydrogen phosphate
   46    48     1     0     0
SMALL
USER_CHARGES

@<TRIPOS>ATOM
      1 PG         -0.4865    5.3294   -2.8770 P.3       1 GTP         1.5400
      2 O1G        -1.6469    4.5179   -2.3455 O.co2     1 GTP        -0.8909
      3 O2G        -0.5469    6.8403   -2.9136 O.co2     1 GTP        -0.8909
      4 O3G        -0.1176    4.7889   -4.3728 O.3       1 GTP        -0.7980
      5 O3B         0.8779    4.8731   -2.1064 O.3       1 GTP        -0.7612
      6 PB          2.4287    5.3023   -2.3828 P.3       1 GTP         1.5847
      7 O1B         2.8447    4.7714   -3.7365 O.co2     1 GTP        -0.8859
      8 O2B         2.6113    6.7574   -2.0127 O.co2     1 GTP        -0.8859
      9 O3A         3.1548    4.4310   -1.2087 O.3       1 GTP        -0.7486
     10 PA          4.7368    4.3145   -0.8169 P.3       1 GTP         1.5001
     11 O1A         5.4786    3.6779   -1.9722 O.co2     1 GTP        -0.8487
     12 O2A         5.1886    5.6336   -0.2290 O.co2     1 GTP        -0.8487
     13 O5'         4.6405    3.2699    0.4378 O.3       1 GTP        -0.5474
     14 C5'         4.0922    1.9801    0.2227 C.3       1 GTP         0.2547
     15 C4'         2.5944    2.0310    0.4653 C.3       1 GTP         0.0926
     16 O4'         1.9327    2.5740   -0.6889 O.3       1 GTP        -0.3593
     17 C3'         1.9685    0.6634    0.6767 C.3       1 GTP         0.0907
     18 O3'         2.1425    0.1975    1.9977 O.3       1 GTP        -0.5209
     19 C2'         0.5176    0.9128    0.3099 C.3       1 GTP         0.0305
     20 O2'        -0.2103    1.4454    1.4152 O.3       1 GTP        -0.5978
     21 C1'         0.6219    1.9765   -0.7844 C.3       1 GTP         0.2339
     22 N9          0.4237    1.4496   -2.1357 N.pl3     1 GTP        -0.1765
     23 C8          1.3988    0.9691   -2.9736 C.ar      1 GTP         0.4947
     24 N7          0.9092    0.5634   -4.1293 N.2       1 GTP        -0.5802
     25 C5         -0.4383    0.7914   -4.0325 C.ar      1 GTP         0.2279
     26 C6         -1.4217    0.5138   -5.0461 C.ar      1 GTP         0.6513
     27 O6         -1.1759    0.0306   -6.1417 O.2       1 GTP        -0.5111
     28 N1         -2.7543    0.8794   -4.6134 N.pl3     1 GTP        -0.4713
     29 C2         -3.0626    1.4402   -3.3523 C.ar      1 GTP         0.5256
     30 N2         -4.3747    1.7544   -3.0321 N.pl3     1 GTP        -0.8665
     31 N3         -2.0304    1.6759   -2.4233 N.pl3     1 GTP        -0.5398
     32 C4         -0.7497    1.3366   -2.8118 C.ar      1 GTP        -0.0275
     33 HOG3        0.6207    5.2182   -4.8555 H         1 GTP         0.4161
     34 H5'         4.3028    1.6728   -0.8066 H         1 GTP         0.0348
     35 H5''        4.5677    1.2738    0.9106 H         1 GTP         0.0348
     36 H4'         2.3752    2.7029    1.3156 H         1 GTP         0.1215
     37 H3'         2.4336   -0.1217   -0.0015 H         1 GTP         0.0576
     38 HO3'        1.7160   -0.6716    2.0397 H         1 GTP         0.3842
     39 H2'         0.0316    0.0155   -0.0339 H         1 GTP         0.0252
     40 HO2'       -0.1608    0.7921    2.1351 H         1 GTP         0.4224
     41 H1'        -0.1474    2.7798   -0.6651 H         1 GTP         0.0745
     42 H8          2.4413    0.9409   -2.6872 H         1 GTP         0.1522
     43 HN1        -3.5236    0.7214   -5.2629 H         1 GTP         0.3518
     44 HN21       -4.5350    2.1409   -2.1461 H         1 GTP         0.4761
     45 HN22       -5.0542    1.5695   -3.7134 H         1 GTP         0.4761
     46 H46        -2.2462    2.0786   -1.5136 H         1 GTP         0.5030
@<TRIPOS>BOND
     1    1    2 2
     2    1    3 1
     3    1    4 1
     4    1    5 1
     5    4   33 1
     6    5    6 1
     7    6    7 2
     8    6    8 1
     9    6    9 1
    10    9   10 1
    11   10   11 2
    12   10   12 1
    13   10   13 1
    14   13   14 1
    15   14   15 1
    16   14   34 1
    17   14   35 1
    18   15   16 1
    19   15   17 1
    20   15   36 1
    21   16   21 1
    22   17   18 1
    23   17   19 1
    24   17   37 1
    25   18   38 1
    26   19   20 1
    27   19   21 1
    28   19   39 1
    29   20   40 1
    30   21   22 1
    31   21   41 1
    32   22   23 ar
    33   22   32 ar
    34   23   24 ar
    35   23   42 1
    36   24   25 ar
    37   25   26 ar
    38   25   32 ar
    39   26   27 2
    40   26   28 ar
    41   28   29 ar
    42   28   43 1
    43   29   30 1
    44   29   31 ar
    45   30   44 1
    46   30   45 1
    47   31   32 ar
    48   31   46 1
@<TRIPOS>SUBSTRUCTURE
     1 GTP         1 GROUP 0 A     ****
@<TRIPOS>MOLECULE
[[[5-(2-amino-6-oxo-1,3-dihydropurin-2-ylium-9-yl)-3,4-dihydroxy-tetrahydrofuran-2-yl]methoxy-oxido-phosphoryl]oxy-oxido-phosphoryl] hydrogen phosphate
   46    48     1     0     0
SMALL
USER_CHARGES

@<TRIPOS>ATOM
      1 PG          7.9532    6.1757   -3.9089 P.3       1 GTP         1.5400
      2 O1G         9.1631    5.4280   -4.4231 O.co2     1 GTP        -0.8909
      3 O2G         7.0112    6.8783   -4.8611 O.co2     1 GTP        -0.8909
      4 O3G         8.4470    7.2490   -2.7819 O.3       1 GTP        -0.7980
      5 O3B         7.0873    5.1849   -2.9433 O.3       1 GTP        -0.7612
      6 PB          6.2505    3.8327   -3.3132 P.3       1 GTP         1.5847
      7 O1B         5.0908    4.2097   -4.2079 O.co2     1 GTP        -0.8859
      8 O2B         7.2234    2.7399   -3.6963 O.co2     1 GTP        -0.8859
      9 O3A         5.6920    3.4554   -1.8264 O.3       1 GTP        -0.7486
     10 PA          4.7368    4.3145   -0.8169 P.3       1 GTP         1.5001
     11 O1A         5.4741    5.5682   -0.3987 O.co2     1 GTP        -0.8487
     12 O2A         3.3462    4.3857   -1.4093 O.co2     1 GTP        -0.8487
     13 O5'         4.6405    3.2699    0.4378 O.3       1 GTP        -0.5474
     14 C5'         4.0922    1.9801    0.2227 C.3       1 GTP         0.2547
     15 C4'         2.5944    2.0310    0.4653 C.3       1 GTP         0.0926
     16 O4'         1.9327    2.5740   -0.6889 O.3       1 GTP        -0.3593
     17 C3'         1.9685    0.6634    0.6767 C.3       1 GTP         0.0907
     18 O3'         2.1425    0.1975    1.9977 O.3       1 GTP        -0.5209
     19 C2'         0.5176    0.9128    0.3099 C.3       1 GTP         0.0305
     20 O2'        -0.2103    1.4454    1.4152 O.3       1 GTP        -0.5978
     21 C1'         0.6219    1.9765   -0.7844 C.3       1 GTP         0.2339
     22 N9          0.4237    1.4496   -2.1357 N.pl3     1 GTP        -0.1765
     23 C8          1.3988    0.9691   -2.9736 C.ar      1 GTP         0.4947
     24 N7          0.9092    0.5634   -4.1293 N.2       1 GTP        -0.5802
     25 C5         -0.4383    0.7914   -4.0325 C.ar      1 GTP         0.2279
     26 C6         -1.4217    0.5138   -5.0461 C.ar      1 GTP         0.6513
     27 O6         -1.1759    0.0306   -6.1417 O.2       1 GTP        -0.5111
     28 N1         -2.7543    0.8794   -4.6134 N.pl3     1 GTP        -0.4713
     29 C2         -3.0626    1.4402   -3.3523 C.ar      1 GTP         0.5256
     30 N2         -4.3747    1.7544   -3.0321 N.pl3     1 GTP        -0.8665
     31 N3         -2.0304    1.6759   -2.4233 N.pl3     1 GTP        -0.5398
     32 C4         -0.7497    1.3366   -2.8118 C.ar      1 GTP        -0.0275
     33 HOG3        7.7729    7.8157   -2.3498 H         1 GTP         0.4161
     34 H5'         4.3028    1.6728   -0.8066 H         1 GTP         0.0348
     35 H5''        4.5677    1.2738    0.9106 H         1 GTP         0.0348
     36 H4'         2.3752    2.7029    1.3156 H         1 GTP         0.1215
     37 H3'         2.4336   -0.1217   -0.0015 H         1 GTP         0.0576
     38 HO3'        1.7160   -0.6716    2.0397 H         1 GTP         0.3842
     39 H2'         0.0316    0.0155   -0.0339 H         1 GTP         0.0252
     40 HO2'       -1.1270    1.5823    1.1180 H         1 GTP         0.4224
     41 H1'        -0.1474    2.7798   -0.6651 H         1 GTP         0.0745
     42 H8          2.4413    0.9409   -2.6872 H         1 GTP         0.1522
     43 HN1        -3.5236    0.7214   -5.2629 H         1 GTP         0.3518
     44 HN21       -4.5350    2.1409   -2.1461 H         1 GTP         0.4761
     45 HN22       -5.0542    1.5695   -3.7134 H         1 GTP         0.4761
     46 H46        -2.2462    2.0786   -1.5136 H         1 GTP         0.5030
@<TRIPOS>BOND
     1    1    2 2
     2    1    3 1
     3    1    4 1
     4    1    5 1
     5    4   33 1
     6    5    6 1
     7    6    7 2
     8    6    8 1
     9    6    9 1
    10    9   10 1
    11   10   11 2
    12   10   12 1
    13   10   13 1
    14   13   14 1
    15   14   15 1
    16   14   34 1
    17   14   35 1
    18   15   16 1
    19   15   17 1
    20   15   36 1
    21   16   21 1
    22   17   18 1
    23   17   19 1
    24   17   37 1
    25   18   38 1
    26   19   20 1
    27   19   21 1
    28   19   39 1
    29   20   40 1
    30   21   22 1
    31   21   41 1
    32   22   23 ar
    33   22   32 ar
    34   23   24 ar
    35   23   42 1
    36   24   25 ar
    37   25   26 ar
    38   25   32 ar
    39   26   27 2
    40   26   28 ar
    41   28   29 ar
    42   28   43 1
    43   29   30 1
    44   29   31 ar
    45   30   44 1
    46   30   45 1
    47   31   32 ar
    48   31   46 1
@<TRIPOS>SUBSTRUCTURE
     1 GTP         1 GROUP 0 A     ****
@<TRIPOS>MOLECULE
[[[5-(2-amino-6-oxo-1,3-dihydropurin-2-ylium-9-yl)-3,4-dihydroxy-tetrahydrofuran-2-yl]methoxy-oxido-phosphoryl]oxy-oxido-phosphoryl] hydrogen phosphate
   46    48     1     0     0
SMALL
USER_CHARGES

@<TRIPOS>ATOM
      1 PG         -2.2008    0.0476    6.5485 P.3       1 GTP         1.5400
      2 O1G        -1.0819    0.8816    5.9655 O.co2     1 GTP        -0.8909
      3 O2G        -3.0209    0.5533    7.7143 O.co2     1 GTP        -0.8909
      4 O3G        -1.6052   -1.4233    6.9329 O.3       1 GTP        -0.7980
      5 O3B        -3.2101   -0.4014    5.3470 O.3       1 GTP        -0.7612
      6 PB         -4.2010    0.5060    4.4195 P.3       1 GTP         1.5847
      7 O1B        -4.8177   -0.3789    3.3592 O.co2     1 GTP        -0.8859
      8 O2B        -5.0515    1.3796    5.3145 O.co2     1 GTP        -0.8859
      9 O3A        -3.0915    1.4872    3.7332 O.3       1 GTP        -0.7486
     10 PA         -3.2890    2.7005    2.6567 P.3       1 GTP         1.5001
     11 O1A        -3.8147    2.1209    1.3614 O.co2     1 GTP        -0.8487
     12 O2A        -3.9964    3.8478    3.3444 O.co2     1 GTP        -0.8487
     13 O5'        -1.7336    3.1724    2.4750 O.3       1 GTP        -0.5474
     14 C5'        -0.8811    2.4285    1.6206 C.3       1 GTP         0.2547
     15 C4'        -0.1994    1.3333    2.4288 C.3       1 GTP         0.0926
     16 O4'        -1.1285    0.2356    2.5840 O.3       1 GTP        -0.3593
     17 C3'         1.0324    0.7610    1.7344 C.3       1 GTP         0.0907
     18 O3'         1.9175    0.2377    2.7247 O.3       1 GTP        -0.5209
     19 C2'         0.4468   -0.3802    0.9263 C.3       1 GTP         0.0305
     20 O2'         1.3993   -1.3703    0.5961 O.3       1 GTP        -0.5978
     21 C1'        -0.6159   -0.9100    1.8769 C.3       1 GTP         0.2339
     22 N9         -1.7127   -1.6108    1.2130 N.pl3     1 GTP        -0.1765
     23 C8         -3.0389   -1.2578    1.2391 C.ar      1 GTP         0.4947
     24 N7         -3.7909   -2.0880    0.5425 N.2       1 GTP        -0.5802
     25 C5         -2.9127   -3.0150    0.0458 C.ar      1 GTP         0.2279
     26 C6         -3.2467   -4.1411   -0.7860 C.ar      1 GTP         0.6513
     27 O6         -4.3761   -4.4189   -1.1621 O.2       1 GTP        -0.5111
     28 N1         -2.0748   -4.9191   -1.1296 N.pl3     1 GTP        -0.4713
     29 C2         -0.7595   -4.6181   -0.7058 C.ar      1 GTP         0.5256
     30 N2          0.2985   -5.4268   -1.0920 N.pl3     1 GTP        -0.8665
     31 N3         -0.5304   -3.4919    0.1084 N.pl3     1 GTP        -0.5398
     32 C4         -1.6318   -2.7332    0.4512 C.ar      1 GTP        -0.0275
     33 HOG3       -2.2135   -2.0852    7.3255 H         1 GTP         0.4161
     34 H5'        -1.4800    1.9927    0.8146 H         1 GTP         0.0348
     35 H5''       -0.1367    3.1040    1.1872 H         1 GTP         0.0348
     36 H4'         0.0403    1.7078    3.4343 H         1 GTP         0.1215
     37 H3'         1.5907    1.4859    1.1353 H         1 GTP         0.0576
     38 HO3'        2.6839   -0.1150    2.2479 H         1 GTP         0.3842
     39 H2'        -0.0017    0.0018    0.0005 H         1 GTP         0.0252
     40 HO2'        2.0953   -0.9375    0.0709 H         1 GTP         0.4224
     41 H1'        -0.1998   -1.6319    2.6178 H         1 GTP         0.0745
     42 H8         -3.3933   -0.3909    1.7800 H         1 GTP         0.1522
     43 HN1        -2.2071   -5.7408   -1.7178 H         1 GTP         0.3518
     44 HN21        1.1896   -5.1751   -0.7715 H         1 GTP         0.4761
     45 HN22        0.0846   -6.1966   -1.6593 H         1 GTP         0.4761
     46 H46         0.4142   -3.2695    0.4160 H         1 GTP         0.5030
@<TRIPOS>BOND
     1    1    2 2
     2    1    3 1
     3    1    4 1
     4    1    5 1
     5    4   33 1
     6    5    6 1
     7    6    7 2
     8    6    8 1
     9    6    9 1
    10    9   10 1
    11   10   11 2
    12   10   12 1
    13   10   13 1
    14   13   14 1
    15   14   15 1
    16   14   34 1
    17   14   35 1
    18   15   16 1
    19   15   17 1
    20   15   36 1
    21   16   21 1
    22   17   18 1
    23   17   19 1
    24   17   37 1
    25   18   38 1
    26   19   20 1
    27   19   21 1
    28   19   39 1
    29   20   40 1
    30   21   22 1
    31   21   41 1
    32   22   23 ar
    33   22   32 ar
    34   23   24 ar
    35   23   42 1
    36   24   25 ar
    37   25   26 ar
    38   25   32 ar
    39   26   27 2
    40   26   28 ar
    41   28   29 ar
    42   28   43 1
    43   29   30 1
    44   29   31 ar
    45   30   44 1
    46   30   45 1
    47   31   32 ar
    48   31   46 1
@<TRIPOS>SUBSTRUCTURE
     1 GTP         1 GROUP 0 A     ****
@<TRIPOS>MOLECULE
[[[5-(2-amino-6-oxo-1,3-dihydropurin-2-ylium-9-yl)-3,4-dihydroxy-tetrahydrofuran-2-yl]methoxy-oxido-phosphoryl]oxy-oxido-phosphoryl] hydrogen phosphate
   46    48     1     0     0
SMALL
USER_CHARGES

@<TRIPOS>ATOM
      1 PG          0.5273    4.8833    2.7591 P.3       1 GTP         1.5400
      2 O1G         0.2478    6.3695    2.7802 O.co2     1 GTP        -0.8909
      3 O2G         0.6999    4.1433    1.4513 O.co2     1 GTP        -0.8909
      4 O3G        -0.6243    4.1265    3.6349 O.3       1 GTP        -0.7980
      5 O3B         1.8111    4.5706    3.7172 O.3       1 GTP        -0.7612
      6 PB          3.3775    4.9947    3.5385 P.3       1 GTP         1.5847
      7 O1B         3.4563    6.4944    3.3592 O.co2     1 GTP        -0.8859
      8 O2B         4.2049    4.2774    4.5818 O.co2     1 GTP        -0.8859
      9 O3A         3.6874    4.2583    2.1149 O.3       1 GTP        -0.7486
     10 PA          5.0664    4.2077    1.2399 P.3       1 GTP         1.5001
     11 O1A         5.3976    5.6084    0.7722 O.co2     1 GTP        -0.8487
     12 O2A         6.0829    3.3711    1.9859 O.co2     1 GTP        -0.8487
     13 O5'         4.5670    3.2937   -0.0211 O.3       1 GTP        -0.5474
     14 C5'         4.0922    1.9801    0.2227 C.3       1 GTP         0.2547
     15 C4'         2.5944    2.0310    0.4653 C.3       1 GTP         0.0926
     16 O4'         1.9327    2.5740   -0.6889 O.3       1 GTP        -0.3593
     17 C3'         1.9685    0.6634    0.6767 C.3       1 GTP         0.0907
     18 O3'         2.1425    0.1975    1.9977 O.3       1 GTP        -0.5209
     19 C2'         0.5176    0.9128    0.3099 C.3       1 GTP         0.0305
     20 O2'        -0.2103    1.4454    1.4152 O.3       1 GTP        -0.5978
     21 C1'         0.6219    1.9765   -0.7844 C.3       1 GTP         0.2339
     22 N9          0.4237    1.4496   -2.1357 N.pl3     1 GTP        -0.1765
     23 C8          1.3988    0.9691   -2.9736 C.ar      1 GTP         0.4947
     24 N7          0.9092    0.5634   -4.1293 N.2       1 GTP        -0.5802
     25 C5         -0.4383    0.7914   -4.0325 C.ar      1 GTP         0.2279
     26 C6         -1.4217    0.5138   -5.0461 C.ar      1 GTP         0.6513
     27 O6         -1.1759    0.0306   -6.1417 O.2       1 GTP        -0.5111
     28 N1         -2.7543    0.8794   -4.6134 N.pl3     1 GTP        -0.4713
     29 C2         -3.0626    1.4402   -3.3523 C.ar      1 GTP         0.5256
     30 N2         -4.3747    1.7544   -3.0321 N.pl3     1 GTP        -0.8665
     31 N3         -2.0304    1.6759   -2.4233 N.pl3     1 GTP        -0.5398
     32 C4         -0.7497    1.3366   -2.8118 C.ar      1 GTP        -0.0275
     33 HOG3       -0.5816    3.1500    3.7177 H         1 GTP         0.4161
     34 H5'         4.3179    1.3548   -0.6470 H         1 GTP         0.0348
     35 H5''        4.6083    1.5737    1.0983 H         1 GTP         0.0348
     36 H4'         2.3752    2.7029    1.3156 H         1 GTP         0.1215
     37 H3'         2.4336   -0.1217   -0.0015 H         1 GTP         0.0576
     38 HO3'        3.0987    0.1465    2.1461 H         1 GTP         0.3842
     39 H2'         0.0316    0.0155   -0.0339 H         1 GTP         0.0252
     40 HO2'       -0.1608    0.7921    2.1351 H         1 GTP         0.4224
     41 H1'        -0.1474    2.7798   -0.6651 H         1 GTP         0.0745
     42 H8          2.4413    0.9409   -2.6872 H         1 GTP         0.1522
     43 HN1        -3.5236    0.7214   -5.2629 H         1 GTP         0.3518
     44 HN21       -4.5350    2.1409   -2.1461 H         1 GTP         0.4761
     45 HN22       -5.0542    1.5695   -3.7134 H         1 GTP         0.4761
     46 H46        -2.2462    2.0786   -1.5136 H         1 GTP         0.5030
@<TRIPOS>BOND
     1    1    2 2
     2    1    3 1
     3    1    4 1
     4    1    5 1
     5    4   33 1
     6    5    6 1
     7    6    7 2
     8    6    8 1
     9    6    9 1
    10    9   10 1
    11   10   11 2
    12   10   12 1
    13   10   13 1
    14   13   14 1
    15   14   15 1
    16   14   34 1
    17   14   35 1
    18   15   16 1
    19   15   17 1
    20   15   36 1
    21   16   21 1
    22   17   18 1
    23   17   19 1
    24   17   37 1
    25   18   38 1
    26   19   20 1
    27   19   21 1
    28   19   39 1
    29   20   40 1
    30   21   22 1
    31   21   41 1
    32   22   23 ar
    33   22   32 ar
    34   23   24 ar
    35   23   42 1
    36   24   25 ar
    37   25   26 ar
    38   25   32 ar
    39   26   27 2
    40   26   28 ar
    41   28   29 ar
    42   28   43 1
    43   29   30 1
    44   29   31 ar
    45   30   44 1
    46   30   45 1
    47   31   32 ar
    48   31   46 1
@<TRIPOS>SUBSTRUCTURE
     1 GTP         1 GROUP 0 A     ****
@<TRIPOS>MOLECULE
[[[5-(2-amino-6-oxo-1,3-dihydropurin-2-ylium-9-yl)-3,4-dihydroxy-tetrahydrofuran-2-yl]methoxy-oxido-phosphoryl]oxy-oxido-phosphoryl] hydrogen phosphate
   46    48     1     0     0
SMALL
USER_CHARGES

@<TRIPOS>ATOM
      1 PG         -6.6178   -0.1243    0.5810 P.3       1 GTP         1.5400
      2 O1G        -7.8390    0.3024    1.3646 O.co2     1 GTP        -0.8909
      3 O2G        -6.6994   -0.3789   -0.9077 O.co2     1 GTP        -0.8909
      4 O3G        -5.9761   -1.4433    1.2981 O.3       1 GTP        -0.7980
      5 O3B        -5.4054    0.9289    0.8717 O.3       1 GTP        -0.7612
      6 PB         -5.2692    2.5047    0.4669 P.3       1 GTP         1.5847
      7 O1B        -5.1948    2.6136   -1.0398 O.co2     1 GTP        -0.8859
      8 O2B        -6.2671    3.3085    1.2705 O.co2     1 GTP        -0.8859
      9 O3A        -3.8007    2.8142    1.1092 O.3       1 GTP        -0.7486
     10 PA         -3.2890    2.7005    2.6567 P.3       1 GTP         1.5001
     11 O1A        -4.0468    3.7072    3.4949 O.co2     1 GTP        -0.8487
     12 O2A        -3.2398    1.2387    3.0445 O.co2     1 GTP        -0.8487
     13 O5'        -1.7336    3.1724    2.4750 O.3       1 GTP        -0.5474
     14 C5'        -0.8811    2.4285    1.6206 C.3       1 GTP         0.2547
     15 C4'        -0.1994    1.3333    2.4288 C.3       1 GTP         0.0926
     16 O4'        -1.1285    0.2356    2.5840 O.3       1 GTP        -0.3593
     17 C3'         1.0324    0.7610    1.7344 C.3       1 GTP         0.0907
     18 O3'         1.9175    0.2377    2.7247 O.3       1 GTP        -0.5209
     19 C2'         0.4468   -0.3802    0.9263 C.3       1 GTP         0.0305
     20 O2'         1.3993   -1.3703    0.5961 O.3       1 GTP        -0.5978
     21 C1'        -0.6159   -0.9100    1.8769 C.3       1 GTP         0.2339
     22 N9         -1.7127   -1.6108    1.2130 N.pl3     1 GTP        -0.1765
     23 C8         -2.8692   -1.0463    0.7355 C.ar      1 GTP         0.4947
     24 N7         -3.6707   -1.9381    0.1856 N.2       1 GTP        -0.5802
     25 C5         -3.0027   -3.1275    0.3134 C.ar      1 GTP         0.2279
     26 C6         -3.4659   -4.4142   -0.1355 C.ar      1 GTP         0.6513
     27 O6         -4.5328   -4.6133   -0.6980 O.2       1 GTP        -0.5111
     28 N1         -2.5102   -5.4606    0.1612 N.pl3     1 GTP        -0.4713
     29 C2         -1.2711   -5.2547    0.8113 C.ar      1 GTP         0.5256
     30 N2         -0.4228   -6.3256    1.0482 N.pl3     1 GTP        -0.8665
     31 N3         -0.9033   -3.9563    1.2146 N.pl3     1 GTP        -0.5398
     32 C4         -1.7979   -2.9400    0.9438 C.ar      1 GTP        -0.0275
     33 HOG3       -5.6757   -1.3690    2.2290 H         1 GTP         0.4161
     34 H5'        -1.4800    1.9927    0.8146 H         1 GTP         0.0348
     35 H5''       -0.1367    3.1040    1.1872 H         1 GTP         0.0348
     36 H4'         0.0403    1.7078    3.4343 H         1 GTP         0.1215
     37 H3'         1.5907    1.4859    1.1353 H         1 GTP         0.0576
     38 HO3'        2.1521    0.9800    3.3017 H         1 GTP         0.3842
     39 H2'        -0.0017    0.0018    0.0005 H         1 GTP         0.0252
     40 HO2'        2.0953   -0.9375    0.0709 H         1 GTP         0.4224
     41 H1'        -0.1998   -1.6319    2.6178 H         1 GTP         0.0745
     42 H8         -3.0691    0.0134    0.8177 H         1 GTP         0.1522
     43 HN1        -2.7468   -6.4119   -0.1177 H         1 GTP         0.3518
     44 HN21        0.4233   -6.1297    1.5018 H         1 GTP         0.4761
     45 HN22       -0.7261   -7.2071    0.7466 H         1 GTP         0.4761
     46 H46        -0.0124   -3.8015    1.6821 H         1 GTP         0.5030
@<TRIPOS>BOND
     1    1    2 2
     2    1    3 1
     3    1    4 1
     4    1    5 1
     5    4   33 1
     6    5    6 1
     7    6    7 2
     8    6    8 1
     9    6    9 1
    10    9   10 1
    11   10   11 2
    12   10   12 1
    13   10   13 1
    14   13   14 1
    15   14   15 1
    16   14   34 1
    17   14   35 1
    18   15   16 1
    19   15   17 1
    20   15   36 1
    21   16   21 1
    22   17   18 1
    23   17   19 1
    24   17   37 1
    25   18   38 1
    26   19   20 1
    27   19   21 1
    28   19   39 1
    29   20   40 1
    30   21   22 1
    31   21   41 1
    32   22   23 ar
    33   22   32 ar
    34   23   24 ar
    35   23   42 1
    36   24   25 ar
    37   25   26 ar
    38   25   32 ar
    39   26   27 2
    40   26   28 ar
    41   28   29 ar
    42   28   43 1
    43   29   30 1
    44   29   31 ar
    45   30   44 1
    46   30   45 1
    47   31   32 ar
    48   31   46 1
@<TRIPOS>SUBSTRUCTURE
     1 GTP         1 GROUP 0 A     ****
@<TRIPOS>MOLECULE
[[[5-(2-amino-6-oxo-1,3-dihydropurin-2-ylium-9-yl)-3,4-dihydroxy-tetrahydrofuran-2-yl]methoxy-oxido-phosphoryl]oxy-oxido-phosphoryl] hydrogen phosphate
   46    48     1     0     0
SMALL
USER_CHARGES

@<TRIPOS>ATOM
      1 PG          3.5593    2.5486    5.0793 P.3       1 GTP         1.5400
      2 O1G         3.1733    1.9065    3.7655 O.co2     1 GTP        -0.8909
      3 O2G         4.7333    3.4984    5.1651 O.co2     1 GTP        -0.8909
      4 O3G         3.7628    1.3711    6.1920 O.3       1 GTP        -0.7980
      5 O3B         2.2456    3.2719    5.7232 O.3       1 GTP        -0.7612
      6 PB          1.3998    4.5651    5.1961 P.3       1 GTP         1.5847
      7 O1B         0.1866    4.7446    6.0811 O.co2     1 GTP        -0.8859
      8 O2B         2.3577    5.7039    4.9251 O.co2     1 GTP        -0.8859
      9 O3A         0.9326    3.9962    3.7391 O.3       1 GTP        -0.7486
     10 PA          0.0330    4.7083    2.5757 P.3       1 GTP         1.5001
     11 O1A        -1.3626    4.9400    3.1133 O.co2     1 GTP        -0.8487
     12 O2A         0.8346    5.8384    1.9673 O.co2     1 GTP        -0.8487
     13 O5'         0.0178    3.5131    1.4595 O.3       1 GTP        -0.5474
     14 C5'        -0.8811    2.4285    1.6206 C.3       1 GTP         0.2547
     15 C4'        -0.1994    1.3333    2.4288 C.3       1 GTP         0.0926
     16 O4'        -1.1285    0.2356    2.5840 O.3       1 GTP        -0.3593
     17 C3'         1.0324    0.7610    1.7344 C.3       1 GTP         0.0907
     18 O3'         1.9175    0.2377    2.7247 O.3       1 GTP        -0.5209
     19 C2'         0.4468   -0.3802    0.9263 C.3       1 GTP         0.0305
     20 O2'         1.3993   -1.3703    0.5961 O.3       1 GTP        -0.5978
     21 C1'        -0.6159   -0.9100    1.8769 C.3       1 GTP         0.2339
     22 N9         -1.7127   -1.6108    1.2130 N.pl3     1 GTP        -0.1765
     23 C8         -3.0389   -1.2578    1.2391 C.ar      1 GTP         0.4947
     24 N7         -3.7909   -2.0880    0.5425 N.2       1 GTP        -0.5802
     25 C5         -2.9127   -3.0150    0.0458 C.ar      1 GTP         0.2279
     26 C6         -3.2467   -4.1411   -0.7860 C.ar      1 GTP         0.6513
     27 O6         -4.3761   -4.4189   -1.1621 O.2       1 GTP        -0.5111
     28 N1         -2.0748   -4.9191   -1.1296 N.pl3     1 GTP        -0.4713
     29 C2         -0.7595   -4.6181   -0.7058 C.ar      1 GTP         0.5256
     30 N2          0.2985   -5.4268   -1.0920 N.pl3     1 GTP        -0.8665
     31 N3         -0.5304   -3.4919    0.1084 N.pl3     1 GTP        -0.5398
     32 C4         -1.6318   -2.7332    0.4512 C.ar      1 GTP        -0.0275
     33 HOG3        4.0172    1.6290    7.1036 H         1 GTP         0.4161
     34 H5'        -1.7771    2.7849    2.1387 H         1 GTP         0.0348
     35 H5''       -1.1654    2.0541    0.6320 H         1 GTP         0.0348
     36 H4'         0.0403    1.7078    3.4343 H         1 GTP         0.1215
     37 H3'         1.5907    1.4859    1.1353 H         1 GTP         0.0576
     38 HO3'        2.6839   -0.1150    2.2479 H         1 GTP         0.3842
     39 H2'        -0.0017    0.0018    0.0005 H         1 GTP         0.0252
     40 HO2'        1.7495   -1.7243    1.4324 H         1 GTP         0.4224
     41 H1'        -0.1998   -1.6319    2.6178 H         1 GTP         0.0745
     42 H8         -3.3933   -0.3909    1.7800 H         1 GTP         0.1522
     43 HN1        -2.2071   -5.7408   -1.7178 H         1 GTP         0.3518
     44 HN21        0.0848   -6.1964   -1.6597 H         1 GTP         0.4761
     45 HN22        1.1896   -5.1747   -0.7719 H         1 GTP         0.4761
     46 H46         0.4142   -3.2695    0.4160 H         1 GTP         0.5030
@<TRIPOS>BOND
     1    1    2 2
     2    1    3 1
     3    1    4 1
     4    1    5 1
     5    4   33 1
     6    5    6 1
     7    6    7 2
     8    6    8 1
     9    6    9 1
    10    9   10 1
    11   10   11 2
    12   10   12 1
    13   10   13 1
    14   13   14 1
    15   14   15 1
    16   14   34 1
    17   14   35 1
    18   15   16 1
    19   15   17 1
    20   15   36 1
    21   16   21 1
    22   17   18 1
    23   17   19 1
    24   17   37 1
    25   18   38 1
    26   19   20 1
    27   19   21 1
    28   19   39 1
    29   20   40 1
    30   21   22 1
    31   21   41 1
    32   22   23 ar
    33   22   32 ar
    34   23   24 ar
    35   23   42 1
    36   24   25 ar
    37   25   26 ar
    38   25   32 ar
    39   26   27 2
    40   26   28 ar
    41   28   29 ar
    42   28   43 1
    43   29   30 1
    44   29   31 ar
    45   30   44 1
    46   30   45 1
    47   31   32 ar
    48   31   46 1
@<TRIPOS>SUBSTRUCTURE
     1 GTP         1 GROUP 0 A     ****
@<TRIPOS>MOLECULE
[[[5-(2-amino-6-oxo-1,3-dihydropurin-2-ylium-9-yl)-3,4-dihydroxy-tetrahydrofuran-2-yl]methoxy-oxido-phosphoryl]oxy-oxido-phosphoryl] hydrogen phosphate
   46    48     1     0     0
SMALL
USER_CHARGES

@<TRIPOS>ATOM
      1 PG         -0.1840   -2.3075   -7.0684 P.3       1 GTP         1.5400
      2 O1G         1.3244   -2.2808   -7.1766 O.co2     1 GTP        -0.8909
      3 O2G        -0.9135   -3.5759   -6.6857 O.co2     1 GTP        -0.8909
      4 O3G        -0.8142   -1.7489   -8.4673 O.3       1 GTP        -0.7980
      5 O3B        -0.6671   -1.1010   -6.0812 O.3       1 GTP        -0.7612
      6 PB         -2.1727   -0.5751   -5.7316 P.3       1 GTP         1.5847
      7 O1B        -2.7844    0.0117   -6.9843 O.co2     1 GTP        -0.8859
      8 O2B        -2.8889   -1.6325   -4.9213 O.co2     1 GTP        -0.8859
      9 O3A        -1.7958    0.6274   -4.6940 O.3       1 GTP        -0.7486
     10 PA         -2.7724    1.6583   -3.8856 P.3       1 GTP         1.5001
     11 O1A        -3.4949    2.5314   -4.8885 O.co2     1 GTP        -0.8487
     12 O2A        -3.5333    0.8805   -2.8341 O.co2     1 GTP        -0.8487
     13 O5'        -1.6517    2.5335   -3.0776 O.3       1 GTP        -0.5474
     14 C5'        -0.7794    1.8744   -2.1748 C.3       1 GTP         0.2547
     15 C4'        -0.9699    2.4597   -0.7819 C.3       1 GTP         0.0926
     16 O4'        -2.1475    1.8640   -0.2014 O.3       1 GTP        -0.3593
     17 C3'         0.1697    2.1347    0.1695 C.3       1 GTP         0.0907
     18 O3'         0.1809    3.0982    1.2223 O.3       1 GTP        -0.5209
     19 C2'        -0.2543    0.7880    0.7187 C.3       1 GTP         0.0305
     20 O2'         0.3606    0.4944    1.9582 O.3       1 GTP        -0.5978
     21 C1'        -1.7682    0.9516    0.8548 C.3       1 GTP         0.2339
     22 N9         -2.5926   -0.2553    0.7436 N.pl3     1 GTP        -0.1765
     23 C8         -3.1167   -0.7800   -0.4115 C.ar      1 GTP         0.4947
     24 N7         -3.8169   -1.8757   -0.1899 N.2       1 GTP        -0.5802
     25 C5         -3.7408   -2.0659    1.1647 C.ar      1 GTP         0.2279
     26 C6         -4.3485   -3.1388    1.9073 C.ar      1 GTP         0.6513
     27 O6         -5.0215   -4.0329    1.4153 O.2       1 GTP        -0.5111
     28 N1         -4.0683   -3.0351    3.3241 N.pl3     1 GTP        -0.4713
     29 C2         -3.2939   -2.0102    3.9158 C.ar      1 GTP         0.5256
     30 N2         -3.0815   -2.0011    5.2860 N.pl3     1 GTP        -0.8665
     31 N3         -2.7384   -1.0007    3.1057 N.pl3     1 GTP        -0.5398
     32 C4         -2.9914   -1.0762    1.7505 C.ar      1 GTP        -0.0275
     33 HOG3       -0.5891   -0.8367   -8.7494 H         1 GTP         0.4161
     34 H5'        -1.0114    0.8046   -2.1752 H         1 GTP         0.0348
     35 H5''        0.2524    2.0162   -2.5118 H         1 GTP         0.0348
     36 H4'        -1.1469    3.5409   -0.8522 H         1 GTP         0.1215
     37 H3'         1.1601    2.1310   -0.2934 H         1 GTP         0.0576
     38 HO3'        0.3098    3.9616    0.8017 H         1 GTP         0.3842
     39 H2'        -0.0024   -0.0091    0.0062 H         1 GTP         0.0252
     40 HO2'        1.3225    0.4909    1.8095 H         1 GTP         0.4224
     41 H1'        -2.0584    1.4255    1.8301 H         1 GTP         0.0745
     42 H8         -2.9546   -0.3213   -1.3774 H         1 GTP         0.1522
     43 HN1        -4.4563   -3.7504    3.9377 H         1 GTP         0.3518
     44 HN21       -3.4887   -2.7270    5.8031 H         1 GTP         0.4761
     45 HN22       -2.5379   -1.2697    5.6460 H         1 GTP         0.4761
     46 H46        -2.1794   -0.2608    3.5256 H         1 GTP         0.5030
@<TRIPOS>BOND
     1    1    2 2
     2    1    3 1
     3    1    4 1
     4    1    5 1
     5    4   33 1
     6    5    6 1
     7    6    7 2
     8    6    8 1
     9    6    9 1
    10    9   10 1
    11   10   11 2
    12   10   12 1
    13   10   13 1
    14   13   14 1
    15   14   15 1
    16   14   34 1
    17   14   35 1
    18   15   16 1
    19   15   17 1
    20   15   36 1
    21   16   21 1
    22   17   18 1
    23   17   19 1
    24   17   37 1
    25   18   38 1
    26   19   20 1
    27   19   21 1
    28   19   39 1
    29   20   40 1
    30   21   22 1
    31   21   41 1
    32   22   23 ar
    33   22   32 ar
    34   23   24 ar
    35   23   42 1
    36   24   25 ar
    37   25   26 ar
    38   25   32 ar
    39   26   27 2
    40   26   28 ar
    41   28   29 ar
    42   28   43 1
    43   29   30 1
    44   29   31 ar
    45   30   44 1
    46   30   45 1
    47   31   32 ar
    48   31   46 1
@<TRIPOS>SUBSTRUCTURE
     1 GTP         1 GROUP 0 A     ****
@<TRIPOS>MOLECULE
[[[5-(2-amino-6-oxo-1,3-dihydropurin-2-ylium-9-yl)-3,4-dihydroxy-tetrahydrofuran-2-yl]methoxy-oxido-phosphoryl]oxy-oxido-phosphoryl] hydrogen phosphate
   46    48     1     0     0
SMALL
USER_CHARGES

@<TRIPOS>ATOM
      1 PG         -6.1680   -1.1052    1.8839 P.3       1 GTP         1.5400
      2 O1G        -6.6203   -0.7889    0.4758 O.co2     1 GTP        -0.8909
      3 O2G        -5.8254   -2.5212    2.2906 O.co2     1 GTP        -0.8909
      4 O3G        -7.2774   -0.5197    2.9290 O.3       1 GTP        -0.7980
      5 O3B        -4.9213   -0.1266    2.2738 O.3       1 GTP        -0.7612
      6 PB         -4.1527    0.0701    3.7008 P.3       1 GTP         1.5847
      7 O1B        -5.1219    0.6703    4.6948 O.co2     1 GTP        -0.8859
      8 O2B        -3.3703   -1.1851    4.0168 O.co2     1 GTP        -0.8859
      9 O3A        -3.0595    1.1979    3.2560 O.3       1 GTP        -0.7486
     10 PA         -3.2890    2.7005    2.6567 P.3       1 GTP         1.5001
     11 O1A        -3.9629    2.5881    1.3064 O.co2     1 GTP        -0.8487
     12 O2A        -3.8662    3.5746    3.7487 O.co2     1 GTP        -0.8487
     13 O5'        -1.7336    3.1724    2.4750 O.3       1 GTP        -0.5474
     14 C5'        -0.8811    2.4285    1.6206 C.3       1 GTP         0.2547
     15 C4'        -0.1994    1.3333    2.4288 C.3       1 GTP         0.0926
     16 O4'        -1.1285    0.2356    2.5840 O.3       1 GTP        -0.3593
     17 C3'         1.0324    0.7610    1.7344 C.3       1 GTP         0.0907
     18 O3'         1.9175    0.2377    2.7247 O.3       1 GTP        -0.5209
     19 C2'         0.4468   -0.3802    0.9263 C.3       1 GTP         0.0305
     20 O2'         1.3993   -1.3703    0.5961 O.3       1 GTP        -0.5978
     21 C1'        -0.6159   -0.9100    1.8769 C.3       1 GTP         0.2339
     22 N9         -1.7127   -1.6108    1.2130 N.pl3     1 GTP        -0.1765
     23 C8         -2.8692   -1.0463    0.7355 C.ar      1 GTP         0.4947
     24 N7         -3.6707   -1.9381    0.1856 N.2       1 GTP        -0.5802
     25 C5         -3.0027   -3.1275    0.3134 C.ar      1 GTP         0.2279
     26 C6         -3.4659   -4.4142   -0.1355 C.ar      1 GTP         0.6513
     27 O6         -4.5328   -4.6133   -0.6980 O.2       1 GTP        -0.5111
     28 N1         -2.5102   -5.4606    0.1612 N.pl3     1 GTP        -0.4713
     29 C2         -1.2711   -5.2547    0.8113 C.ar      1 GTP         0.5256
     30 N2         -0.4228   -6.3256    1.0482 N.pl3     1 GTP        -0.8665
     31 N3         -0.9033   -3.9563    1.2146 N.pl3     1 GTP        -0.5398
     32 C4         -1.7979   -2.9400    0.9438 C.ar      1 GTP        -0.0275
     33 HOG3       -7.1262   -0.6462    3.8899 H         1 GTP         0.4161
     34 H5'        -1.4800    1.9927    0.8146 H         1 GTP         0.0348
     35 H5''       -0.1367    3.1040    1.1872 H         1 GTP         0.0348
     36 H4'         0.0403    1.7078    3.4343 H         1 GTP         0.1215
     37 H3'         1.5907    1.4859    1.1353 H         1 GTP         0.0576
     38 HO3'        2.6839   -0.1150    2.2479 H         1 GTP         0.3842
     39 H2'        -0.0017    0.0018    0.0005 H         1 GTP         0.0252
     40 HO2'        2.0953   -0.9375    0.0709 H         1 GTP         0.4224
     41 H1'        -0.1998   -1.6319    2.6178 H         1 GTP         0.0745
     42 H8         -3.0691    0.0134    0.8177 H         1 GTP         0.1522
     43 HN1        -2.7468   -6.4119   -0.1177 H         1 GTP         0.3518
     44 HN21        0.4233   -6.1297    1.5018 H         1 GTP         0.4761
     45 HN22       -0.7261   -7.2071    0.7466 H         1 GTP         0.4761
     46 H46        -0.0124   -3.8015    1.6821 H         1 GTP         0.5030
@<TRIPOS>BOND
     1    1    2 2
     2    1    3 1
     3    1    4 1
     4    1    5 1
     5    4   33 1
     6    5    6 1
     7    6    7 2
     8    6    8 1
     9    6    9 1
    10    9   10 1
    11   10   11 2
    12   10   12 1
    13   10   13 1
    14   13   14 1
    15   14   15 1
    16   14   34 1
    17   14   35 1
    18   15   16 1
    19   15   17 1
    20   15   36 1
    21   16   21 1
    22   17   18 1
    23   17   19 1
    24   17   37 1
    25   18   38 1
    26   19   20 1
    27   19   21 1
    28   19   39 1
    29   20   40 1
    30   21   22 1
    31   21   41 1
    32   22   23 ar
    33   22   32 ar
    34   23   24 ar
    35   23   42 1
    36   24   25 ar
    37   25   26 ar
    38   25   32 ar
    39   26   27 2
    40   26   28 ar
    41   28   29 ar
    42   28   43 1
    43   29   30 1
    44   29   31 ar
    45   30   44 1
    46   30   45 1
    47   31   32 ar
    48   31   46 1
@<TRIPOS>SUBSTRUCTURE
     1 GTP         1 GROUP 0 A     ****
@<TRIPOS>MOLECULE
[[[5-(2-amino-6-oxo-1,3-dihydropurin-2-ylium-9-yl)-3,4-dihydroxy-tetrahydrofuran-2-yl]methoxy-oxido-phosphoryl]oxy-oxido-phosphoryl] hydrogen phosphate
   46    48     1     0     0
SMALL
USER_CHARGES

@<TRIPOS>ATOM
      1 PG         -2.7989   -3.3920   -5.3335 P.3       1 GTP         1.5400
      2 O1G        -3.6981   -3.3551   -6.5491 O.co2     1 GTP        -0.8909
      3 O2G        -1.4408   -4.0553   -5.3912 O.co2     1 GTP        -0.8909
      4 O3G        -3.6369   -4.0337   -4.0878 O.3       1 GTP        -0.7980
      5 O3B        -2.6227   -1.8753   -4.7569 O.3       1 GTP        -0.7612
      6 PB         -3.7561   -0.7739   -4.3469 P.3       1 GTP         1.5847
      7 O1B        -4.5093   -0.3663   -5.5935 O.co2     1 GTP        -0.8859
      8 O2B        -4.4778   -1.2477   -3.1051 O.co2     1 GTP        -0.8859
      9 O3A        -2.7781    0.4459   -3.8774 O.3       1 GTP        -0.7486
     10 PA         -3.1544    1.9334   -3.3157 P.3       1 GTP         1.5001
     11 O1A        -3.8579    2.7038   -4.4119 O.co2     1 GTP        -0.8487
     12 O2A        -3.7702    1.7905   -1.9409 O.co2     1 GTP        -0.8487
     13 O5'        -1.6517    2.5335   -3.0776 O.3       1 GTP        -0.5474
     14 C5'        -0.7794    1.8744   -2.1748 C.3       1 GTP         0.2547
     15 C4'        -0.9699    2.4597   -0.7819 C.3       1 GTP         0.0926
     16 O4'        -2.1475    1.8640   -0.2014 O.3       1 GTP        -0.3593
     17 C3'         0.1697    2.1347    0.1695 C.3       1 GTP         0.0907
     18 O3'         0.1809    3.0982    1.2223 O.3       1 GTP        -0.5209
     19 C2'        -0.2543    0.7880    0.7187 C.3       1 GTP         0.0305
     20 O2'         0.3606    0.4944    1.9582 O.3       1 GTP        -0.5978
     21 C1'        -1.7682    0.9516    0.8548 C.3       1 GTP         0.2339
     22 N9         -2.5926   -0.2553    0.7436 N.pl3     1 GTP        -0.1765
     23 C8         -3.1167   -0.7800   -0.4115 C.ar      1 GTP         0.4947
     24 N7         -3.8169   -1.8757   -0.1899 N.2       1 GTP        -0.5802
     25 C5         -3.7408   -2.0659    1.1647 C.ar      1 GTP         0.2279
     26 C6         -4.3485   -3.1388    1.9073 C.ar      1 GTP         0.6513
     27 O6         -5.0215   -4.0329    1.4153 O.2       1 GTP        -0.5111
     28 N1         -4.0683   -3.0351    3.3241 N.pl3     1 GTP        -0.4713
     29 C2         -3.2939   -2.0102    3.9158 C.ar      1 GTP         0.5256
     30 N2         -3.0815   -2.0011    5.2860 N.pl3     1 GTP        -0.8665
     31 N3         -2.7384   -1.0007    3.1057 N.pl3     1 GTP        -0.5398
     32 C4         -2.9914   -1.0762    1.7505 C.ar      1 GTP        -0.0275
     33 HOG3       -4.4554   -3.5805   -3.7929 H         1 GTP         0.4161
     34 H5'        -1.0114    0.8046   -2.1752 H         1 GTP         0.0348
     35 H5''        0.2524    2.0162   -2.5118 H         1 GTP         0.0348
     36 H4'        -1.1469    3.5409   -0.8522 H         1 GTP         0.1215
     37 H3'         1.1601    2.1310   -0.2934 H         1 GTP         0.0576
     38 HO3'        0.3098    3.9616    0.8017 H         1 GTP         0.3842
     39 H2'        -0.0024   -0.0091    0.0062 H         1 GTP         0.0252
     40 HO2'        1.3225    0.4909    1.8095 H         1 GTP         0.4224
     41 H1'        -2.0584    1.4255    1.8301 H         1 GTP         0.0745
     42 H8         -2.9546   -0.3213   -1.3774 H         1 GTP         0.1522
     43 HN1        -4.4563   -3.7504    3.9377 H         1 GTP         0.3518
     44 HN21       -3.4887   -2.7270    5.8031 H         1 GTP         0.4761
     45 HN22       -2.5379   -1.2697    5.6460 H         1 GTP         0.4761
     46 H46        -2.1794   -0.2608    3.5256 H         1 GTP         0.5030
@<TRIPOS>BOND
     1    1    2 2
     2    1    3 1
     3    1    4 1
     4    1    5 1
     5    4   33 1
     6    5    6 1
     7    6    7 2
     8    6    8 1
     9    6    9 1
    10    9   10 1
    11   10   11 2
    12   10   12 1
    13   10   13 1
    14   13   14 1
    15   14   15 1
    16   14   34 1
    17   14   35 1
    18   15   16 1
    19   15   17 1
    20   15   36 1
    21   16   21 1
    22   17   18 1
    23   17   19 1
    24   17   37 1
    25   18   38 1
    26   19   20 1
    27   19   21 1
    28   19   39 1
    29   20   40 1
    30   21   22 1
    31   21   41 1
    32   22   23 ar
    33   22   32 ar
    34   23   24 ar
    35   23   42 1
    36   24   25 ar
    37   25   26 ar
    38   25   32 ar
    39   26   27 2
    40   26   28 ar
    41   28   29 ar
    42   28   43 1
    43   29   30 1
    44   29   31 ar
    45   30   44 1
    46   30   45 1
    47   31   32 ar
    48   31   46 1
@<TRIPOS>SUBSTRUCTURE
     1 GTP         1 GROUP 0 A     ****
@<TRIPOS>MOLECULE
[[[5-(2-amino-6-oxo-1,3-dihydropurin-2-ylium-9-yl)-3,4-dihydroxy-tetrahydrofuran-2-yl]methoxy-oxido-phosphoryl]oxy-oxido-phosphoryl] hydrogen phosphate
   46    48     1     0     0
SMALL
USER_CHARGES

@<TRIPOS>ATOM
      1 PG         -4.4492    4.2547   -1.7712 P.3       1 GTP         1.5400
      2 O1G        -5.5478    5.2861   -1.6418 O.co2     1 GTP        -0.8909
      3 O2G        -3.0442    4.5518   -1.2965 O.co2     1 GTP        -0.8909
      4 O3G        -4.3781    3.7651   -3.3272 O.3       1 GTP        -0.7980
      5 O3B        -4.9512    2.8564   -1.0954 O.3       1 GTP        -0.7612
      6 PB         -5.2692    2.5047    0.4669 P.3       1 GTP         1.5847
      7 O1B        -6.2726    3.5058    0.9947 O.co2     1 GTP        -0.8859
      8 O2B        -5.4914    1.0148    0.6018 O.co2     1 GTP        -0.8859
      9 O3A        -3.8007    2.8142    1.1092 O.3       1 GTP        -0.7486
     10 PA         -3.2890    2.7005    2.6567 P.3       1 GTP         1.5001
     11 O1A        -4.0468    3.7072    3.4949 O.co2     1 GTP        -0.8487
     12 O2A        -3.2398    1.2387    3.0445 O.co2     1 GTP        -0.8487
     13 O5'        -1.7336    3.1724    2.4750 O.3       1 GTP        -0.5474
     14 C5'        -0.8811    2.4285    1.6206 C.3       1 GTP         0.2547
     15 C4'        -0.1994    1.3333    2.4288 C.3       1 GTP         0.0926
     16 O4'        -1.1285    0.2356    2.5840 O.3       1 GTP        -0.3593
     17 C3'         1.0324    0.7610    1.7344 C.3       1 GTP         0.0907
     18 O3'         1.9175    0.2377    2.7247 O.3       1 GTP        -0.5209
     19 C2'         0.4468   -0.3802    0.9263 C.3       1 GTP         0.0305
     20 O2'         1.3993   -1.3703    0.5961 O.3       1 GTP        -0.5978
     21 C1'        -0.6159   -0.9100    1.8769 C.3       1 GTP         0.2339
     22 N9         -1.7127   -1.6108    1.2130 N.pl3     1 GTP        -0.1765
     23 C8         -1.6311   -2.3341    0.0493 C.ar      1 GTP         0.4947
     24 N7         -2.7933   -2.8506   -0.3007 N.2       1 GTP        -0.5802
     25 C5         -3.6607   -2.4436    0.6786 C.ar      1 GTP         0.2279
     26 C6         -5.0651   -2.7506    0.7505 C.ar      1 GTP         0.6513
     27 O6         -5.6735   -3.4256   -0.0671 O.2       1 GTP        -0.5111
     28 N1         -5.6834   -2.1585    1.9182 N.pl3     1 GTP        -0.4713
     29 C2         -5.0007   -1.3738    2.8765 C.ar      1 GTP         0.5256
     30 N2         -5.6847   -0.8521    3.9640 N.pl3     1 GTP        -0.8665
     31 N3         -3.6227   -1.1271    2.7212 N.pl3     1 GTP        -0.5398
     32 C4         -3.0090   -1.6802    1.6149 C.ar      1 GTP        -0.0275
     33 HOG3       -3.7095    3.0912   -3.5745 H         1 GTP         0.4161
     34 H5'        -1.4800    1.9927    0.8146 H         1 GTP         0.0348
     35 H5''       -0.1367    3.1040    1.1872 H         1 GTP         0.0348
     36 H4'         0.0403    1.7078    3.4343 H         1 GTP         0.1215
     37 H3'         1.5907    1.4859    1.1353 H         1 GTP         0.0576
     38 HO3'        2.6839   -0.1150    2.2479 H         1 GTP         0.3842
     39 H2'        -0.0017    0.0018    0.0005 H         1 GTP         0.0252
     40 HO2'        2.0953   -0.9375    0.0709 H         1 GTP         0.4224
     41 H1'        -0.1998   -1.6319    2.6178 H         1 GTP         0.0745
     42 H8         -0.7029   -2.4474   -0.4941 H         1 GTP         0.1522
     43 HN1        -6.6800   -2.3183    2.0594 H         1 GTP         0.3518
     44 HN21       -5.1660   -0.3153    4.5987 H         1 GTP         0.4761
     45 HN22       -6.6415   -1.0545    4.0252 H         1 GTP         0.4761
     46 H46        -3.1256   -0.5638    3.4080 H         1 GTP         0.5030
@<TRIPOS>BOND
     1    1    2 2
     2    1    3 1
     3    1    4 1
     4    1    5 1
     5    4   33 1
     6    5    6 1
     7    6    7 2
     8    6    8 1
     9    6    9 1
    10    9   10 1
    11   10   11 2
    12   10   12 1
    13   10   13 1
    14   13   14 1
    15   14   15 1
    16   14   34 1
    17   14   35 1
    18   15   16 1
    19   15   17 1
    20   15   36 1
    21   16   21 1
    22   17   18 1
    23   17   19 1
    24   17   37 1
    25   18   38 1
    26   19   20 1
    27   19   21 1
    28   19   39 1
    29   20   40 1
    30   21   22 1
    31   21   41 1
    32   22   23 ar
    33   22   32 ar
    34   23   24 ar
    35   23   42 1
    36   24   25 ar
    37   25   26 ar
    38   25   32 ar
    39   26   27 2
    40   26   28 ar
    41   28   29 ar
    42   28   43 1
    43   29   30 1
    44   29   31 ar
    45   30   44 1
    46   30   45 1
    47   31   32 ar
    48   31   46 1
@<TRIPOS>SUBSTRUCTURE
     1 GTP         1 GROUP 0 A     ****
@<TRIPOS>MOLECULE
[[[5-(2-amino-6-oxo-1,3-dihydropurin-2-ylium-9-yl)-3,4-dihydroxy-tetrahydrofuran-2-yl]methoxy-oxido-phosphoryl]oxy-oxido-phosphoryl] hydrogen phosphate
   46    48     1     0     0
SMALL
USER_CHARGES

@<TRIPOS>ATOM
      1 PG         -7.7584    3.8937    1.2532 P.3       1 GTP         1.5400
      2 O1G        -8.0883    4.5053   -0.0902 O.co2     1 GTP        -0.8909
      3 O2G        -8.5145    2.6880    1.7650 O.co2     1 GTP        -0.8909
      4 O3G        -7.8240    5.0666    2.3872 O.3       1 GTP        -0.7980
      5 O3B        -6.1579    3.5800    1.3152 O.3       1 GTP        -0.7612
      6 PB         -5.2692    2.5047    0.4669 P.3       1 GTP         1.5847
      7 O1B        -5.7038    1.1075    0.8495 O.co2     1 GTP        -0.8859
      8 O2B        -5.2075    2.9469   -0.9782 O.co2     1 GTP        -0.8859
      9 O3A        -3.8007    2.8142    1.1092 O.3       1 GTP        -0.7486
     10 PA         -3.2890    2.7005    2.6567 P.3       1 GTP         1.5001
     11 O1A        -4.0468    3.7072    3.4949 O.co2     1 GTP        -0.8487
     12 O2A        -3.2398    1.2387    3.0445 O.co2     1 GTP        -0.8487
     13 O5'        -1.7336    3.1724    2.4750 O.3       1 GTP        -0.5474
     14 C5'        -0.8811    2.4285    1.6206 C.3       1 GTP         0.2547
     15 C4'        -0.1994    1.3333    2.4288 C.3       1 GTP         0.0926
     16 O4'        -1.1285    0.2356    2.5840 O.3       1 GTP        -0.3593
     17 C3'         1.0324    0.7610    1.7344 C.3       1 GTP         0.0907
     18 O3'         1.9175    0.2377    2.7247 O.3       1 GTP        -0.5209
     19 C2'         0.4468   -0.3802    0.9263 C.3       1 GTP         0.0305
     20 O2'         1.3993   -1.3703    0.5961 O.3       1 GTP        -0.5978
     21 C1'        -0.6159   -0.9100    1.8769 C.3       1 GTP         0.2339
     22 N9         -1.7127   -1.6108    1.2130 N.pl3     1 GTP        -0.1765
     23 C8         -3.0389   -1.2578    1.2391 C.ar      1 GTP         0.4947
     24 N7         -3.7909   -2.0880    0.5425 N.2       1 GTP        -0.5802
     25 C5         -2.9127   -3.0150    0.0458 C.ar      1 GTP         0.2279
     26 C6         -3.2467   -4.1411   -0.7860 C.ar      1 GTP         0.6513
     27 O6         -4.3761   -4.4189   -1.1621 O.2       1 GTP        -0.5111
     28 N1         -2.0748   -4.9191   -1.1296 N.pl3     1 GTP        -0.4713
     29 C2         -0.7595   -4.6181   -0.7058 C.ar      1 GTP         0.5256
     30 N2          0.2985   -5.4268   -1.0920 N.pl3     1 GTP        -0.8665
     31 N3         -0.5304   -3.4919    0.1084 N.pl3     1 GTP        -0.5398
     32 C4         -1.6318   -2.7332    0.4512 C.ar      1 GTP        -0.0275
     33 HOG3       -7.6327    4.8265    3.3189 H         1 GTP         0.4161
     34 H5'        -1.4800    1.9927    0.8146 H         1 GTP         0.0348
     35 H5''       -0.1367    3.1040    1.1872 H         1 GTP         0.0348
     36 H4'         0.0403    1.7078    3.4343 H         1 GTP         0.1215
     37 H3'         1.5907    1.4859    1.1353 H         1 GTP         0.0576
     38 HO3'        2.6839   -0.1150    2.2479 H         1 GTP         0.3842
     39 H2'        -0.0017    0.0018    0.0005 H         1 GTP         0.0252
     40 HO2'        2.0953   -0.9375    0.0709 H         1 GTP         0.4224
     41 H1'        -0.1998   -1.6319    2.6178 H         1 GTP         0.0745
     42 H8         -3.3933   -0.3909    1.7800 H         1 GTP         0.1522
     43 HN1        -2.2071   -5.7408   -1.7178 H         1 GTP         0.3518
     44 HN21        1.1896   -5.1751   -0.7715 H         1 GTP         0.4761
     45 HN22        0.0846   -6.1966   -1.6593 H         1 GTP         0.4761
     46 H46         0.4142   -3.2695    0.4160 H         1 GTP         0.5030
@<TRIPOS>BOND
     1    1    2 2
     2    1    3 1
     3    1    4 1
     4    1    5 1
     5    4   33 1
     6    5    6 1
     7    6    7 2
     8    6    8 1
     9    6    9 1
    10    9   10 1
    11   10   11 2
    12   10   12 1
    13   10   13 1
    14   13   14 1
    15   14   15 1
    16   14   34 1
    17   14   35 1
    18   15   16 1
    19   15   17 1
    20   15   36 1
    21   16   21 1
    22   17   18 1
    23   17   19 1
    24   17   37 1
    25   18   38 1
    26   19   20 1
    27   19   21 1
    28   19   39 1
    29   20   40 1
    30   21   22 1
    31   21   41 1
    32   22   23 ar
    33   22   32 ar
    34   23   24 ar
    35   23   42 1
    36   24   25 ar
    37   25   26 ar
    38   25   32 ar
    39   26   27 2
    40   26   28 ar
    41   28   29 ar
    42   28   43 1
    43   29   30 1
    44   29   31 ar
    45   30   44 1
    46   30   45 1
    47   31   32 ar
    48   31   46 1
@<TRIPOS>SUBSTRUCTURE
     1 GTP         1 GROUP 0 A     ****
@<TRIPOS>MOLECULE
[[[5-(2-amino-6-oxo-1,3-dihydropurin-2-ylium-9-yl)-3,4-dihydroxy-tetrahydrofuran-2-yl]methoxy-oxido-phosphoryl]oxy-oxido-phosphoryl] hydrogen phosphate
   46    48     1     0     0
SMALL
USER_CHARGES

@<TRIPOS>ATOM
      1 PG         -5.2151   -0.6506   -2.0572 P.3       1 GTP         1.5400
      2 O1G        -6.6135   -0.9626   -1.5730 O.co2     1 GTP        -0.8909
      3 O2G        -4.9777   -0.1049   -3.4478 O.co2     1 GTP        -0.8909
      4 O3G        -4.2882   -1.9798   -1.8567 O.3       1 GTP        -0.7980
      5 O3B        -4.4833    0.3261   -0.9736 O.3       1 GTP        -0.7612
      6 PB         -4.8201    1.8698   -0.5622 P.3       1 GTP         1.5847
      7 O1B        -4.5561    2.7587   -1.7570 O.co2     1 GTP        -0.8859
      8 O2B        -6.1397    1.9068    0.1760 O.co2     1 GTP        -0.8859
      9 O3A        -3.6558    2.1022    0.5582 O.3       1 GTP        -0.7486
     10 PA         -3.3161    3.4234    1.4576 P.3       1 GTP         1.5001
     11 O1A        -2.8773    4.5400    0.5352 O.co2     1 GTP        -0.8487
     12 O2A        -4.4325    3.6284    2.4582 O.co2     1 GTP        -0.8487
     13 O5'        -2.0401    2.8620    2.3128 O.3       1 GTP        -0.5474
     14 C5'        -0.8811    2.4285    1.6206 C.3       1 GTP         0.2547
     15 C4'        -0.1994    1.3333    2.4288 C.3       1 GTP         0.0926
     16 O4'        -1.1285    0.2356    2.5840 O.3       1 GTP        -0.3593
     17 C3'         1.0324    0.7610    1.7344 C.3       1 GTP         0.0907
     18 O3'         1.9175    0.2377    2.7247 O.3       1 GTP        -0.5209
     19 C2'         0.4468   -0.3802    0.9263 C.3       1 GTP         0.0305
     20 O2'         1.3993   -1.3703    0.5961 O.3       1 GTP        -0.5978
     21 C1'        -0.6159   -0.9100    1.8769 C.3       1 GTP         0.2339
     22 N9         -1.7127   -1.6108    1.2130 N.pl3     1 GTP        -0.1765
     23 C8         -1.6311   -2.3341    0.0493 C.ar      1 GTP         0.4947
     24 N7         -2.7933   -2.8506   -0.3007 N.2       1 GTP        -0.5802
     25 C5         -3.6607   -2.4436    0.6786 C.ar      1 GTP         0.2279
     26 C6         -5.0651   -2.7506    0.7505 C.ar      1 GTP         0.6513
     27 O6         -5.6735   -3.4256   -0.0671 O.2       1 GTP        -0.5111
     28 N1         -5.6834   -2.1585    1.9182 N.pl3     1 GTP        -0.4713
     29 C2         -5.0007   -1.3738    2.8765 C.ar      1 GTP         0.5256
     30 N2         -5.6847   -0.8521    3.9640 N.pl3     1 GTP        -0.8665
     31 N3         -3.6227   -1.1271    2.7212 N.pl3     1 GTP        -0.5398
     32 C4         -3.0090   -1.6802    1.6149 C.ar      1 GTP        -0.0275
     33 HOG3       -3.3460   -1.9369   -2.1262 H         1 GTP         0.4161
     34 H5'        -1.1767    2.0502    0.6368 H         1 GTP         0.0348
     35 H5''       -0.2080    3.2814    1.4876 H         1 GTP         0.0348
     36 H4'         0.0403    1.7078    3.4343 H         1 GTP         0.1215
     37 H3'         1.5907    1.4859    1.1353 H         1 GTP         0.0576
     38 HO3'        2.1521    0.9800    3.3017 H         1 GTP         0.3842
     39 H2'        -0.0017    0.0018    0.0005 H         1 GTP         0.0252
     40 HO2'        1.7495   -1.7243    1.4324 H         1 GTP         0.4224
     41 H1'        -0.1998   -1.6319    2.6178 H         1 GTP         0.0745
     42 H8         -0.7029   -2.4474   -0.4941 H         1 GTP         0.1522
     43 HN1        -6.6800   -2.3183    2.0594 H         1 GTP         0.3518
     44 HN21       -6.6414   -1.0549    4.0256 H         1 GTP         0.4761
     45 HN22       -5.1658   -0.3157    4.5989 H         1 GTP         0.4761
     46 H46        -3.1256   -0.5638    3.4080 H         1 GTP         0.5030
@<TRIPOS>BOND
     1    1    2 2
     2    1    3 1
     3    1    4 1
     4    1    5 1
     5    4   33 1
     6    5    6 1
     7    6    7 2
     8    6    8 1
     9    6    9 1
    10    9   10 1
    11   10   11 2
    12   10   12 1
    13   10   13 1
    14   13   14 1
    15   14   15 1
    16   14   34 1
    17   14   35 1
    18   15   16 1
    19   15   17 1
    20   15   36 1
    21   16   21 1
    22   17   18 1
    23   17   19 1
    24   17   37 1
    25   18   38 1
    26   19   20 1
    27   19   21 1
    28   19   39 1
    29   20   40 1
    30   21   22 1
    31   21   41 1
    32   22   23 ar
    33   22   32 ar
    34   23   24 ar
    35   23   42 1
    36   24   25 ar
    37   25   26 ar
    38   25   32 ar
    39   26   27 2
    40   26   28 ar
    41   28   29 ar
    42   28   43 1
    43   29   30 1
    44   29   31 ar
    45   30   44 1
    46   30   45 1
    47   31   32 ar
    48   31   46 1
@<TRIPOS>SUBSTRUCTURE
     1 GTP         1 GROUP 0 A     ****
@<TRIPOS>MOLECULE
[[[5-(2-amino-6-oxo-1,3-dihydropurin-2-ylium-9-yl)-3,4-dihydroxy-tetrahydrofuran-2-yl]methoxy-oxido-phosphoryl]oxy-oxido-phosphoryl] hydrogen phosphate
   46    48     1     0     0
SMALL
USER_CHARGES

@<TRIPOS>ATOM
      1 PG         -5.9294    2.7971   -2.4005 P.3       1 GTP         1.5400
      2 O1G        -5.2006    3.3835   -3.5890 O.co2     1 GTP        -0.8909
      3 O2G        -6.5628    1.4256   -2.4765 O.co2     1 GTP        -0.8909
      4 O3G        -7.0624    3.8648   -1.9084 O.3       1 GTP        -0.7980
      5 O3B        -4.9512    2.8564   -1.0954 O.3       1 GTP        -0.7612
      6 PB         -5.2692    2.5047    0.4669 P.3       1 GTP         1.5847
      7 O1B        -6.2726    3.5058    0.9947 O.co2     1 GTP        -0.8859
      8 O2B        -5.4914    1.0148    0.6018 O.co2     1 GTP        -0.8859
      9 O3A        -3.8007    2.8142    1.1092 O.3       1 GTP        -0.7486
     10 PA         -3.2890    2.7005    2.6567 P.3       1 GTP         1.5001
     11 O1A        -4.0468    3.7072    3.4949 O.co2     1 GTP        -0.8487
     12 O2A        -3.2398    1.2387    3.0445 O.co2     1 GTP        -0.8487
     13 O5'        -1.7336    3.1724    2.4750 O.3       1 GTP        -0.5474
     14 C5'        -0.8811    2.4285    1.6206 C.3       1 GTP         0.2547
     15 C4'        -0.1994    1.3333    2.4288 C.3       1 GTP         0.0926
     16 O4'        -1.1285    0.2356    2.5840 O.3       1 GTP        -0.3593
     17 C3'         1.0324    0.7610    1.7344 C.3       1 GTP         0.0907
     18 O3'         1.9175    0.2377    2.7247 O.3       1 GTP        -0.5209
     19 C2'         0.4468   -0.3802    0.9263 C.3       1 GTP         0.0305
     20 O2'         1.3993   -1.3703    0.5961 O.3       1 GTP        -0.5978
     21 C1'        -0.6159   -0.9100    1.8769 C.3       1 GTP         0.2339
     22 N9         -1.7127   -1.6108    1.2130 N.pl3     1 GTP        -0.1765
     23 C8         -3.0389   -1.2578    1.2391 C.ar      1 GTP         0.4947
     24 N7         -3.7909   -2.0880    0.5425 N.2       1 GTP        -0.5802
     25 C5         -2.9127   -3.0150    0.0458 C.ar      1 GTP         0.2279
     26 C6         -3.2467   -4.1411   -0.7860 C.ar      1 GTP         0.6513
     27 O6         -4.3761   -4.4189   -1.1621 O.2       1 GTP        -0.5111
     28 N1         -2.0748   -4.9191   -1.1296 N.pl3     1 GTP        -0.4713
     29 C2         -0.7595   -4.6181   -0.7058 C.ar      1 GTP         0.5256
     30 N2          0.2985   -5.4268   -1.0920 N.pl3     1 GTP        -0.8665
     31 N3         -0.5304   -3.4919    0.1084 N.pl3     1 GTP        -0.5398
     32 C4         -1.6318   -2.7332    0.4512 C.ar      1 GTP        -0.0275
     33 HOG3       -7.6242    3.6284   -1.1398 H         1 GTP         0.4161
     34 H5'        -1.4800    1.9927    0.8146 H         1 GTP         0.0348
     35 H5''       -0.1367    3.1040    1.1872 H         1 GTP         0.0348
     36 H4'         0.0403    1.7078    3.4343 H         1 GTP         0.1215
     37 H3'         1.5907    1.4859    1.1353 H         1 GTP         0.0576
     38 HO3'        2.6839   -0.1150    2.2479 H         1 GTP         0.3842
     39 H2'        -0.0017    0.0018    0.0005 H         1 GTP         0.0252
     40 HO2'        1.7495   -1.7243    1.4324 H         1 GTP         0.4224
     41 H1'        -0.1998   -1.6319    2.6178 H         1 GTP         0.0745
     42 H8         -3.3933   -0.3909    1.7800 H         1 GTP         0.1522
     43 HN1        -2.2071   -5.7408   -1.7178 H         1 GTP         0.3518
     44 HN21        0.0848   -6.1964   -1.6597 H         1 GTP         0.4761
     45 HN22        1.1896   -5.1747   -0.7719 H         1 GTP         0.4761
     46 H46         0.4142   -3.2695    0.4160 H         1 GTP         0.5030
@<TRIPOS>BOND
     1    1    2 2
     2    1    3 1
     3    1    4 1
     4    1    5 1
     5    4   33 1
     6    5    6 1
     7    6    7 2
     8    6    8 1
     9    6    9 1
    10    9   10 1
    11   10   11 2
    12   10   12 1
    13   10   13 1
    14   13   14 1
    15   14   15 1
    16   14   34 1
    17   14   35 1
    18   15   16 1
    19   15   17 1
    20   15   36 1
    21   16   21 1
    22   17   18 1
    23   17   19 1
    24   17   37 1
    25   18   38 1
    26   19   20 1
    27   19   21 1
    28   19   39 1
    29   20   40 1
    30   21   22 1
    31   21   41 1
    32   22   23 ar
    33   22   32 ar
    34   23   24 ar
    35   23   42 1
    36   24   25 ar
    37   25   26 ar
    38   25   32 ar
    39   26   27 2
    40   26   28 ar
    41   28   29 ar
    42   28   43 1
    43   29   30 1
    44   29   31 ar
    45   30   44 1
    46   30   45 1
    47   31   32 ar
    48   31   46 1
@<TRIPOS>SUBSTRUCTURE
     1 GTP         1 GROUP 0 A     ****
@<TRIPOS>MOLECULE
[[[5-(2-amino-6-oxo-1,3-dihydropurin-2-ylium-9-yl)-3,4-dihydroxy-tetrahydrofuran-2-yl]methoxy-oxido-phosphoryl]oxy-oxido-phosphoryl] hydrogen phosphate
   46    48     1     0     0
SMALL
USER_CHARGES

@<TRIPOS>ATOM
      1 PG          1.2056    1.6489    6.3754 P.3       1 GTP         1.5400
      2 O1G         1.4668    1.3021    4.9267 O.co2     1 GTP        -0.8909
      3 O2G         2.2223    2.4229    7.1849 O.co2     1 GTP        -0.8909
      4 O3G         0.8394    0.2759    7.1796 O.3       1 GTP        -0.7980
      5 O3B        -0.2412    2.3954    6.4904 O.3       1 GTP        -0.7612
      6 PB         -0.7141    3.8526    5.9260 P.3       1 GTP         1.5847
      7 O1B        -2.1965    4.0129    6.1794 O.co2     1 GTP        -0.8859
      8 O2B         0.2827    4.9003    6.3690 O.co2     1 GTP        -0.8859
      9 O3A        -0.4561    3.6124    4.3321 O.3       1 GTP        -0.7486
     10 PA         -0.6907    4.6220    3.0690 P.3       1 GTP         1.5001
     11 O1A        -2.1703    4.9168    2.9501 O.co2     1 GTP        -0.8487
     12 O2A         0.3260    5.7400    3.1472 O.co2     1 GTP        -0.8487
     13 O5'        -0.2062    3.6557    1.8417 O.3       1 GTP        -0.5474
     14 C5'        -0.8811    2.4285    1.6206 C.3       1 GTP         0.2547
     15 C4'        -0.1994    1.3333    2.4288 C.3       1 GTP         0.0926
     16 O4'        -1.1285    0.2356    2.5840 O.3       1 GTP        -0.3593
     17 C3'         1.0324    0.7610    1.7344 C.3       1 GTP         0.0907
     18 O3'         1.9175    0.2377    2.7247 O.3       1 GTP        -0.5209
     19 C2'         0.4468   -0.3802    0.9263 C.3       1 GTP         0.0305
     20 O2'         1.3993   -1.3703    0.5961 O.3       1 GTP        -0.5978
     21 C1'        -0.6159   -0.9100    1.8769 C.3       1 GTP         0.2339
     22 N9         -1.7127   -1.6108    1.2130 N.pl3     1 GTP        -0.1765
     23 C8         -2.5534   -1.0907    0.2607 C.ar      1 GTP         0.4947
     24 N7         -3.4469   -1.9695   -0.1508 N.2       1 GTP        -0.5802
     25 C5         -3.1705   -3.1041    0.5657 C.ar      1 GTP         0.2279
     26 C6         -3.8738   -4.3568    0.4777 C.ar      1 GTP         0.6513
     27 O6         -4.8240   -4.5720   -0.2607 O.2       1 GTP        -0.5111
     28 N1         -3.3198   -5.3462    1.3780 N.pl3     1 GTP        -0.4713
     29 C2         -2.2226   -5.1203    2.2413 C.ar      1 GTP         0.5256
     30 N2         -1.7649   -6.1367    3.0659 N.pl3     1 GTP        -0.8665
     31 N3         -1.5969   -3.8585    2.2574 N.pl3     1 GTP        -0.5398
     32 C4         -2.1068   -2.8965    1.4082 C.ar      1 GTP        -0.0275
     33 HOG3        0.6424    0.3349    8.1387 H         1 GTP         0.4161
     34 H5'        -1.9256    2.5380    1.9293 H         1 GTP         0.0348
     35 H5''       -0.8474    2.1930    0.5521 H         1 GTP         0.0348
     36 H4'         0.0403    1.7078    3.4343 H         1 GTP         0.1215
     37 H3'         1.5907    1.4859    1.1353 H         1 GTP         0.0576
     38 HO3'        2.1521    0.9800    3.3017 H         1 GTP         0.3842
     39 H2'        -0.0017    0.0018    0.0005 H         1 GTP         0.0252
     40 HO2'        0.9369   -2.0558    0.0825 H         1 GTP         0.4224
     41 H1'        -0.1998   -1.6319    2.6178 H         1 GTP         0.0745
     42 H8         -2.4657   -0.0713   -0.0897 H         1 GTP         0.1522
     43 HN1        -3.7505   -6.2699    1.3904 H         1 GTP         0.3518
     44 HN21       -1.0023   -5.9289    3.6451 H         1 GTP         0.4761
     45 HN22       -2.2347   -6.9951    3.0150 H         1 GTP         0.4761
     46 H46        -0.8062   -3.6900    2.8760 H         1 GTP         0.5030
@<TRIPOS>BOND
     1    1    2 2
     2    1    3 1
     3    1    4 1
     4    1    5 1
     5    4   33 1
     6    5    6 1
     7    6    7 2
     8    6    8 1
     9    6    9 1
    10    9   10 1
    11   10   11 2
    12   10   12 1
    13   10   13 1
    14   13   14 1
    15   14   15 1
    16   14   34 1
    17   14   35 1
    18   15   16 1
    19   15   17 1
    20   15   36 1
    21   16   21 1
    22   17   18 1
    23   17   19 1
    24   17   37 1
    25   18   38 1
    26   19   20 1
    27   19   21 1
    28   19   39 1
    29   20   40 1
    30   21   22 1
    31   21   41 1
    32   22   23 ar
    33   22   32 ar
    34   23   24 ar
    35   23   42 1
    36   24   25 ar
    37   25   26 ar
    38   25   32 ar
    39   26   27 2
    40   26   28 ar
    41   28   29 ar
    42   28   43 1
    43   29   30 1
    44   29   31 ar
    45   30   44 1
    46   30   45 1
    47   31   32 ar
    48   31   46 1
@<TRIPOS>SUBSTRUCTURE
     1 GTP         1 GROUP 0 A     ****
@<TRIPOS>MOLECULE
[[[5-(2-amino-6-oxo-1,3-dihydropurin-2-ylium-9-yl)-3,4-dihydroxy-tetrahydrofuran-2-yl]methoxy-oxido-phosphoryl]oxy-oxido-phosphoryl] hydrogen phosphate
   46    48     1     0     0
SMALL
USER_CHARGES

@<TRIPOS>ATOM
      1 PG         -5.5150   -2.0385    2.2232 P.3       1 GTP         1.5400
      2 O1G        -6.2595   -2.1170    0.9091 O.co2     1 GTP        -0.8909
      3 O2G        -4.6367   -3.1787    2.6883 O.co2     1 GTP        -0.8909
      4 O3G        -6.5861   -1.6934    3.4063 O.3       1 GTP        -0.7980
      5 O3B        -4.6503   -0.6549    2.2621 O.3       1 GTP        -0.7612
      6 PB         -5.1305    0.8859    2.0149 P.3       1 GTP         1.5847
      7 O1B        -5.5692    1.0319    0.5748 O.co2     1 GTP        -0.8859
      8 O2B        -6.0193    1.3154    3.1608 O.co2     1 GTP        -0.8859
      9 O3A        -3.7004    1.6434    2.2287 O.3       1 GTP        -0.7486
     10 PA         -3.3347    3.2338    2.1468 P.3       1 GTP         1.5001
     11 O1A        -3.5602    3.7126    0.7290 O.co2     1 GTP        -0.8487
     12 O2A        -3.9756    3.9393    3.3221 O.co2     1 GTP        -0.8487
     13 O5'        -1.7336    3.1724    2.4750 O.3       1 GTP        -0.5474
     14 C5'        -0.8811    2.4285    1.6206 C.3       1 GTP         0.2547
     15 C4'        -0.1994    1.3333    2.4288 C.3       1 GTP         0.0926
     16 O4'        -1.1285    0.2356    2.5840 O.3       1 GTP        -0.3593
     17 C3'         1.0324    0.7610    1.7344 C.3       1 GTP         0.0907
     18 O3'         1.9175    0.2377    2.7247 O.3       1 GTP        -0.5209
     19 C2'         0.4468   -0.3802    0.9263 C.3       1 GTP         0.0305
     20 O2'         1.3993   -1.3703    0.5961 O.3       1 GTP        -0.5978
     21 C1'        -0.6159   -0.9100    1.8769 C.3       1 GTP         0.2339
     22 N9         -1.7127   -1.6108    1.2130 N.pl3     1 GTP        -0.1765
     23 C8         -2.5534   -1.0907    0.2607 C.ar      1 GTP         0.4947
     24 N7         -3.4469   -1.9695   -0.1508 N.2       1 GTP        -0.5802
     25 C5         -3.1705   -3.1041    0.5657 C.ar      1 GTP         0.2279
     26 C6         -3.8738   -4.3568    0.4777 C.ar      1 GTP         0.6513
     27 O6         -4.8240   -4.5720   -0.2607 O.2       1 GTP        -0.5111
     28 N1         -3.3198   -5.3462    1.3780 N.pl3     1 GTP        -0.4713
     29 C2         -2.2226   -5.1203    2.2413 C.ar      1 GTP         0.5256
     30 N2         -1.7649   -6.1367    3.0659 N.pl3     1 GTP        -0.8665
     31 N3         -1.5969   -3.8585    2.2574 N.pl3     1 GTP        -0.5398
     32 C4         -2.1068   -2.8965    1.4082 C.ar      1 GTP        -0.0275
     33 HOG3       -7.0960   -0.8576    3.3452 H         1 GTP         0.4161
     34 H5'        -1.4800    1.9927    0.8146 H         1 GTP         0.0348
     35 H5''       -0.1367    3.1040    1.1872 H         1 GTP         0.0348
     36 H4'         0.0403    1.7078    3.4343 H         1 GTP         0.1215
     37 H3'         1.5907    1.4859    1.1353 H         1 GTP         0.0576
     38 HO3'        2.6839   -0.1150    2.2479 H         1 GTP         0.3842
     39 H2'        -0.0017    0.0018    0.0005 H         1 GTP         0.0252
     40 HO2'        0.9369   -2.0558    0.0825 H         1 GTP         0.4224
     41 H1'        -0.1998   -1.6319    2.6178 H         1 GTP         0.0745
     42 H8         -2.4657   -0.0713   -0.0897 H         1 GTP         0.1522
     43 HN1        -3.7505   -6.2699    1.3904 H         1 GTP         0.3518
     44 HN21       -1.0023   -5.9289    3.6451 H         1 GTP         0.4761
     45 HN22       -2.2347   -6.9951    3.0150 H         1 GTP         0.4761
     46 H46        -0.8062   -3.6900    2.8760 H         1 GTP         0.5030
@<TRIPOS>BOND
     1    1    2 2
     2    1    3 1
     3    1    4 1
     4    1    5 1
     5    4   33 1
     6    5    6 1
     7    6    7 2
     8    6    8 1
     9    6    9 1
    10    9   10 1
    11   10   11 2
    12   10   12 1
    13   10   13 1
    14   13   14 1
    15   14   15 1
    16   14   34 1
    17   14   35 1
    18   15   16 1
    19   15   17 1
    20   15   36 1
    21   16   21 1
    22   17   18 1
    23   17   19 1
    24   17   37 1
    25   18   38 1
    26   19   20 1
    27   19   21 1
    28   19   39 1
    29   20   40 1
    30   21   22 1
    31   21   41 1
    32   22   23 ar
    33   22   32 ar
    34   23   24 ar
    35   23   42 1
    36   24   25 ar
    37   25   26 ar
    38   25   32 ar
    39   26   27 2
    40   26   28 ar
    41   28   29 ar
    42   28   43 1
    43   29   30 1
    44   29   31 ar
    45   30   44 1
    46   30   45 1
    47   31   32 ar
    48   31   46 1
@<TRIPOS>SUBSTRUCTURE
     1 GTP         1 GROUP 0 A     ****
